data_mof_unit_60824.cif
_audit_creation_date              2012-12-10T19:29:53-0500
_audit_creation_method            fapswitch 2.2
_symmetry_space_group_name_H-M    P1
_symmetry_Int_Tables_number       1
_space_group_crystal_system       triclinic
_cell_length_a                    36.035236
_cell_length_b                    43.24099
_cell_length_c                    43.236078
_cell_angle_alpha                 90.000228
_cell_angle_beta                  89.980041
_cell_angle_gamma                 90.010224
_cell_volume                      67370.4204283

loop_
_atom_site_label
_atom_site_type_symbol
_atom_type_description
_atom_site_fract_x
_atom_site_fract_y
_atom_site_fract_z
_atom_type_partial_charge
C1    C     C_R   0.650452 0.499985 0.249971 0.824533
C2    C     C_R   0.349548 0.499987 0.750031 0.823458
C3    C     C_R   0.349548 0.499992 0.249965 0.823493
C4    C     C_R   0.650452 0.499990 0.750033 0.824535
C5    C     C_R   0.150452 0.499985 0.749972 0.823486
C6    C     C_R   0.849548 0.499987 0.250031 0.824536
C7    C     C_R   0.849548 0.499992 0.749964 0.824533
C8    C     C_R   0.150452 0.499989 0.250034 0.823463
C9    C     C_R   0.150452 0.999985 0.249972 0.823573
C10   C     C_R   0.849548 0.999987 0.750031 0.824542
C11   C     C_R   0.849548 0.999992 0.249964 0.824533
C12   C     C_R   0.150452 0.999990 0.750033 0.824503
C13   C     C_R   0.650452 0.999985 0.749971 0.824539
C14   C     C_R   0.349548 0.999988 0.250031 0.823577
C15   C     C_R   0.349548 0.999992 0.749964 0.824499
C16   C     C_R   0.650452 0.999990 0.250033 0.824535
C17   C     C_R   0.748755 0.733857 0.221996 -0.183400
C18   C     C_R   0.273415 0.733871 0.770049 -0.181674
C19   C     C_R   0.251248 0.733859 0.221989 -0.183607
C20   C     C_R   0.748728 0.733857 0.778004 -0.183464
C21   C     C_R   0.226621 0.733862 0.729920 -0.181798
C22   C     C_R   0.751248 0.733859 0.278005 -0.183403
C23   C     C_R   0.751275 0.733859 0.721995 -0.183457
C24   C     C_R   0.248750 0.733857 0.278000 -0.183401
C25   C     C_R   0.226629 0.233859 0.229912 -0.181706
C26   C     C_R   0.751246 0.233859 0.778005 -0.183400
C27   C     C_R   0.751275 0.233859 0.221995 -0.183466
C28   C     C_R   0.248772 0.233858 0.777998 -0.183645
C29   C     C_R   0.748757 0.233857 0.721996 -0.183392
C30   C     C_R   0.273404 0.233870 0.270057 -0.181574
C31   C     C_R   0.251215 0.233858 0.721986 -0.183556
C32   C     C_R   0.748728 0.233857 0.278004 -0.183459
C33   C     C_R   0.750003 0.717449 0.250001 0.105935
C34   C     C_R   0.250018 0.717320 0.749985 0.107699
C35   C     C_R   0.250000 0.717449 0.249994 0.106083
C36   C     C_R   0.750003 0.717449 0.749999 0.105932
C37   C     C_R   0.250016 0.217318 0.249986 0.107665
C38   C     C_R   0.750004 0.217449 0.750001 0.105934
C39   C     C_R   0.750003 0.217449 0.249999 0.105932
C40   C     C_R   0.249996 0.217449 0.749992 0.106129
C41   C     C_R   0.749996 0.782510 0.249999 0.105909
C42   C     C_R   0.250014 0.782636 0.749985 0.107743
C43   C     C_R   0.249994 0.782509 0.249997 0.106058
C44   C     C_R   0.749996 0.782509 0.750001 0.105919
C45   C     C_R   0.250013 0.282634 0.249983 0.107748
C46   C     C_R   0.749996 0.282510 0.749999 0.105908
C47   C     C_R   0.749996 0.282509 0.250001 0.105920
C48   C     C_R   0.249986 0.282509 0.749992 0.106115
C49   C     C_R   0.773540 0.666890 0.270005 -0.182476
C50   C     C_R   0.217224 0.666439 0.743767 -0.178306
C51   C     C_R   0.226456 0.666885 0.270003 -0.182531
C52   C     C_R   0.773561 0.666891 0.729999 -0.182513
C53   C     C_R   0.282802 0.666445 0.756218 -0.178305
C54   C     C_R   0.726468 0.666883 0.230000 -0.182503
C55   C     C_R   0.726446 0.666884 0.769996 -0.182544
C56   C     C_R   0.273543 0.666891 0.229982 -0.182642
C57   C     C_R   0.282799 0.166444 0.256223 -0.178137
C58   C     C_R   0.726469 0.166883 0.729999 -0.182484
C59   C     C_R   0.726446 0.166884 0.269996 -0.182532
C60   C     C_R   0.273523 0.166891 0.729968 -0.182706
C61   C     C_R   0.773539 0.166889 0.770006 -0.182479
C62   C     C_R   0.217222 0.166438 0.243768 -0.178128
C63   C     C_R   0.226475 0.166884 0.770019 -0.182754
C64   C     C_R   0.773561 0.166891 0.229999 -0.182528
C65   C     C_R   0.773555 0.634644 0.270000 -0.190355
C66   C     C_R   0.217372 0.634208 0.743341 -0.191570
C67   C     C_R   0.226440 0.634640 0.269998 -0.189404
C68   C     C_R   0.773577 0.634645 0.730004 -0.190415
C69   C     C_R   0.282645 0.634214 0.756653 -0.191721
C70   C     C_R   0.726451 0.634637 0.230005 -0.190341
C71   C     C_R   0.726430 0.634639 0.769991 -0.190415
C72   C     C_R   0.273560 0.634645 0.229988 -0.190724
C73   C     C_R   0.282643 0.134214 0.256658 -0.191287
C74   C     C_R   0.726452 0.134637 0.730004 -0.190323
C75   C     C_R   0.726430 0.134639 0.269991 -0.190408
C76   C     C_R   0.273541 0.134645 0.729975 -0.190639
C77   C     C_R   0.773554 0.134644 0.770001 -0.190344
C78   C     C_R   0.217370 0.134208 0.243342 -0.191305
C79   C     C_R   0.226460 0.134639 0.770016 -0.190632
C80   C     C_R   0.773577 0.134645 0.230004 -0.190430
C81   C     C_R   0.750003 0.618224 0.250002 -0.005012
C82   C     C_R   0.250007 0.617933 0.750000 0.007034
C83   C     C_R   0.250001 0.618227 0.249995 -0.005371
C84   C     C_R   0.750003 0.618226 0.749998 -0.005051
C85   C     C_R   0.250005 0.117933 0.250002 0.007147
C86   C     C_R   0.750003 0.118224 0.750002 -0.005015
C87   C     C_R   0.750003 0.118226 0.249998 -0.005047
C88   C     C_R   0.250001 0.118226 0.749996 -0.004972
C89   C     C_R   0.750004 0.683296 0.250002 0.114901
C90   C     C_R   0.250015 0.682997 0.749990 0.114497
C91   C     C_R   0.250000 0.683297 0.249992 0.114806
C92   C     C_R   0.750004 0.683297 0.749998 0.114923
C93   C     C_R   0.250013 0.182996 0.249992 0.114512
C94   C     C_R   0.750004 0.183296 0.750002 0.114898
C95   C     C_R   0.750004 0.183297 0.249998 0.114926
C96   C     C_R   0.249998 0.183297 0.749993 0.115010
C97   C     C_3   0.978475 0.532403 0.258810 -0.390411
C98   C     C_3   0.021543 0.532525 0.741658 -0.390801
C99   C     C_3   0.021526 0.532405 0.258812 -0.390557
C100  C     C_3   0.978493 0.532531 0.741652 -0.390431
C101  C     C_3   0.478476 0.532544 0.758280 -0.391188
C102  C     C_3   0.521544 0.532389 0.241144 -0.390382
C103  C     C_3   0.521526 0.532546 0.758282 -0.390301
C104  C     C_3   0.478493 0.532396 0.241138 -0.390628
C105  C     C_3   0.478476 0.032607 0.258027 -0.391081
C106  C     C_3   0.521544 0.032490 0.741528 -0.390385
C107  C     C_3   0.521526 0.032609 0.258029 -0.390353
C108  C     C_3   0.478493 0.032497 0.741522 -0.390593
C109  C     C_3   0.978476 0.032852 0.756943 -0.390442
C110  C     C_3   0.021544 0.032490 0.241520 -0.391064
C111  C     C_3   0.021527 0.032854 0.756945 -0.390635
C112  C     C_3   0.978493 0.032496 0.241514 -0.390358
C113  C     C_3   0.978489 0.491362 0.217574 -0.390783
C114  C     C_3   0.021502 0.490905 0.782308 -0.390674
C115  C     C_3   0.021540 0.491364 0.217576 -0.390080
C116  C     C_3   0.978451 0.490911 0.782302 -0.390536
C117  C     C_3   0.478489 0.490841 0.717715 -0.389979
C118  C     C_3   0.521502 0.491418 0.282448 -0.390589
C119  C     C_3   0.521539 0.490843 0.717717 -0.390777
C120  C     C_3   0.478452 0.491424 0.282442 -0.390827
C121  C     C_3   0.478488 0.990591 0.217785 -0.390525
C122  C     C_3   0.521502 0.991029 0.782340 -0.390713
C123  C     C_3   0.521539 0.990593 0.217787 -0.390607
C124  C     C_3   0.478452 0.991036 0.782334 -0.390210
C125  C     C_3   0.978488 0.989526 0.718116 -0.390657
C126  C     C_3   0.021502 0.991041 0.282345 -0.390529
C127  C     C_3   0.021539 0.989529 0.718118 -0.390150
C128  C     C_3   0.978452 0.991046 0.282339 -0.390604
C129  C     C_1   0.610747 0.999989 0.250038 -0.144905
C130  C     C_1   0.389253 0.999995 0.749954 -0.144031
C131  C     C_1   0.389253 0.999983 0.250032 -0.145130
C132  C     C_1   0.610747 0.999975 0.749974 -0.144849
C133  C     C_1   0.110747 0.999989 0.750039 -0.144032
C134  C     C_1   0.889253 0.999995 0.249955 -0.144904
C135  C     C_1   0.889253 0.999981 0.750033 -0.144849
C136  C     C_1   0.110747 0.999976 0.249975 -0.145129
C137  C     C_1   0.110747 0.499987 0.250041 -0.144436
C138  C     C_1   0.889253 0.499996 0.749955 -0.144888
C139  C     C_1   0.889253 0.499980 0.250034 -0.144890
C140  C     C_1   0.110747 0.499977 0.749976 -0.144443
C141  C     C_1   0.610747 0.499989 0.750039 -0.144892
C142  C     C_1   0.389253 0.499997 0.249956 -0.144439
C143  C     C_1   0.389253 0.499983 0.750032 -0.144443
C144  C     C_1   0.610747 0.499975 0.249975 -0.144886
C145  C     C_R   0.749997 0.499959 0.334171 0.785224
C146  C     C_R   0.250003 0.499958 0.665932 0.780643
C147  C     C_R   0.249997 0.499963 0.334068 0.779590
C148  C     C_R   0.750002 0.499963 0.665829 0.785250
C149  C     C_R   0.249998 0.499958 0.834171 0.785466
C150  C     C_R   0.750003 0.499959 0.165830 0.785164
C151  C     C_R   0.749998 0.499963 0.834170 0.785154
C152  C     C_R   0.250003 0.499962 0.165829 0.784330
C153  C     C_R   0.249998 0.999958 0.334171 0.785323
C154  C     C_R   0.750003 0.999959 0.665830 0.785161
C155  C     C_R   0.749998 0.999963 0.334170 0.785156
C156  C     C_R   0.250003 0.999962 0.665829 0.784179
C157  C     C_R   0.749997 0.999959 0.834171 0.785256
C158  C     C_R   0.250002 0.999958 0.165830 0.785199
C159  C     C_R   0.249996 0.999962 0.834170 0.784068
C160  C     C_R   0.750002 0.999963 0.165829 0.785248
C161  C     C_3   0.963434 0.499980 0.250040 0.352495
C162  C     C_3   0.036567 0.499980 0.749970 0.352480
C163  C     C_3   0.036567 0.499983 0.250043 0.352382
C164  C     C_3   0.963434 0.499990 0.749959 0.352521
C165  C     C_3   0.463433 0.499983 0.750037 0.352400
C166  C     C_3   0.536566 0.499979 0.249969 0.352519
C167  C     C_3   0.536566 0.499986 0.750040 0.352515
C168  C     C_3   0.463433 0.499990 0.249960 0.352473
C169  C     C_3   0.463433 0.999983 0.250035 0.352738
C170  C     C_3   0.536567 0.999978 0.749966 0.352406
C171  C     C_3   0.536566 0.999986 0.250039 0.352569
C172  C     C_3   0.463433 0.999988 0.749956 0.352090
C173  C     C_3   0.963433 0.999981 0.750037 0.352406
C174  C     C_3   0.036567 0.999980 0.249968 0.352738
C175  C     C_3   0.036566 0.999985 0.750040 0.352089
C176  C     C_3   0.963434 0.999990 0.249958 0.352570
C177  C     C_3   0.521510 0.976755 0.274299 -0.391413
C178  C     C_3   0.478480 0.976426 0.726018 -0.391175
C179  C     C_3   0.478459 0.976753 0.274296 -0.391099
C180  C     C_3   0.521530 0.976419 0.726024 -0.391365
C181  C     C_3   0.021510 0.977570 0.775056 -0.391198
C182  C     C_3   0.978480 0.976421 0.226026 -0.391412
C183  C     C_3   0.978459 0.977568 0.775054 -0.391365
C184  C     C_3   0.021531 0.976415 0.226032 -0.391109
C185  C     C_3   0.021510 0.476178 0.273740 -0.391649
C186  C     C_3   0.978480 0.476521 0.725929 -0.391457
C187  C     C_3   0.978460 0.476176 0.273738 -0.391241
C188  C     C_3   0.021531 0.476515 0.725936 -0.390980
C189  C     C_3   0.521510 0.476568 0.774119 -0.391383
C190  C     C_3   0.478479 0.476144 0.226304 -0.390989
C191  C     C_3   0.478459 0.476566 0.774117 -0.391129
C192  C     C_3   0.521529 0.476138 0.226310 -0.391450
C193  C     C_1   0.577346 0.999988 0.250040 -0.130763
C194  C     C_1   0.422653 0.999994 0.749952 -0.130288
C195  C     C_1   0.422653 0.999982 0.250033 -0.130952
C196  C     C_1   0.577347 0.999973 0.749972 -0.130657
C197  C     C_1   0.077346 0.999987 0.750041 -0.130289
C198  C     C_1   0.922654 0.999994 0.249953 -0.130763
C199  C     C_1   0.922653 0.999980 0.750035 -0.130657
C200  C     C_1   0.077347 0.999976 0.249974 -0.130953
C201  C     C_1   0.077347 0.499985 0.250044 -0.130656
C202  C     C_1   0.922654 0.499994 0.749954 -0.130730
C203  C     C_1   0.922653 0.499978 0.250037 -0.130717
C204  C     C_1   0.077347 0.499976 0.749975 -0.130655
C205  C     C_1   0.577346 0.499988 0.750041 -0.130720
C206  C     C_1   0.422653 0.499996 0.249955 -0.130649
C207  C     C_1   0.422653 0.499982 0.750034 -0.130664
C208  C     C_1   0.577346 0.499975 0.249974 -0.130727
C209  C     C_R   0.773529 0.479941 0.884638 -0.190662
C210  C     C_R   0.226481 0.479924 0.115361 -0.191714
C211  C     C_R   0.226455 0.479925 0.884652 -0.190865
C212  C     C_R   0.773541 0.479930 0.115349 -0.190676
C213  C     C_R   0.282612 0.493262 0.384216 -0.191678
C214  C     C_R   0.726426 0.479970 0.615360 -0.190661
C215  C     C_R   0.726416 0.479958 0.384652 -0.190742
C216  C     C_R   0.257512 0.472645 0.615786 -0.191094
C217  C     C_R   0.273558 0.979964 0.884638 -0.191728
C218  C     C_R   0.726426 0.979970 0.115360 -0.190675
C219  C     C_R   0.726416 0.979958 0.884652 -0.190689
C220  C     C_R   0.273586 0.979966 0.115349 -0.190877
C221  C     C_R   0.773535 0.979945 0.384638 -0.190653
C222  C     C_R   0.226481 0.979924 0.615361 -0.191714
C223  C     C_R   0.226455 0.979925 0.384652 -0.190839
C224  C     C_R   0.773546 0.979934 0.615349 -0.190670
C225  C     C_R   0.773535 0.479946 0.916887 -0.182666
C226  C     C_R   0.226497 0.479912 0.083112 -0.182818
C227  C     C_R   0.226470 0.479913 0.916902 -0.182675
C228  C     C_R   0.773545 0.479933 0.083099 -0.182626
C229  C     C_R   0.282756 0.493676 0.416451 -0.178266
C230  C     C_R   0.726420 0.479975 0.583112 -0.182660
C231  C     C_R   0.726411 0.479962 0.416901 -0.182670
C232  C     C_R   0.256984 0.472512 0.583551 -0.178059
C233  C     C_R   0.273543 0.979952 0.916887 -0.182842
C234  C     C_R   0.726420 0.979975 0.083112 -0.182660
C235  C     C_R   0.726411 0.979962 0.916901 -0.182619
C236  C     C_R   0.273572 0.979955 0.083099 -0.182699
C237  C     C_R   0.773540 0.979950 0.416887 -0.182656
C238  C     C_R   0.226497 0.979912 0.583112 -0.182796
C239  C     C_R   0.226470 0.979913 0.416902 -0.182636
C240  C     C_R   0.773550 0.979938 0.583099 -0.182615
C241  C     C_R   0.749995 0.499942 0.933310 0.115001
C242  C     C_R   0.250009 0.499938 0.066689 0.115117
C243  C     C_R   0.249990 0.499933 0.933311 0.114837
C244  C     C_R   0.750002 0.499928 0.066690 0.114995
C245  C     C_R   0.249968 0.499919 0.433013 0.114570
C246  C     C_R   0.750005 0.499942 0.566689 0.114985
C247  C     C_R   0.749998 0.499928 0.433311 0.115011
C248  C     C_R   0.249987 0.499920 0.566988 0.114010
C249  C     C_R   0.249991 0.999938 0.933310 0.115128
C250  C     C_R   0.750005 0.999942 0.066689 0.115000
C251  C     C_R   0.749998 0.999928 0.933311 0.114992
C252  C     C_R   0.250010 0.999933 0.066690 0.114846
C253  C     C_R   0.749995 0.999942 0.433310 0.114995
C254  C     C_R   0.250009 0.999938 0.566689 0.115106
C255  C     C_R   0.249990 0.999933 0.433311 0.114815
C256  C     C_R   0.750002 0.999928 0.566690 0.114986
C257  C     C_R   0.726454 0.519946 0.916910 -0.182660
C258  C     C_R   0.273524 0.519970 0.083090 -0.182881
C259  C     C_R   0.273516 0.519957 0.916898 -0.182639
C260  C     C_R   0.726462 0.519932 0.083103 -0.182679
C261  C     C_R   0.217190 0.506178 0.416463 -0.178290
C262  C     C_R   0.773591 0.519916 0.583089 -0.182654
C263  C     C_R   0.773582 0.519903 0.416898 -0.182723
C264  C     C_R   0.243007 0.527341 0.583538 -0.177983
C265  C     C_R   0.226436 0.019931 0.916909 -0.182902
C266  C     C_R   0.773591 0.019916 0.083089 -0.182655
C267  C     C_R   0.773582 0.019904 0.916898 -0.182672
C268  C     C_R   0.226442 0.019915 0.083103 -0.182662
C269  C     C_R   0.726448 0.019941 0.416910 -0.182649
C270  C     C_R   0.273524 0.019970 0.583090 -0.182857
C271  C     C_R   0.273516 0.019957 0.416898 -0.182599
C272  C     C_R   0.726456 0.019928 0.583103 -0.182669
C273  C     C_R   0.726459 0.519966 0.884660 -0.190686
C274  C     C_R   0.273540 0.519972 0.115339 -0.190686
C275  C     C_R   0.273535 0.519957 0.884649 -0.189527
C276  C     C_R   0.726469 0.519953 0.115352 -0.190636
C277  C     C_R   0.217352 0.506626 0.384229 -0.191763
C278  C     C_R   0.773585 0.519937 0.615339 -0.190683
C279  C     C_R   0.773574 0.519926 0.384649 -0.190701
C280  C     C_R   0.242497 0.527232 0.615772 -0.190364
C281  C     C_R   0.226420 0.019934 0.884660 -0.190704
C282  C     C_R   0.773584 0.019937 0.115339 -0.190699
C283  C     C_R   0.773574 0.019926 0.884649 -0.190649
C284  C     C_R   0.226424 0.019916 0.115351 -0.189542
C285  C     C_R   0.726454 0.019962 0.384660 -0.190677
C286  C     C_R   0.273540 0.019972 0.615339 -0.190684
C287  C     C_R   0.273535 0.019957 0.384649 -0.189506
C288  C     C_R   0.726463 0.019949 0.615352 -0.190629
C289  C     C_R   0.749995 0.499957 0.868233 -0.005062
C290  C     C_R   0.250009 0.499953 0.131766 -0.004918
C291  C     C_R   0.249995 0.499946 0.868234 -0.005488
C292  C     C_R   0.750005 0.499947 0.131767 -0.005071
C293  C     C_R   0.249987 0.499952 0.367943 0.006806
C294  C     C_R   0.750005 0.499957 0.631766 -0.005107
C295  C     C_R   0.749995 0.499947 0.368234 -0.005079
C296  C     C_R   0.250007 0.499944 0.632058 0.006432
C297  C     C_R   0.249991 0.999954 0.868233 -0.004832
C298  C     C_R   0.750005 0.999957 0.131766 -0.005096
C299  C     C_R   0.749995 0.999947 0.868234 -0.005103
C300  C     C_R   0.250005 0.999946 0.131767 -0.005397
C301  C     C_R   0.749995 0.999957 0.368233 -0.005070
C302  C     C_R   0.250009 0.999953 0.631766 -0.004883
C303  C     C_R   0.249995 0.999946 0.368234 -0.005463
C304  C     C_R   0.750005 0.999946 0.631767 -0.005076
C305  C     C_R   0.716427 0.501513 0.983888 -0.183572
C306  C     C_R   0.251208 0.527938 0.016121 -0.183663
C307  C     C_R   0.251201 0.527937 0.983876 -0.183591
C308  C     C_R   0.716429 0.501507 0.016134 -0.183574
C309  C     C_R   0.226586 0.519989 0.483897 -0.181648
C310  C     C_R   0.783577 0.501466 0.516112 -0.183590
C311  C     C_R   0.783575 0.501460 0.483866 -0.183613
C312  C     C_R   0.226232 0.519695 0.516123 -0.181660
C313  C     C_R   0.248727 0.027936 0.983879 -0.183668
C314  C     C_R   0.783577 0.001466 0.016112 -0.183576
C315  C     C_R   0.783575 0.001460 0.983866 -0.183578
C316  C     C_R   0.248734 0.027934 0.016124 -0.183596
C317  C     C_R   0.716427 0.001505 0.483888 -0.183558
C318  C     C_R   0.251208 0.027938 0.516121 -0.183623
C319  C     C_R   0.251201 0.027937 0.483876 -0.183544
C320  C     C_R   0.716429 0.001500 0.516134 -0.183562
C321  C     C_R   0.749999 0.415788 0.250001 0.785826
C322  C     C_R   0.249997 0.415788 0.750000 0.784784
C323  C     C_R   0.249999 0.415892 0.249998 0.781035
C324  C     C_R   0.749999 0.415791 0.749999 0.785648
C325  C     C_R   0.249999 0.915788 0.250001 0.785817
C326  C     C_R   0.749999 0.915788 0.750001 0.785831
C327  C     C_R   0.749999 0.915791 0.249999 0.785647
C328  C     C_R   0.249999 0.915892 0.749999 0.780972
C329  C     C_R   0.750000 0.499922 0.032534 0.106189
C330  C     C_R   0.249986 0.499933 0.967466 0.106092
C331  C     C_R   0.250002 0.499936 0.032533 0.106100
C332  C     C_R   0.749996 0.499934 0.967466 0.106188
C333  C     C_R   0.249971 0.499908 0.532662 0.107794
C334  C     C_R   0.750000 0.499922 0.467466 0.106219
C335  C     C_R   0.750003 0.499934 0.532533 0.106212
C336  C     C_R   0.249961 0.499908 0.467340 0.107676
C337  C     C_R   0.250014 0.999933 0.032534 0.106097
C338  C     C_R   0.750000 0.999922 0.967466 0.106187
C339  C     C_R   0.750003 0.999934 0.032533 0.106187
C340  C     C_R   0.249998 0.999936 0.967466 0.106106
C341  C     C_R   0.750000 0.999922 0.532534 0.106182
C342  C     C_R   0.249987 0.999933 0.467467 0.106057
C343  C     C_R   0.250002 0.999936 0.532533 0.106066
C344  C     C_R   0.749996 0.999934 0.467466 0.106181
C345  C     C_R   0.783569 0.498340 0.016112 -0.183558
C346  C     C_R   0.248776 0.471930 0.983878 -0.183695
C347  C     C_R   0.248784 0.471932 0.016124 -0.183842
C348  C     C_R   0.783567 0.498346 0.983866 -0.183569
C349  C     C_R   0.273699 0.480116 0.516105 -0.181683
C350  C     C_R   0.716427 0.498387 0.483888 -0.183597
C351  C     C_R   0.716428 0.498393 0.516134 -0.183590
C352  C     C_R   0.273336 0.479822 0.483879 -0.181903
C353  C     C_R   0.251289 0.971933 0.016122 -0.183698
C354  C     C_R   0.716427 0.998387 0.983888 -0.183561
C355  C     C_R   0.716428 0.998393 0.016134 -0.183575
C356  C     C_R   0.251281 0.971934 0.983876 -0.183846
C357  C     C_R   0.783570 0.998347 0.516112 -0.183546
C358  C     C_R   0.248776 0.971931 0.483878 -0.183647
C359  C     C_R   0.248784 0.971932 0.516124 -0.183802
C360  C     C_R   0.783568 0.998353 0.483866 -0.183557
C361  C     C_R   0.750001 0.584163 0.250001 0.784691
C362  C     C_R   0.250002 0.584061 0.750000 0.778951
C363  C     C_R   0.250001 0.584166 0.249998 0.784998
C364  C     C_R   0.750001 0.584166 0.749999 0.784853
C365  C     C_R   0.250001 0.084061 0.250001 0.780006
C366  C     C_R   0.750001 0.084163 0.750001 0.784698
C367  C     C_R   0.750001 0.084166 0.249999 0.784853
C368  C     C_R   0.250001 0.084166 0.749999 0.784890
C369  C     C_R   0.773550 0.865321 0.269993 -0.190422
C370  C     C_R   0.242449 0.865746 0.722706 -0.191126
C371  C     C_R   0.226439 0.865313 0.270008 -0.190734
C372  C     C_R   0.773572 0.865319 0.730010 -0.190440
C373  C     C_R   0.257549 0.865744 0.777281 -0.191143
C374  C     C_R   0.726443 0.865315 0.230001 -0.190445
C375  C     C_R   0.726421 0.865313 0.769995 -0.190462
C376  C     C_R   0.273553 0.865320 0.229994 -0.190747
C377  C     C_R   0.257557 0.365743 0.277278 -0.190354
C378  C     C_R   0.726443 0.365315 0.730001 -0.190429
C379  C     C_R   0.726421 0.365313 0.269995 -0.190468
C380  C     C_R   0.273526 0.365320 0.729972 -0.191695
C381  C     C_R   0.773550 0.365321 0.769994 -0.190429
C382  C     C_R   0.242442 0.365746 0.222706 -0.191093
C383  C     C_R   0.226452 0.365313 0.770019 -0.190703
C384  C     C_R   0.773572 0.365319 0.230010 -0.190455
C385  C     C_R   0.773534 0.833076 0.269999 -0.182379
C386  C     C_R   0.242974 0.833515 0.722581 -0.178028
C387  C     C_R   0.226454 0.833067 0.270012 -0.182580
C388  C     C_R   0.773555 0.833074 0.730004 -0.182378
C389  C     C_R   0.257035 0.833513 0.777399 -0.178028
C390  C     C_R   0.726458 0.833069 0.229996 -0.182374
C391  C     C_R   0.726437 0.833067 0.769999 -0.182374
C392  C     C_R   0.273536 0.833074 0.229987 -0.182631
C393  C     C_R   0.257041 0.333512 0.277396 -0.177858
C394  C     C_R   0.726459 0.333069 0.729996 -0.182356
C395  C     C_R   0.726437 0.333067 0.269999 -0.182368
C396  C     C_R   0.273507 0.333074 0.729964 -0.182677
C397  C     C_R   0.773533 0.333076 0.770000 -0.182389
C398  C     C_R   0.242967 0.333515 0.222580 -0.177960
C399  C     C_R   0.226465 0.333068 0.770022 -0.182765
C400  C     C_R   0.773556 0.333074 0.230005 -0.182396
C401  C     C_R   0.749996 0.816662 0.249998 0.114882
C402  C     C_R   0.250008 0.816959 0.749988 0.114263
C403  C     C_R   0.249994 0.816661 0.249998 0.115011
C404  C     C_R   0.749996 0.816661 0.750001 0.114878
C405  C     C_R   0.250007 0.316958 0.249986 0.114055
C406  C     C_R   0.749996 0.316662 0.749998 0.114879
C407  C     C_R   0.749996 0.316661 0.250002 0.114882
C408  C     C_R   0.249985 0.316661 0.749992 0.115072
C409  C     C_R   0.749997 0.881732 0.249997 -0.005299
C410  C     C_R   0.249997 0.882022 0.749995 0.006814
C411  C     C_R   0.249996 0.881730 0.250001 -0.005251
C412  C     C_R   0.749997 0.881730 0.750002 -0.005362
C413  C     C_R   0.249998 0.382022 0.249994 0.006274
C414  C     C_R   0.749997 0.381732 0.749997 -0.005302
C415  C     C_R   0.749997 0.381730 0.250002 -0.005360
C416  C     C_R   0.249992 0.381730 0.749997 -0.005065
C417  C     C_R   0.748752 0.766099 0.221995 -0.183404
C418  C     C_R   0.273772 0.766093 0.769754 -0.181733
C419  C     C_R   0.251245 0.766101 0.221991 -0.183622
C420  C     C_R   0.748725 0.766099 0.778005 -0.183444
C421  C     C_R   0.226260 0.766084 0.730214 -0.181640
C422  C     C_R   0.751244 0.766101 0.278004 -0.183398
C423  C     C_R   0.751271 0.766101 0.721996 -0.183439
C424  C     C_R   0.248747 0.766099 0.278001 -0.183552
C425  C     C_R   0.226269 0.266081 0.230205 -0.181626
C426  C     C_R   0.751243 0.266101 0.778004 -0.183401
C427  C     C_R   0.751272 0.266101 0.221996 -0.183444
C428  C     C_R   0.248767 0.266100 0.777998 -0.183585
C429  C     C_R   0.748753 0.266099 0.721995 -0.183394
C430  C     C_R   0.273761 0.266092 0.269760 -0.181502
C431  C     C_R   0.251211 0.266100 0.721986 -0.183710
C432  C     C_R   0.748724 0.266099 0.278005 -0.183446
H1    H     H_    0.792073 0.877376 0.285602 0.157644
H2    H     H_    0.236923 0.877973 0.701328 0.147237
H3    H     H_    0.207914 0.877363 0.285625 0.157503
H4    H     H_    0.792112 0.877375 0.714405 0.157629
H5    H     H_    0.263073 0.877969 0.798662 0.147231
H6    H     H_    0.707920 0.877365 0.214393 0.157626
H7    H     H_    0.707882 0.877364 0.785600 0.157610
H8    H     H_    0.292078 0.877375 0.214377 0.157494
H9    H     H_    0.263087 0.377967 0.298657 0.148998
H10   H     H_    0.707922 0.377365 0.714392 0.157641
H11   H     H_    0.707882 0.377364 0.285599 0.157608
H12   H     H_    0.292036 0.377375 0.714342 0.157577
H13   H     H_    0.792072 0.377376 0.785603 0.157637
H14   H     H_    0.236909 0.377973 0.201329 0.147273
H15   H     H_    0.207945 0.377364 0.785650 0.157468
H16   H     H_    0.792112 0.377375 0.214405 0.157619
H17   H     H_    0.968140 0.481883 0.297325 0.165885
H18   H     H_    0.031857 0.482554 0.702433 0.166566
H19   H     H_    0.031808 0.481886 0.297328 0.165508
H20   H     H_    0.968189 0.482563 0.702423 0.166182
H21   H     H_    0.468140 0.482654 0.797609 0.166231
H22   H     H_    0.531855 0.481804 0.202714 0.166073
H23   H     H_    0.531808 0.482657 0.797612 0.166108
H24   H     H_    0.468187 0.481814 0.202706 0.166111
H25   H     H_    0.468140 0.983023 0.297740 0.166252
H26   H     H_    0.531856 0.982367 0.702498 0.166097
H27   H     H_    0.531808 0.983026 0.297743 0.166127
H28   H     H_    0.468188 0.982376 0.702489 0.166148
H29   H     H_    0.968141 0.984610 0.798277 0.166160
H30   H     H_    0.031857 0.982355 0.202505 0.166212
H31   H     H_    0.031809 0.984614 0.798280 0.166213
H32   H     H_    0.968189 0.982364 0.202495 0.166091
H33   H     H_    0.968151 0.452617 0.267921 0.166331
H34   H     H_    0.031826 0.452876 0.731420 0.166218
H35   H     H_    0.031819 0.452620 0.267924 0.166555
H36   H     H_    0.968159 0.452885 0.731410 0.166289
H37   H     H_    0.468150 0.452916 0.768682 0.166374
H38   H     H_    0.531824 0.452588 0.232168 0.166399
H39   H     H_    0.531817 0.452919 0.768685 0.166322
H40   H     H_    0.468156 0.452597 0.232159 0.166669
H41   H     H_    0.468149 0.953062 0.269044 0.166257
H42   H     H_    0.531825 0.952801 0.731601 0.166361
H43   H     H_    0.531817 0.953065 0.269047 0.166273
H44   H     H_    0.468158 0.952811 0.731591 0.166602
H45   H     H_    0.968150 0.953716 0.770590 0.166283
H46   H     H_    0.031826 0.952798 0.231616 0.166281
H47   H     H_    0.031817 0.953719 0.770592 0.166509
H48   H     H_    0.968159 0.952807 0.231606 0.166301
H49   H     H_    0.968156 0.539145 0.282122 0.167205
H50   H     H_    0.031870 0.539595 0.718445 0.167664
H51   H     H_    0.031824 0.539147 0.282125 0.167119
H52   H     H_    0.968201 0.539603 0.718435 0.167338
H53   H     H_    0.468157 0.539662 0.781481 0.167242
H54   H     H_    0.531870 0.539091 0.217821 0.167280
H55   H     H_    0.531825 0.539665 0.781483 0.167224
H56   H     H_    0.468201 0.539100 0.217813 0.167346
H57   H     H_    0.468157 0.039904 0.281171 0.167253
H58   H     H_    0.531870 0.039470 0.718287 0.167303
H59   H     H_    0.531825 0.039907 0.281174 0.167241
H60   H     H_    0.468202 0.039478 0.718278 0.167354
H61   H     H_    0.968157 0.040911 0.779833 0.167311
H62   H     H_    0.031870 0.039463 0.218278 0.167239
H63   H     H_    0.031825 0.040915 0.779836 0.167357
H64   H     H_    0.968201 0.039471 0.218268 0.167220
H65   H     H_    0.791894 0.464204 0.872577 0.157581
H66   H     H_    0.207978 0.464296 0.127422 0.157601
H67   H     H_    0.207945 0.464303 0.872599 0.157539
H68   H     H_    0.791906 0.464195 0.127402 0.157563
H69   H     H_    0.308186 0.488357 0.371985 0.147915
H70   H     H_    0.708026 0.464257 0.627422 0.157583
H71   H     H_    0.708016 0.464247 0.372599 0.157536
H72   H     H_    0.263006 0.451266 0.628020 0.147264
H73   H     H_    0.292093 0.964367 0.872576 0.157607
H74   H     H_    0.708026 0.964257 0.127422 0.157570
H75   H     H_    0.708016 0.964246 0.872599 0.157554
H76   H     H_    0.292129 0.964377 0.127401 0.157546
H77   H     H_    0.791904 0.964213 0.372577 0.157588
H78   H     H_    0.207978 0.964296 0.627422 0.157608
H79   H     H_    0.207945 0.964304 0.372599 0.157557
H80   H     H_    0.791916 0.964203 0.627402 0.157571
H81   H     H_    0.791617 0.464027 0.928994 0.129431
H82   H     H_    0.207772 0.464511 0.071004 0.129384
H83   H     H_    0.207739 0.464519 0.929021 0.129340
H84   H     H_    0.791628 0.464015 0.070982 0.129432
H85   H     H_    0.308719 0.489497 0.428299 0.126779
H86   H     H_    0.708301 0.464079 0.571004 0.129437
H87   H     H_    0.708292 0.464067 0.429019 0.129413
H88   H     H_    0.261582 0.450805 0.571703 0.126821
H89   H     H_    0.292299 0.964583 0.928994 0.129380
H90   H     H_    0.708301 0.964079 0.071004 0.129432
H91   H     H_    0.708292 0.964067 0.929019 0.129433
H92   H     H_    0.292337 0.964594 0.070980 0.129340
H93   H     H_    0.791628 0.964035 0.428994 0.129442
H94   H     H_    0.207773 0.964511 0.571004 0.129412
H95   H     H_    0.207739 0.964519 0.429020 0.129377
H96   H     H_    0.791638 0.964023 0.570981 0.129442
H97   H     H_    0.708371 0.535859 0.929035 0.129410
H98   H     H_    0.292247 0.535366 0.070964 0.129338
H99   H     H_    0.292246 0.535346 0.929013 0.129674
H100  H     H_    0.708379 0.535845 0.070989 0.129421
H101  H     H_    0.191220 0.510346 0.428321 0.126633
H102  H     H_    0.791710 0.535806 0.570964 0.129418
H103  H     H_    0.791701 0.535793 0.429012 0.129402
H104  H     H_    0.238402 0.549038 0.571679 0.127394
H105  H     H_    0.207681 0.035295 0.929035 0.129332
H106  H     H_    0.791709 0.035806 0.070964 0.129412
H107  H     H_    0.791701 0.035794 0.929012 0.129422
H108  H     H_    0.207679 0.035271 0.070989 0.129670
H109  H     H_    0.708361 0.035851 0.429035 0.129422
H110  H     H_    0.292247 0.035366 0.570964 0.129366
H111  H     H_    0.292246 0.035346 0.429013 0.129709
H112  H     H_    0.708369 0.035837 0.570989 0.129431
H113  H     H_    0.708095 0.535708 0.872616 0.157569
H114  H     H_    0.292043 0.535606 0.127384 0.157533
H115  H     H_    0.292048 0.535584 0.872596 0.158692
H116  H     H_    0.708104 0.535696 0.127406 0.157606
H117  H     H_    0.191784 0.511541 0.372006 0.147559
H118  H     H_    0.791984 0.535655 0.627384 0.157573
H119  H     H_    0.791974 0.535645 0.372595 0.157577
H120  H     H_    0.237008 0.548620 0.627994 0.149000
H121  H     H_    0.207886 0.035535 0.872615 0.157534
H122  H     H_    0.791984 0.035655 0.127384 0.157558
H123  H     H_    0.791974 0.035645 0.872595 0.157595
H124  H     H_    0.207878 0.035510 0.127405 0.158691
H125  H     H_    0.708085 0.035699 0.372616 0.157576
H126  H     H_    0.292043 0.035606 0.627384 0.157538
H127  H     H_    0.292048 0.035584 0.372596 0.158706
H128  H     H_    0.708094 0.035688 0.627406 0.157613
H129  H     H_    0.690138 0.502286 0.971784 0.129704
H130  H     H_    0.251596 0.549857 0.028234 0.129868
H131  H     H_    0.251585 0.549855 0.971761 0.130109
H132  H     H_    0.690141 0.502276 0.028255 0.129703
H133  H     H_    0.208673 0.536196 0.472042 0.126800
H134  H     H_    0.809867 0.502201 0.528216 0.129686
H135  H     H_    0.809864 0.502192 0.471744 0.129652
H136  H     H_    0.207068 0.534873 0.527993 0.126886
H137  H     H_    0.248288 0.049855 0.971767 0.129862
H138  H     H_    0.809867 0.002201 0.028216 0.129705
H139  H     H_    0.809864 0.002192 0.971744 0.129704
H140  H     H_    0.248299 0.049852 0.028239 0.130103
H141  H     H_    0.690137 0.002273 0.471784 0.129713
H142  H     H_    0.251596 0.049857 0.528234 0.129907
H143  H     H_    0.251585 0.049855 0.471761 0.130155
H144  H     H_    0.690141 0.002263 0.528255 0.129712
H145  H     H_    0.809858 0.497568 0.028216 0.129719
H146  H     H_    0.248387 0.450012 0.971765 0.129732
H147  H     H_    0.248401 0.450013 0.028239 0.129595
H148  H     H_    0.809855 0.497578 0.971744 0.129709
H149  H     H_    0.292867 0.464939 0.527960 0.126689
H150  H     H_    0.690136 0.497653 0.471783 0.129667
H151  H     H_    0.690139 0.497662 0.528256 0.129689
H152  H     H_    0.291247 0.463617 0.472009 0.126671
H153  H     H_    0.251729 0.950015 0.028234 0.129726
H154  H     H_    0.690136 0.997653 0.971783 0.129720
H155  H     H_    0.690139 0.997662 0.028256 0.129710
H156  H     H_    0.251715 0.950017 0.971762 0.129589
H157  H     H_    0.809859 0.997582 0.528216 0.129727
H158  H     H_    0.248387 0.950012 0.471765 0.129778
H159  H     H_    0.248401 0.950013 0.528239 0.129633
H160  H     H_    0.809856 0.997591 0.471744 0.129718
H161  H     H_    0.792277 0.820964 0.285375 0.129543
H162  H     H_    0.238340 0.821664 0.700881 0.126817
H163  H     H_    0.207708 0.820949 0.285396 0.129439
H164  H     H_    0.792315 0.820962 0.714632 0.129536
H165  H     H_    0.261671 0.821660 0.799097 0.126804
H166  H     H_    0.707716 0.820951 0.214621 0.129529
H167  H     H_    0.707677 0.820950 0.785372 0.129519
H168  H     H_    0.292281 0.820962 0.214602 0.129372
H169  H     H_    0.261682 0.321661 0.299094 0.127378
H170  H     H_    0.707717 0.320951 0.714619 0.129550
H171  H     H_    0.707677 0.320950 0.285372 0.129528
H172  H     H_    0.292236 0.320962 0.714565 0.129454
H173  H     H_    0.792275 0.320964 0.785376 0.129531
H174  H     H_    0.238329 0.321666 0.200880 0.126792
H175  H     H_    0.207735 0.320950 0.785419 0.129348
H176  H     H_    0.792316 0.320962 0.214632 0.129520
H177  H     H_    0.748344 0.721744 0.200075 0.130081
H178  H     H_    0.291346 0.722014 0.786241 0.126746
H179  H     H_    0.251664 0.721748 0.200068 0.129776
H180  H     H_    0.748295 0.721745 0.799924 0.130070
H181  H     H_    0.208691 0.721997 0.713729 0.126723
H182  H     H_    0.751661 0.721748 0.299926 0.130079
H183  H     H_    0.751710 0.721748 0.700074 0.130075
H184  H     H_    0.248336 0.721744 0.299920 0.130167
H185  H     H_    0.208708 0.221993 0.213715 0.126738
H186  H     H_    0.751658 0.221748 0.799926 0.130081
H187  H     H_    0.751710 0.221748 0.200074 0.130070
H188  H     H_    0.248380 0.221746 0.799920 0.129778
H189  H     H_    0.748347 0.221744 0.700075 0.130087
H190  H     H_    0.291325 0.222012 0.286255 0.126852
H191  H     H_    0.251611 0.221745 0.700065 0.129788
H192  H     H_    0.748295 0.221745 0.299924 0.130072
H193  H     H_    0.792281 0.679007 0.285381 0.129560
H194  H     H_    0.191254 0.678288 0.739613 0.126873
H195  H     H_    0.207709 0.678998 0.285385 0.129787
H196  H     H_    0.792319 0.679008 0.714626 0.129534
H197  H     H_    0.308774 0.678299 0.760369 0.126732
H198  H     H_    0.707726 0.678994 0.214623 0.129553
H199  H     H_    0.707688 0.678996 0.785370 0.129515
H200  H     H_    0.292289 0.679008 0.214598 0.129413
H201  H     H_    0.308770 0.178299 0.260376 0.126780
H202  H     H_    0.707728 0.178995 0.714621 0.129569
H203  H     H_    0.707687 0.178996 0.285370 0.129528
H204  H     H_    0.292254 0.179009 0.714571 0.129428
H205  H     H_    0.792279 0.179007 0.785383 0.129552
H206  H     H_    0.191253 0.178288 0.239611 0.126770
H207  H     H_    0.207742 0.178997 0.785414 0.129394
H208  H     H_    0.792320 0.179008 0.214626 0.129513
H209  H     H_    0.792077 0.622596 0.285610 0.157765
H210  H     H_    0.191795 0.621981 0.738453 0.147986
H211  H     H_    0.207912 0.622587 0.285614 0.158791
H212  H     H_    0.792115 0.622597 0.714397 0.157735
H213  H     H_    0.308220 0.621991 0.761544 0.147616
H214  H     H_    0.707929 0.622584 0.214395 0.157777
H215  H     H_    0.707890 0.622586 0.785598 0.157730
H216  H     H_    0.292087 0.622596 0.214373 0.157665
H217  H     H_    0.308217 0.121991 0.261550 0.147649
H218  H     H_    0.707931 0.122584 0.714393 0.157787
H219  H     H_    0.707890 0.122586 0.285598 0.157738
H220  H     H_    0.292054 0.122596 0.714347 0.157637
H221  H     H_    0.792075 0.122596 0.785612 0.157766
H222  H     H_    0.191793 0.121980 0.238453 0.147645
H223  H     H_    0.207947 0.122586 0.785645 0.157636
H224  H     H_    0.792116 0.122596 0.214397 0.157720
H225  H     H_    0.531846 0.049775 0.240877 0.165793
H226  H     H_    0.468181 0.049897 0.758436 0.166021
H227  H     H_    0.468178 0.049773 0.240874 0.165369
H228  H     H_    0.531849 0.049888 0.758445 0.166002
H229  H     H_    0.031846 0.049443 0.739234 0.165958
H230  H     H_    0.968181 0.049901 0.258424 0.165813
H231  H     H_    0.968178 0.049439 0.739231 0.165935
H232  H     H_    0.031849 0.049893 0.258433 0.165387
H233  H     H_    0.031845 0.549977 0.242076 0.166103
H234  H     H_    0.968180 0.549865 0.758634 0.165833
H235  H     H_    0.968178 0.549974 0.242072 0.166028
H236  H     H_    0.031848 0.549857 0.758643 0.165400
H237  H     H_    0.531846 0.549845 0.741264 0.165799
H238  H     H_    0.468182 0.549997 0.257844 0.165853
H239  H     H_    0.468178 0.549842 0.741261 0.165380
H240  H     H_    0.531850 0.549988 0.257852 0.165950
H241  H     H_    0.968180 0.468083 0.210723 0.167429
H242  H     H_    0.031797 0.467531 0.788830 0.167365
H243  H     H_    0.031849 0.468086 0.210726 0.167755
H244  H     H_    0.968129 0.467539 0.788821 0.167319
H245  H     H_    0.468179 0.467454 0.711242 0.167742
H246  H     H_    0.531797 0.468149 0.289339 0.167374
H247  H     H_    0.531847 0.467456 0.711245 0.167432
H248  H     H_    0.468128 0.468159 0.289330 0.167689
H249  H     H_    0.468179 0.967155 0.211493 0.167364
H250  H     H_    0.531797 0.967680 0.788953 0.167429
H251  H     H_    0.531847 0.967157 0.211496 0.167321
H252  H     H_    0.468129 0.967689 0.788945 0.167774
H253  H     H_    0.968179 0.965895 0.712604 0.167436
H254  H     H_    0.031797 0.967694 0.288964 0.167384
H255  H     H_    0.031847 0.965898 0.712606 0.167785
H256  H     H_    0.968129 0.967702 0.288955 0.167338
H257  H     H_    0.968192 0.508177 0.200077 0.165849
H258  H     H_    0.031806 0.507471 0.800042 0.165760
H259  H     H_    0.031859 0.508180 0.200081 0.165945
H260  H     H_    0.968138 0.507479 0.800033 0.165765
H261  H     H_    0.468191 0.507371 0.699948 0.165991
H262  H     H_    0.531807 0.508262 0.299917 0.165661
H263  H     H_    0.531859 0.507373 0.699951 0.165830
H264  H     H_    0.468139 0.508271 0.299909 0.165324
H265  H     H_    0.468191 0.006983 0.199891 0.165755
H266  H     H_    0.531807 0.007664 0.800009 0.165855
H267  H     H_    0.531859 0.006986 0.199894 0.165774
H268  H     H_    0.468139 0.007673 0.800001 0.165951
H269  H     H_    0.968191 0.005317 0.699689 0.165924
H270  H     H_    0.031807 0.007680 0.300009 0.165746
H271  H     H_    0.031858 0.005320 0.699692 0.166031
H272  H     H_    0.968139 0.007689 0.300000 0.165766
O1    O     O_3   0.750000 0.499980 0.250000 -0.469292
O2    O     O_3   0.250000 0.499980 0.750000 -0.470903
O3    O     O_3   0.250000 0.499980 0.250000 -0.470903
O4    O     O_3   0.750000 0.499980 0.750000 -0.469291
O5    O     O_3   0.250000 0.999980 0.250000 -0.470061
O6    O     O_3   0.750000 0.999980 0.750000 -0.469305
O7    O     O_3   0.750000 0.999980 0.250000 -0.469287
O8    O     O_3   0.250000 0.999980 0.750000 -0.470118
O9    O     O_R   0.668020 0.518160 0.231800 -0.639199
O10   O     O_R   0.331980 0.518160 0.768200 -0.640412
O11   O     O_R   0.331980 0.518160 0.231800 -0.639394
O12   O     O_R   0.668020 0.518160 0.768200 -0.639292
O13   O     O_R   0.168020 0.518160 0.731800 -0.638516
O14   O     O_R   0.831980 0.518160 0.268200 -0.639257
O15   O     O_R   0.831980 0.518160 0.731800 -0.639310
O16   O     O_R   0.168020 0.518160 0.268200 -0.640443
O17   O     O_R   0.168020 0.018160 0.231800 -0.640055
O18   O     O_R   0.831980 0.018160 0.768200 -0.639243
O19   O     O_R   0.831980 0.018160 0.231800 -0.639328
O20   O     O_R   0.168020 0.018160 0.768200 -0.639558
O21   O     O_R   0.668020 0.018160 0.731800 -0.639197
O22   O     O_R   0.331980 0.018160 0.268200 -0.640072
O23   O     O_R   0.331980 0.018160 0.731800 -0.639576
O24   O     O_R   0.668020 0.018160 0.268200 -0.639281
O25   O     O_R   0.728510 0.481800 0.319270 -0.646814
O26   O     O_R   0.271490 0.481800 0.680730 -0.643866
O27   O     O_R   0.271490 0.481800 0.319270 -0.644436
O28   O     O_R   0.728510 0.481800 0.680730 -0.646756
O29   O     O_R   0.228510 0.481800 0.819270 -0.646955
O30   O     O_R   0.771490 0.481800 0.180730 -0.646802
O31   O     O_R   0.771490 0.481800 0.819270 -0.646759
O32   O     O_R   0.228510 0.481800 0.180730 -0.647360
O33   O     O_R   0.228510 0.981800 0.319270 -0.647034
O34   O     O_R   0.771490 0.981800 0.680730 -0.646802
O35   O     O_R   0.771490 0.981800 0.319270 -0.646756
O36   O     O_R   0.228510 0.981800 0.680730 -0.647442
O37   O     O_R   0.728510 0.981800 0.819270 -0.646804
O38   O     O_R   0.271490 0.981800 0.180730 -0.647046
O39   O     O_R   0.271490 0.981800 0.819270 -0.647446
O40   O     O_R   0.728510 0.981800 0.180730 -0.646761
O41   O     O_R   0.728520 0.430690 0.268150 -0.646741
O42   O     O_R   0.271480 0.430690 0.731850 -0.647362
O43   O     O_R   0.271480 0.430690 0.268150 -0.642265
O44   O     O_R   0.728520 0.430690 0.731850 -0.646732
O45   O     O_R   0.228520 0.430690 0.768150 -0.646635
O46   O     O_R   0.771480 0.430690 0.231850 -0.646722
O47   O     O_R   0.771480 0.430690 0.768150 -0.646718
O48   O     O_R   0.228520 0.430690 0.231850 -0.643869
O49   O     O_R   0.228520 0.930690 0.268150 -0.646720
O50   O     O_R   0.771480 0.930690 0.731850 -0.646717
O51   O     O_R   0.771480 0.930690 0.268150 -0.646714
O52   O     O_R   0.228520 0.930690 0.731850 -0.643653
O53   O     O_R   0.728520 0.930690 0.768150 -0.646742
O54   O     O_R   0.271480 0.930690 0.231850 -0.646700
O55   O     O_R   0.271480 0.930690 0.768150 -0.643619
O56   O     O_R   0.728520 0.930690 0.231850 -0.646739
O57   O     O_R   0.728490 0.569280 0.231810 -0.646684
O58   O     O_R   0.271510 0.569280 0.768190 -0.643421
O59   O     O_R   0.271510 0.569280 0.231810 -0.646900
O60   O     O_R   0.728490 0.569280 0.768190 -0.646700
O61   O     O_R   0.228490 0.569280 0.731810 -0.644382
O62   O     O_R   0.771510 0.569280 0.268190 -0.646704
O63   O     O_R   0.771510 0.569280 0.731810 -0.646713
O64   O     O_R   0.228490 0.569280 0.268190 -0.645295
O65   O     O_R   0.228490 0.069280 0.231810 -0.643575
O66   O     O_R   0.771510 0.069280 0.768190 -0.646705
O67   O     O_R   0.771510 0.069280 0.231810 -0.646719
O68   O     O_R   0.228490 0.069280 0.768190 -0.646650
O69   O     O_R   0.728490 0.069280 0.731810 -0.646679
O70   O     O_R   0.271510 0.069280 0.268190 -0.643597
O71   O     O_R   0.271510 0.069280 0.731810 -0.646674
O72   O     O_R   0.728490 0.069280 0.268190 -0.646695
O73   O     O_R   0.771490 0.518130 0.319280 -0.646670
O74   O     O_R   0.228510 0.518130 0.680720 -0.642132
O75   O     O_R   0.228510 0.518130 0.319280 -0.643386
O76   O     O_R   0.771490 0.518130 0.680720 -0.646706
O77   O     O_R   0.271490 0.518130 0.819280 -0.645236
O78   O     O_R   0.728510 0.518130 0.180720 -0.646656
O79   O     O_R   0.728510 0.518130 0.819280 -0.646711
O80   O     O_R   0.271490 0.518130 0.180720 -0.646547
O81   O     O_R   0.271490 0.018130 0.319280 -0.645319
O82   O     O_R   0.728510 0.018130 0.680720 -0.646657
O83   O     O_R   0.728510 0.018130 0.319280 -0.646709
O84   O     O_R   0.271490 0.018130 0.680720 -0.646626
O85   O     O_R   0.771490 0.018130 0.819280 -0.646661
O86   O     O_R   0.228510 0.018130 0.180720 -0.645329
O87   O     O_R   0.228510 0.018130 0.819280 -0.646632
O88   O     O_R   0.771490 0.018130 0.180720 -0.646711
O89   O     O_R   0.668020 0.481820 0.268140 -0.639507
O90   O     O_R   0.331980 0.481820 0.731860 -0.637725
O91   O     O_R   0.331980 0.481820 0.268140 -0.638721
O92   O     O_R   0.668020 0.481820 0.731860 -0.639415
O93   O     O_R   0.168020 0.481820 0.768140 -0.639595
O94   O     O_R   0.831980 0.481820 0.231860 -0.639449
O95   O     O_R   0.831980 0.481820 0.768140 -0.639396
O96   O     O_R   0.168020 0.481820 0.231860 -0.637696
O97   O     O_R   0.168020 0.981820 0.268140 -0.639251
O98   O     O_R   0.831980 0.981820 0.731860 -0.639449
O99   O     O_R   0.831980 0.981820 0.268140 -0.639386
O100  O     O_R   0.168020 0.981820 0.731860 -0.637874
O101  O     O_R   0.668020 0.981820 0.768140 -0.639495
O102  O     O_R   0.331980 0.981820 0.231860 -0.639234
O103  O     O_R   0.331980 0.981820 0.768140 -0.637853
O104  O     O_R   0.668020 0.981820 0.231860 -0.639433
Zn1   Zn    Zn3+2 0.780700 0.525930 0.275940 0.965565
Zn2   Zn    Zn3+2 0.219300 0.525930 0.724060 0.967263
Zn3   Zn    Zn3+2 0.219300 0.525930 0.275940 0.965891
Zn4   Zn    Zn3+2 0.780700 0.525930 0.724060 0.965601
Zn5   Zn    Zn3+2 0.280700 0.525930 0.775940 0.965839
Zn6   Zn    Zn3+2 0.719300 0.525930 0.224060 0.965585
Zn7   Zn    Zn3+2 0.719300 0.525930 0.775940 0.965566
Zn8   Zn    Zn3+2 0.280700 0.525930 0.224060 0.964621
Zn9   Zn    Zn3+2 0.280700 0.025930 0.275940 0.966374
Zn10  Zn    Zn3+2 0.719300 0.025930 0.724060 0.965598
Zn11  Zn    Zn3+2 0.719300 0.025930 0.275940 0.965576
Zn12  Zn    Zn3+2 0.280700 0.025930 0.724060 0.965067
Zn13  Zn    Zn3+2 0.780700 0.025930 0.775940 0.965600
Zn14  Zn    Zn3+2 0.219300 0.025930 0.224060 0.966328
Zn15  Zn    Zn3+2 0.219300 0.025930 0.775940 0.965036
Zn16  Zn    Zn3+2 0.780700 0.025930 0.224060 0.965577
Zn17  Zn    Zn3+2 0.719300 0.474020 0.275940 0.965510
Zn18  Zn    Zn3+2 0.280700 0.474020 0.724060 0.965994
Zn19  Zn    Zn3+2 0.280700 0.474020 0.275940 0.967176
Zn20  Zn    Zn3+2 0.719300 0.474020 0.724060 0.965527
Zn21  Zn    Zn3+2 0.219300 0.474020 0.775940 0.964507
Zn22  Zn    Zn3+2 0.780700 0.474020 0.224060 0.965529
Zn23  Zn    Zn3+2 0.780700 0.474020 0.775940 0.965492
Zn24  Zn    Zn3+2 0.219300 0.474020 0.224060 0.965971
Zn25  Zn    Zn3+2 0.219300 0.974020 0.275940 0.965044
Zn26  Zn    Zn3+2 0.780700 0.974020 0.724060 0.965541
Zn27  Zn    Zn3+2 0.780700 0.974020 0.275940 0.965502
Zn28  Zn    Zn3+2 0.219300 0.974020 0.724060 0.966435
Zn29  Zn    Zn3+2 0.719300 0.974020 0.775940 0.965543
Zn30  Zn    Zn3+2 0.280700 0.974020 0.224060 0.965000
Zn31  Zn    Zn3+2 0.280700 0.974020 0.775940 0.966405
Zn32  Zn    Zn3+2 0.719300 0.974020 0.224060 0.965503
H273  H     H_    0.748338 0.778210 0.200074 0.130082
H274  H     H_    0.292954 0.777958 0.784915 0.126715
H275  H     H_    0.251659 0.778215 0.200070 0.129766
H276  H     H_    0.748290 0.778211 0.799926 0.130077
H277  H     H_    0.207076 0.777941 0.715054 0.126744
H278  H     H_    0.751656 0.778214 0.299925 0.130085
H279  H     H_    0.751704 0.778213 0.700075 0.130083
H280  H     H_    0.248331 0.778210 0.299923 0.129910
H281  H     H_    0.207092 0.277937 0.215037 0.126703
H282  H     H_    0.751653 0.278214 0.799925 0.130083
H283  H     H_    0.751705 0.278213 0.200075 0.130077
H284  H     H_    0.248373 0.278212 0.799919 0.129777
H285  H     H_    0.748341 0.278210 0.700074 0.130088
H286  H     H_    0.292938 0.277955 0.284928 0.126938
H287  H     H_    0.251603 0.278212 0.700064 0.129647
H288  H     H_    0.748289 0.278211 0.299926 0.130075

loop_
_geom_bond_atom_site_label_1
_geom_bond_atom_site_label_2
_ccdc_geom_bond_type
C432  H288  S    
C375  C412  A    
C149  C291  S    
C119  C167  S    
O74   Zn2   S    
C159  O87   A    
C53   H197  S    
C313  H137  S    
C390  H166  S    
C307  C330  A    
C321  C415  S    
C53   C69   A    
C41   C422  A    
C150  O78   A    
O1    Zn17  S    
C322  C416  S    
C184  H30   S    
C316  H140  S    
C107  C171  S    
C176  C182  S    
C15   O103  A    
C179  H41   S    
C369  C385  A    
C238  C254  A    
C167  C205  S    
C6    O94   A    
C164  C186  S    
C124  C172  S    
C117  C119  S    
C322  O45   A    
C135  C199  T    
C253  C344  S    
C117  H261  S    
C321  O46   A    
C4    O12   A    
C14   O102  A    
C28   C40   A    
C393  H169  S    
C327  C409  S    
C106  H228  S    
O33   Zn25  S    
C146  O74   A    
C311  H135  S    
C106  H58   S    
O56   Zn32  S    
O23   Zn12  S    
C172  C194  S    
C50   C90   A    
C215  C295  A    
C215  C231  A    
O45   Zn21  S    
C56   C72   A    
C423  H279  S    
C429  H285  S    
C228  H84   S    
C271  H111  S    
C336  C352  A    
C347  H147  S    
C108  H226  S    
C212  C292  A    
C219  C299  A    
C425  H281  S    
C3    O91   A    
O40   Zn32  S    
C373  C389  A    
C101  C103  S    
C377  C413  A    
C45   C430  A    
C191  H37   S    
C127  H255  S    
C56   H200  S    
C234  C250  A    
C114  H258  S    
C273  C289  A    
C418  H274  S    
C279  H119  S    
C417  H273  S    
C98   C162  S    
C116  H244  S    
C363  O64   A    
C157  O37   A    
C181  C183  S    
C399  H175  S    
O93   Zn21  S    
C154  O34   A    
O92   Zn20  S    
C240  C256  A    
C385  H161  S    
C361  O57   A    
O94   Zn22  S    
O95   Zn23  S    
C43   C403  S    
O1    Zn22  S    
O42   Zn18  S    
O86   Zn14  S    
C145  C295  S    
C174  C184  S    
C278  H118  S    
C146  C296  S    
O3    Zn24  S    
C26   C38   A    
O39   Zn31  S    
C44   C420  A    
C430  H286  S    
C365  O70   A    
C190  H40   S    
C63   C96   A    
C382  C398  A    
C99   H51   S    
C312  C333  A    
C321  O41   A    
C221  C237  A    
C24   H184  S    
C276  H116  S    
O15   Zn4   S    
C317  C320  A    
C97   H49   S    
C108  H60   S    
C315  H139  S    
C55   C92   A    
C186  H36   S    
C66   C82   A    
C274  H114  S    
C328  O52   A    
C180  H42   S    
O57   Zn6   S    
C54   C70   A    
C380  H12   S    
C226  H82   S    
O100  Zn28  S    
C306  C307  A    
C305  C332  A    
C265  H105  S    
C345  C348  A    
C16   C129  S    
O90   Zn18  S    
C378  C394  A    
C66   H210  S    
C105  C169  S    
C322  O42   A    
C248  C333  S    
C269  H109  S    
C24   C424  A    
C358  H158  S    
C357  C360  A    
O29   Zn21  S    
C54   H198  S    
C239  C255  A    
C112  H230  S    
C7    O15   A    
C87   C367  S    
O81   Zn9   S    
C20   C420  A    
C251  C267  A    
C323  O48   A    
C121  C123  S    
C213  C229  A    
C120  C168  S    
O24   Zn11  S    
C236  H92   S    
C370  C386  A    
C100  H234  S    
C238  H94   S    
C163  C201  S    
C133  C197  T    
O104  Zn32  S    
C371  C411  A    
C22   C422  A    
C13   O101  A    
O7    Zn16  S    
O20   Zn15  S    
C231  C247  A    
C179  H25   S    
C397  H173  S    
O13   Zn2   S    
O66   Zn13  S    
C426  H282  S    
O8    Zn28  S    
C349  H149  S    
O28   Zn20  S    
C259  H99   S    
C63   C79   A    
C12   O100  A    
C250  C266  A    
O73   Zn1   S    
C22   H182  S    
C57   C93   A    
C355  H155  S    
O2    Zn18  S    
C188  H18   S    
C223  C239  A    
C306  C331  A    
O85   Zn13  S    
C138  C202  T    
C151  O79   A    
C15   C130  S    
C357  H157  S    
C279  C295  A    
C333  C349  A    
C13   C132  S    
C359  H159  S    
C383  C399  A    
O37   Zn29  S    
C142  C206  T    
C115  C163  S    
C350  C351  A    
C118  C120  S    
C386  H162  S    
C392  C403  A    
C7    O95   A    
C254  C343  S    
C377  H9    S    
C284  C300  A    
C211  H67   S    
O10   Zn5   S    
O84   Zn12  S    
C391  C404  A    
C62   C93   A    
C373  C410  A    
C125  C127  S    
C145  O73   A    
C389  C402  A    
C210  C290  A    
O16   Zn3   S    
C428  H284  S    
C249  C265  A    
C284  H124  S    
O22   Zn9   S    
C111  H63   S    
O7    Zn27  S    
C353  H153  S    
C248  C264  A    
C360  H160  S    
C42   C402  S    
C113  H257  S    
O30   Zn22  S    
C103  C167  S    
C19   C419  A    
C341  C357  A    
O101  Zn29  S    
C258  C274  A    
C77   H221  S    
C150  C292  S    
C9    O17   A    
C244  C260  A    
O96   Zn24  S    
C171  C193  S    
C245  C261  A    
O98   Zn26  S    
O5    Zn25  S    
C46   C429  A    
C168  C190  S    
C2    O90   A    
C247  C334  S    
C394  C406  A    
C105  C107  S    
C224  H80   S    
C55   C71   A    
C325  C411  S    
C337  C353  A    
C30   H190  S    
C326  C412  S    
C361  O62   A    
C29   H189  S    
C47   C407  S    
C400  C407  A    
C110  H232  S    
C109  C111  S    
C45   C425  A    
C373  H5    S    
C178  C180  S    
C114  H242  S    
C283  H123  S    
C104  C168  S    
C278  C294  A    
C156  O36   A    
C27   C427  A    
C14   O22   A    
C8    O16   A    
C165  C207  S    
C13   O21   A    
C6    C139  S    
C16   O24   A    
O27   Zn19  S    
C211  C291  A    
C69   C82   A    
C232  H88   S    
C4    O92   A    
C369  H1    S    
C421  H277  S    
O80   Zn8   S    
C191  H21   S    
C61   C77   A    
C122  H250  S    
C324  O47   A    
C431  H287  S    
C29   C38   A    
C249  C340  S    
C308  H132  S    
C109  H61   S    
C314  H138  S    
O3    Zn8   S    
C385  C401  A    
C126  H254  S    
C175  C181  S    
C11   O19   A    
C240  H96   S    
C11   O99   A    
C389  H165  S    
C318  H142  S    
C275  H115  S    
C368  O68   A    
C387  H163  S    
C338  C354  A    
O89   Zn17  S    
O17   Zn14  S    
C236  C252  A    
C44   C404  S    
C10   O18   A    
C45   C405  S    
C110  C174  S    
C59   H203  S    
C167  C189  S    
C143  C207  T    
C367  O72   A    
C58   H202  S    
C219  C235  A    
C328  C410  S    
O44   Zn20  S    
C190  H24   S    
O52   Zn28  S    
C223  H79   S    
C41   C401  S    
C10   C135  S    
C15   O23   A    
C308  C329  A    
C97   C99   S    
C11   C134  S    
C117  C165  S    
C19   H179  S    
C177  H27   S    
C103  H237  S    
C31   C431  A    
C320  H144  S    
C114  C162  S    
C216  C296  A    
C84   C364  S    
O41   Zn17  S    
C74   C86   A    
C285  C301  A    
C232  C248  A    
C212  C228  A    
O65   Zn14  S    
C230  H86   S    
C283  C299  A    
C215  H71   S    
C317  C344  A    
C33   C89   S    
C258  H98   S    
C50   C66   A    
O67   Zn16  S    
C124  H252  S    
C27   H187  S    
C158  C300  S    
C155  C301  S    
C160  O40   A    
C244  C329  S    
C378  C414  A    
C76   H220  S    
C37   C93   S    
C32   C432  A    
O60   Zn7   S    
C51   C67   A    
C43   C424  A    
C157  C299  S    
C184  H46   S    
C224  C240  A    
O72   Zn11  S    
C39   C95   S    
C332  C348  A    
C99   C163  S    
C328  O55   A    
C75   C87   A    
C112  C176  S    
C19   C35   A    
C23   C36   A    
C349  C352  A    
C97   C161  S    
C372  H4    S    
O68   Zn15  S    
C343  C359  A    
C104  H56   S    
C113  C161  S    
C272  H112  S    
O8    Zn12  S    
C122  C124  S    
C251  C338  S    
C119  H247  S    
C320  C341  A    
C69   H213  S    
C218  C298  A    
C78   C85   A    
C351  H151  S    
C310  C335  A    
C172  C178  S    
O9    Zn6   S    
C286  C302  A    
C126  C128  S    
C32   H192  S    
C86   C366  S    
O11   Zn8   S    
C48   C428  A    
C188  H34   S    
C62   C78   A    
C176  C198  S    
O21   Zn10  S    
C126  C174  S    
C230  C246  A    
C114  C116  S    
C376  H8    S    
O87   Zn15  S    
C235  C251  A    
C18   H178  S    
C180  H26   S    
O31   Zn23  S    
C256  C341  S    
C345  H145  S    
C330  C346  A    
C108  C172  S    
C149  O77   A    
C1    O89   A    
O76   Zn4   S    
C1    C144  S    
O8    Zn31  S    
C170  C196  S    
C379  H11   S    
C57   H201  S    
C419  H275  S    
C266  H106  S    
C106  C108  S    
C28   H188  S    
C380  C416  A    
C221  C301  A    
C280  C296  A    
C214  C294  A    
C222  H78   S    
C115  H243  S    
C63   H207  S    
C372  C412  A    
C400  H176  S    
C157  O85   A    
C146  O26   A    
O83   Zn11  S    
C261  C277  A    
C382  H14   S    
C381  C397  A    
C354  C355  A    
O103  Zn31  S    
C171  C177  S    
C153  O81   A    
C159  C297  S    
C113  C115  S    
O63   Zn4   S    
C30   C430  A    
C396  H172  S    
C220  H76   S    
C123  H251  S    
C348  H148  S    
C121  H249  S    
C25   C425  A    
O35   Zn27  S    
C173  C199  S    
C242  C258  A    
C109  C173  S    
C49   H193  S    
C160  O88   A    
O79   Zn7   S    
C245  C336  S    
C125  H253  S    
C158  O38   A    
C185  C187  S    
O102  Zn30  S    
C75   H219  S    
C233  C249  A    
C129  C193  T    
C10   O98   A    
C317  H141  S    
C356  H156  S    
C155  O35   A    
C166  C208  S    
C222  C302  A    
C319  H143  S    
C218  H74   S    
C398  C405  A    
C237  C253  A    
C46   C406  S    
C270  C286  A    
O71   Zn12  S    
C71   C84   A    
O6    Zn29  S    
C305  H129  S    
C181  H31   S    
C152  C290  S    
C71   H215  S    
O5    Zn30  S    
C107  H225  S    
C263  H103  S    
C122  H266  S    
C225  C241  A    
C105  H227  S    
C379  C395  A    
C370  C410  A    
C31   C40   A    
C282  H122  S    
C374  C409  A    
C134  C198  T    
C32   C39   A    
C377  C393  A    
O6    Zn10  S    
C126  H270  S    
C107  H59   S    
C175  C197  S    
C312  H136  S    
C51   C91   A    
C380  C396  A    
C52   H196  S    
C105  H57   S    
C286  H126  S    
C56   C91   A    
C79   H223  S    
C221  H77   S    
C29   C429  A    
C370  H2    S    
O19   Zn16  S    
C178  H28   S    
C58   C74   A    
C259  C275  A    
C229  H85   S    
C127  H271  S    
C216  H72   S    
C324  O44   A    
C151  C289  S    
C396  C408  A    
C120  H248  S    
C257  H97   S    
C246  C262  A    
O6    Zn26  S    
C8    O96   A    
C21   H181  S    
C36   C92   S    
C82   C362  S    
C125  C173  S    
C212  H68   S    
C326  O50   A    
C127  C175  S    
C64   C80   A    
C325  O49   A    
C209  C225  A    
C40   C96   S    
C324  C414  S    
C21   C421  A    
C369  C409  A    
C79   C88   A    
C264  H104  S    
C83   C363  S    
C274  C290  A    
C182  H32   S    
C14   C131  S    
C374  H6    S    
C115  H259  S    
C211  C227  A    
C128  C176  S    
C368  O71   A    
O97   Zn25  S    
C340  C356  A    
O4    Zn20  S    
C12   O20   A    
O64   Zn3   S    
C214  H70   S    
C281  C297  A    
C4    C141  S    
C124  H268  S    
O54   Zn30  S    
C273  H113  S    
C381  C414  A    
C255  C271  A    
C21   C34   A    
O4    Zn23  S    
O3    Zn3   S    
C5    O93   A    
C183  H45   S    
C118  H246  S    
C376  C411  A    
C391  H167  S    
C58   C94   A    
C30   C37   A    
C8    C137  S    
C98   H50   S    
C68   C84   A    
C371  H3    S    
C310  H134  S    
O47   Zn23  S    
C181  H47   S    
C74   H218  S    
C153  C303  S    
C388  C404  A    
C65   H209  S    
C117  H245  S    
C372  C388  A    
C154  C304  S    
C60   H204  S    
C237  H93   S    
C161  C203  S    
C100  C164  S    
C243  C259  A    
C101  C165  S    
C384  C400  A    
C26   C426  A    
C49   C65   A    
C268  H108  S    
C152  O32   A    
O55   Zn31  S    
C60   C96   A    
C147  O75   A    
C16   O104  A    
C366  O66   A    
C60   C76   A    
C111  C175  S    
C234  H90   S    
C18   C418  A    
C217  C233  A    
C214  C230  A    
C243  C330  S    
O43   Zn19  S    
C353  C356  A    
O53   Zn29  S    
O82   Zn10  S    
C255  C342  S    
C102  H54   S    
C153  O33   A    
C311  C334  A    
C223  C303  A    
C310  C311  A    
C190  C192  S    
O50   Zn26  S    
O5    Zn9   S    
C61   C94   A    
C209  C289  A    
C28   C428  A    
C224  C304  A    
O8    Zn15  S    
C104  H238  S    
C257  C273  A    
C130  C194  T    
C252  C268  A    
C7    C138  S    
C101  H53   S    
C309  H133  S    
O2    Zn5   S    
C271  C287  A    
C192  H22   S    
O88   Zn16  S    
C427  H283  S    
C174  C200  S    
C47   C432  A    
C388  H164  S    
C42   C421  A    
C209  H65   S    
C48   C431  A    
C189  H23   S    
C140  C204  T    
C246  C335  S    
C314  C315  A    
C161  C187  S    
O62   Zn1   S    
C275  C291  A    
C187  H17   S    
C162  C188  S    
C169  C195  S    
C362  O61   A    
C148  O76   A    
C17   C417  A    
C354  H154  S    
C327  O56   A    
C152  O80   A    
C263  C279  A    
C17   C33   A    
C165  C191  S    
C151  O31   A    
C166  C192  S    
O70   Zn9   S    
C123  H267  S    
C375  C391  A    
C6    O14   A    
C72   C83   A    
C147  O27   A    
C210  C226  A    
C121  H265  S    
C20   C36   A    
C287  H127  S    
C136  C200  T    
C173  C183  S    
C106  C170  S    
C149  O29   A    
C281  H121  S    
C53   C90   A    
C352  H152  S    
C31   H191  S    
C250  C339  S    
C185  H19   S    
C125  H269  S    
C217  C297  A    
C122  C170  S    
C280  H120  S    
C17   H177  S    
C123  C171  S    
C35   C91   S    
C285  H125  S    
C189  C191  S    
C144  C208  T    
C121  C169  S    
C424  H280  S    
C156  C302  S    
C3    O11   A    
C150  O30   A    
O6    Zn13  S    
C270  H110  S    
C2    O10   A    
C315  C338  A    
C267  H107  S    
C371  C387  A    
C1    O9    A    
C26   H186  S    
C25   H185  S    
O7    Zn32  S    
O78   Zn6   S    
C55   H199  S    
C213  H69   S    
C256  C272  A    
C48   C408  S    
C392  H168  S    
O46   Zn22  S    
C268  C284  A    
C23   C423  A    
C288  H128  S    
C68   H212  S    
C269  C285  A    
C109  H231  S    
C220  C300  A    
C80   C87   A    
C41   C417  A    
C43   C419  A    
C78   H222  S    
C364  O63   A    
C227  C243  A    
C183  H29   S    
O48   Zn24  S    
O7    Zn11  S    
C262  C278  A    
C395  H171  S    
C61   H205  S    
C394  H170  S    
C226  C242  A    
C154  O82   A    
C241  C332  S    
C192  H38   S    
C219  H75   S    
C70   C81   A    
C160  C298  S    
C231  H87   S    
C331  C347  A    
C217  H73   S    
C378  H10   S    
C25   C37   A    
C65   C81   A    
C148  C294  S    
O2    Zn2   S    
C23   H183  S    
C128  H272  S    
C27   C39   A    
C350  H150  S    
C228  C244  A    
C131  C195  T    
C42   C418  A    
O34   Zn26  S    
O75   Zn3   S    
C267  C283  A    
C422  H278  S    
C76   C88   A    
C88   C368  S    
C182  H48   S    
C374  C390  A    
C363  O59   A    
C139  C203  T    
C383  H15   S    
C213  C293  A    
C261  H101  S    
C158  O86   A    
C225  H81   S    
C287  C303  A    
C2    C143  S    
C288  C304  A    
C80   H224  S    
C3    C142  S    
C59   C95   A    
C116  C164  S    
C111  H229  S    
C306  H130  S    
O4    Zn7   S    
O3    Zn19  S    
C397  C406  A    
C141  C205  T    
C118  H262  S    
C365  O65   A    
C98   H236  S    
C128  H256  S    
C24   C35   A    
C326  O53   A    
C233  H89   S    
C260  H100  S    
C325  O54   A    
C383  C416  A    
C309  C336  A    
C277  H117  S    
C218  C234  A    
C54   C89   A    
C155  O83   A    
C102  H240  S    
C62   H206  S    
C313  C316  A    
C119  H263  S    
C147  C293  S    
C5    O13   A    
C177  C179  S    
C241  C257  A    
C113  H241  S    
C254  C270  A    
C51   H195  S    
C170  C180  S    
C50   H194  S    
C159  O39   A    
C118  C166  S    
C34   C90   S    
C335  C351  A    
C318  C319  A    
O1    Zn6   S    
C393  C405  A    
C120  H264  S    
C316  C337  A    
C162  C204  S    
C47   C427  A    
C20   H180  S    
O99   Zn27  S    
C110  C112  S    
C305  C308  A    
O51   Zn27  S    
C38   C94   S    
C110  H62   S    
O59   Zn8   S    
C265  C281  A    
C313  C340  A    
C145  O25   A    
C323  C413  S    
C375  H7    S    
C67   H211  S    
C334  C350  A    
C102  C104  S    
O61   Zn2   S    
C18   C34   A    
O18   Zn13  S    
C323  O43   A    
C164  C202  S    
C364  O60   A    
O38   Zn30  S    
C186  H20   S    
C399  C408  A    
C382  C413  A    
C77   C86   A    
C85   C365  S    
C12   C133  S    
C116  H260  S    
C319  C342  A    
C168  C206  S    
O69   Zn10  S    
C72   H216  S    
C64   H208  S    
C252  C337  S    
C342  C358  A    
O2    Zn21  S    
C59   C75   A    
C253  C269  A    
C260  C276  A    
C67   C83   A    
C282  C298  A    
C5    C140  S    
C70   H214  S    
C362  O58   A    
C73   C85   A    
C309  C312  A    
C178  H44   S    
C100  H52   S    
C22   C33   A    
C366  O69   A    
C189  H39   S    
C182  C184  S    
O49   Zn25  S    
C57   C73   A    
C220  C236  A    
O12   Zn7   S    
C148  O28   A    
C187  H33   S    
C64   C95   A    
C49   C89   A    
C112  H64   S    
C52   C68   A    
C381  H13   S    
C185  H35   S    
C103  H55   S    
C239  H95   S    
C387  C403  A    
C272  C288  A    
O58   Zn5   S    
O26   Zn18  S    
C318  C343  A    
C329  C345  A    
C98   C100  S    
C247  C263  A    
C227  H83   S    
O5    Zn14  S    
C163  C185  S    
O32   Zn24  S    
C307  H131  S    
C229  C245  A    
O91   Zn19  S    
C314  C339  A    
C379  C415  A    
O77   Zn5   S    
O4    Zn4   S    
C266  C282  A    
C346  C347  A    
C222  C238  A    
C73   H217  S    
C177  H43   S    
C398  H174  S    
C99   H233  S    
C395  C407  A    
C264  C280  A    
C169  C179  S    
C346  H146  S    
C97   H235  S    
C235  H91   S    
C358  C359  A    
C81   C361  S    
C156  O84   A    
C52   C92   A    
C344  C360  A    
C327  O51   A    
C137  C201  T    
C276  C292  A    
C9    C136  S    
C9    O97   A    
C210  H66   S    
C277  C293  A    
C101  H239  S    
C102  C166  S    
O25   Zn17  S    
C384  H16   S    
C132  C196  T    
C242  C331  S    
C216  C232  A    
C339  C355  A    
C386  C402  A    
C420  H276  S    
C367  O67   A    
O36   Zn28  S    
C186  C188  S    
C376  C392  A    
C390  C401  A    
O14   Zn1   S    
C46   C426  A    
C384  C415  A    
O1    Zn1   S    
C44   C423  A    
C262  H102  S    
