data_mof_unit_34191.cif
_audit_creation_date              2012-12-10T17:55:04-0500
_audit_creation_method            fapswitch 2.2
_symmetry_space_group_name_H-M    P1
_symmetry_Int_Tables_number       1
_space_group_crystal_system       triclinic
_cell_length_a                    8.809797
_cell_length_b                    10.873333
_cell_length_c                    9.580578
_cell_angle_alpha                 90.60574
_cell_angle_beta                  96.884321
_cell_angle_gamma                 91.387034
_cell_volume                      910.773703469

loop_
_atom_site_label
_atom_site_type_symbol
_atom_type_description
_atom_site_fract_x
_atom_site_fract_y
_atom_site_fract_z
_atom_type_partial_charge
C1    C     C_R   0.503217 0.262368 0.499033 0.822458
C2    C     C_R   0.496783 0.737632 0.500967 0.822458
C3    C     C_R   0.204706 0.499228 0.465171 0.848146
C4    C     C_R   0.795294 0.500772 0.534829 0.848145
C5    C     C_2   0.041170 0.484816 0.447307 -0.072070
C6    C     C_2   0.958830 0.515184 0.552693 -0.072070
C7    C     C_R   0.549617 0.060007 0.383475 0.194707
C8    C     C_R   0.450383 0.939993 0.616525 0.194707
C9    C     C_R   0.544765 0.932830 0.388172 -0.214661
C10   C     C_R   0.455235 0.067170 0.611828 -0.214662
C11   C     C_R   0.496077 0.871545 0.503188 -0.120806
C12   C     C_R   0.503923 0.128455 0.496812 -0.120806
C13   C     C_R   0.414017 0.414961 0.066642 0.507612
C14   C     C_R   0.585983 0.585039 0.933357 0.507612
C15   C     C_R   0.414602 0.413766 0.917693 0.322087
C16   C     C_R   0.585398 0.586234 0.082307 0.322087
Cu1   Cu    Cu3+1 0.500000 0.500020 0.640660 1.049684
Cu2   Cu    Cu3+1 0.500000 0.499980 0.359340 1.049684
H1    H     H_    0.581862 0.881637 0.301381 0.220663
H2    H     H_    0.418137 0.118363 0.698619 0.220663
N1    N     N_R   0.500040 0.500030 0.852080 -0.264929
N2    N     N_R   0.499960 0.499970 0.147920 -0.264928
O1    O     O_R   0.499990 0.319660 0.618740 -0.594637
O2    O     O_R   0.500010 0.680340 0.381260 -0.594636
O3    O     O_R   0.499990 0.319630 0.381170 -0.509536
O4    O     O_R   0.500010 0.680370 0.618830 -0.509536
O5    O     O_R   0.274840 0.500010 0.591370 -0.605795
O6    O     O_R   0.725160 0.499990 0.408630 -0.605795
O7    O     O_R   0.274830 0.499980 0.353800 -0.518515
O8    O     O_R   0.725170 0.500020 0.646200 -0.518514
I1    I     I_    0.954513 0.396172 0.250589 -0.225164
I2    I     I_    0.045486 0.603828 0.749411 -0.225164
I3    I     I_    0.634873 0.133045 0.201961 -0.214420
I4    I     I_    0.365127 0.866955 0.798039 -0.214420
O9    O     O_3   0.325356 0.332812 0.132876 -0.645737
H3    H     H_    0.263657 0.278655 0.063146 0.372329
O10   O     O_3   0.674644 0.667188 0.867124 -0.645737
H4    H     H_    0.736343 0.721345 0.936854 0.372329
O11   O     O_3   0.331095 0.320759 0.843597 -0.734218
H5    H     H_    0.296763 0.349430 0.749093 0.382801
O12   O     O_3   0.668905 0.679241 0.156403 -0.734218
H6    H     H_    0.703237 0.650570 0.250906 0.382801

loop_
_geom_bond_atom_site_label_1
_geom_bond_atom_site_label_2
_ccdc_geom_bond_type
C6    I2    S    
C13   O9    S    
O10   H4    S    
C7    I3    S    
O12   H6    S    
O9    H3    S    
C3    O5    A    
Cu1   Cu2   S    
C4    O8    A    
C2    O4    A    
Cu2   O7    S    
C8    I4    S    
C14   O10   S    
C1    O3    A    
Cu1   O8    S    
C9    C11   A    
C15   O11   S    
Cu1   O1    S    
Cu2   O3    S    
C10   C12   A    
C8    C11   A    
Cu2   O2    S    
Cu1   O4    S    
C14   N1    A    
C8    C10   A    
C4    O6    A    
C13   N2    A    
C1    O1    A    
C13   C15   A    
C2    O2    A    
C5    C6    D    
C14   C16   A    
C7    C12   A    
C2    C11   S    
Cu1   O5    S    
C15   N1    A    
C3    O7    A    
Cu2   O6    S    
C4    C6    S    
O11   H5    S    
C7    C9    A    
C16   N2    A    
C3    C5    S    
Cu2   N2    S    
C16   O12   S    
C9    H1    S    
C1    C12   S    
C10   H2    S    
C5    I1    S    
Cu1   N1    S    
