data_mof_unit_57755.cif
_audit_creation_date              2012-12-10T18:47:02-0500
_audit_creation_method            fapswitch 2.2
_symmetry_space_group_name_H-M    P1
_symmetry_Int_Tables_number       1
_space_group_crystal_system       triclinic
_cell_length_a                    10.831143
_cell_length_b                    9.971093
_cell_length_c                    14.892421
_cell_angle_alpha                 91.567212
_cell_angle_beta                  89.276966
_cell_angle_gamma                 90.319307
_cell_volume                      1607.60501916

loop_
_atom_site_label
_atom_site_type_symbol
_atom_type_description
_atom_site_fract_x
_atom_site_fract_y
_atom_site_fract_z
_atom_type_partial_charge
C1    C     C_R   0.260462 0.500141 0.495730 0.940781
C2    C     C_R   0.739966 0.500005 0.495097 0.943642
C3    C     C_R   0.283609 0.428812 0.053404 -0.218994
C4    C     C_R   0.710494 0.566848 0.946577 -0.217441
C5    C     C_R   0.064969 0.380645 0.469322 0.337385
C6    C     C_R   0.937111 0.621876 0.473153 0.314211
C7    C     C_R   0.938025 0.377780 0.479716 0.326250
C8    C     C_R   0.064200 0.624301 0.485786 0.293792
C9    C     C_R   0.873009 0.499918 0.483646 -0.386238
C10   C     C_R   0.128386 0.501748 0.484790 -0.402722
C11   C     C_R   0.540649 0.077543 0.573538 0.312310
C12   C     C_R   0.454414 0.923187 0.428303 0.341540
C13   C     C_R   0.466016 0.066788 0.425402 0.340718
C14   C     C_R   0.531849 0.932638 0.575449 0.310874
C15   C     C_R   0.501856 0.498433 0.327496 0.850724
C16   C     C_R   0.494753 0.501415 0.672453 0.859875
C17   C     C_R   0.594662 0.541543 0.811861 -0.331704
C18   C     C_R   0.396863 0.466172 0.188890 -0.338798
C19   C     C_R   0.487591 0.503708 0.767871 -0.066187
C20   C     C_R   0.506829 0.495349 0.232129 -0.100154
C21   C     C_R   0.379711 0.462797 0.813996 0.094772
C22   C     C_R   0.617657 0.522035 0.185185 0.092456
C23   C     C_R   0.382762 0.462227 0.908687 0.098898
C24   C     C_R   0.613379 0.525703 0.090764 0.099042
C25   C     C_R   0.494266 0.497720 0.953033 0.028463
C26   C     C_R   0.500436 0.495353 0.046813 0.027510
C27   C     C_R   0.599932 0.535954 0.903792 0.118959
C28   C     C_R   0.393317 0.463137 0.096469 0.124701
C29   C     C_R   0.278554 0.426561 0.960515 -0.226341
C30   C     C_R   0.717855 0.560398 0.038918 -0.229337
H1    H     H_    0.675660 0.571838 0.773479 0.154629
H2    H     H_    0.314038 0.444726 0.227865 0.137734
H3    H     H_    0.191669 0.397584 0.930899 0.158194
H4    H     H_    0.806287 0.584125 0.068079 0.159019
H5    H     H_    0.201506 0.402802 0.091713 0.142199
H6    H     H_    0.792045 0.595046 0.908382 0.144804
N1    N     N_R   0.500000 0.857200 0.500000 -0.188360
N2    N     N_R   0.500000 0.142800 0.500000 -0.184927
O1    O     O_R   0.316770 0.614620 0.499990 -0.547816
O2    O     O_R   0.683230 0.385380 0.500010 -0.563150
O3    O     O_R   0.683230 0.614620 0.500010 -0.561037
O4    O     O_R   0.316770 0.385380 0.499990 -0.593839
O5    O     O_R   0.499980 0.614680 0.367850 -0.635557
O6    O     O_R   0.500020 0.385320 0.632150 -0.598790
O7    O     O_R   0.500020 0.614680 0.632150 -0.575542
O8    O     O_R   0.499980 0.385320 0.367850 -0.585378
Zn1   Zn    Zn3+2 0.500000 0.653120 0.500000 1.019836
Zn2   Zn    Zn3+2 0.500000 0.346880 0.500000 1.007911
C31   C     C_3   0.262990 0.424674 0.762457 -0.417173
C32   C     C_3   0.171484 0.540597 0.763738 -0.921049
H7    H     H_    0.133094 0.560230 0.832163 0.262792
H8    H     H_    0.218514 0.632880 0.741152 0.249648
H9    H     H_    0.094038 0.516385 0.717754 0.238478
H10   H     H_    0.283108 0.397321 0.691259 0.213752
H11   H     H_    0.219443 0.333068 0.789632 0.192489
C33   C     C_3   0.737767 0.546915 0.235463 -0.422749
C34   C     C_3   0.823301 0.425631 0.228965 -0.888279
H12   H     H_    0.781817 0.340916 0.265437 0.264302
H13   H     H_    0.840957 0.393300 0.158138 0.260760
H14   H     H_    0.912963 0.451360 0.260562 0.239934
H15   H     H_    0.784961 0.636792 0.209345 0.199842
H16   H     H_    0.721884 0.570539 0.307666 0.220902
O9    O     O_3   0.125717 0.263431 0.444582 -0.582423
C35   C     C_3   0.144625 0.259236 0.350172 0.185092
H17   H     H_    0.241688 0.230227 0.336427 0.209426
H18   H     H_    0.131201 0.356963 0.316629 0.074855
C36   C     C_3   0.060494 0.153926 0.306867 -0.868438
H19   H     H_    0.962436 0.183766 0.315052 0.278577
H20   H     H_    0.082351 0.143482 0.233983 0.204296
H21   H     H_    0.074383 0.055973 0.338606 0.269498
O10   O     O_3   0.875837 0.737854 0.450594 -0.576752
C37   C     C_3   0.916420 0.777555 0.364308 0.161120
H22   H     H_    0.933508 0.690434 0.317494 0.119845
H23   H     H_    0.003057 0.836797 0.369192 0.193549
C38   C     C_3   0.819948 0.866121 0.323338 -0.949078
H24   H     H_    0.818115 0.964935 0.359077 0.258761
H25   H     H_    0.843293 0.882727 0.251663 0.217824
H26   H     H_    0.727427 0.818124 0.328034 0.264346
O11   O     O_3   0.877951 0.255300 0.474823 -0.581129
C39   C     C_3   0.894074 0.189245 0.556476 0.138300
H27   H     H_    0.836641 0.238176 0.609970 0.185570
H28   H     H_    0.991595 0.190239 0.579374 0.134446
C40   C     C_3   0.854960 0.043828 0.543562 -0.687843
H29   H     H_    0.922611 0.991469 0.499283 0.256592
H30   H     H_    0.849288 0.994245 0.609339 0.206707
H31   H     H_    0.764708 0.036883 0.509914 0.255607
O12   O     O_3   0.126339 0.746050 0.486241 -0.550703
C41   C     C_3   0.109415 0.811600 0.570551 0.137737
H32   H     H_    0.155197 0.754745 0.623533 0.115286
H33   H     H_    0.010114 0.822412 0.588893 0.148830
C42   C     C_3   0.167611 0.950598 0.567411 -0.807560
H34   H     H_    0.131041 0.006872 0.510492 0.292554
H35   H     H_    0.148827 0.007129 0.631339 0.180287
H36   H     H_    0.268331 0.941766 0.557168 0.234320
O13   O     O_3   0.620293 0.150558 0.629266 -0.574407
C43   C     C_3   0.601575 0.134020 0.722085 0.159078
H37   H     H_    0.627818 0.032955 0.742973 0.204456
H38   H     H_    0.504945 0.159280 0.741975 0.141843
C44   C     C_3   0.689659 0.227174 0.772954 -0.893436
H39   H     H_    0.697031 0.324794 0.739701 0.273969
H40   H     H_    0.656980 0.242718 0.843442 0.229951
H41   H     H_    0.783548 0.182841 0.773414 0.223202
O14   O     O_3   0.365969 0.856077 0.376616 -0.543110
C45   C     C_3   0.394510 0.848748 0.283688 0.244794
H42   H     H_    0.385549 0.742720 0.260867 0.161505
H43   H     H_    0.490141 0.878037 0.265990 0.100396
C46   C     C_3   0.298889 0.923652 0.230314 -0.868943
H44   H     H_    0.300563 0.032341 0.246628 0.292457
H45   H     H_    0.318300 0.909029 0.157319 0.203756
H46   H     H_    0.205100 0.883787 0.245241 0.245492
O15   O     O_3   0.458606 0.127097 0.343585 -0.597067
C47   C     C_3   0.578167 0.124828 0.303244 0.137727
H47   H     H_    0.626416 0.028640 0.311891 0.089148
H48   H     H_    0.637746 0.203811 0.334035 0.190599
C48   C     C_3   0.569370 0.145186 0.202518 -0.850252
H49   H     H_    0.507463 0.229353 0.188768 0.285404
H50   H     H_    0.662377 0.166352 0.173929 0.216271
H51   H     H_    0.532053 0.053881 0.168207 0.236124
O16   O     O_3   0.541430 0.869075 0.656032 -0.581637
C49   C     C_3   0.424980 0.877000 0.701253 0.108291
H52   H     H_    0.362185 0.798258 0.673859 0.180441
H53   H     H_    0.378173 0.975406 0.694115 0.082546
C50   C     C_3   0.440217 0.856641 0.801665 -0.870877
H54   H     H_    0.459377 0.953838 0.836991 0.214204
H55   H     H_    0.354212 0.813681 0.830686 0.223565
H56   H     H_    0.518011 0.788744 0.813986 0.292446

loop_
_geom_bond_atom_site_label_1
_geom_bond_atom_site_label_2
_ccdc_geom_bond_type
O6    Zn2   S    
O12   C41   S    
C4    H6    S    
O13   C43   S    
C6    C9    A    
C47   H48   S    
C50   H54   S    
C40   H29   S    
C23   C29   A    
C22   C24   A    
O1    Zn1   S    
C3    C28   A    
C19   C21   A    
C24   C26   A    
C39   C40   S    
C11   C14   A    
C50   H55   S    
C2    O3    A    
C31   H10   S    
C43   C44   S    
C29   H3    S    
C33   C34   S    
C5    O9    S    
O2    Zn2   S    
C12   N1    A    
C3    C29   A    
C45   H42   S    
O15   C47   S    
C48   H50   S    
C43   H38   S    
C32   H8    S    
C46   H44   S    
N1    Zn1   S    
C16   O6    A    
N2    Zn2   S    
C49   C50   S    
C45   C46   S    
C46   H45   S    
C15   C20   S    
C37   C38   S    
C21   C31   S    
C47   H47   S    
C49   H53   S    
O7    Zn1   S    
C6    O10   S    
O8    Zn2   S    
C32   H9    S    
C30   H4    S    
C36   H19   S    
C17   C27   A    
C35   C36   S    
C18   C28   A    
C12   O14   S    
C37   H23   S    
C42   H34   S    
C5    C7    A    
C37   H22   S    
C50   H56   S    
C22   C33   S    
C25   C26   A    
C31   H11   S    
O9    C35   S    
C36   H20   S    
C35   H18   S    
C11   N2    A    
C38   H24   S    
C42   H35   S    
C44   H39   S    
C41   C42   S    
C3    H5    S    
C48   H51   S    
C43   H37   S    
C44   H41   S    
C32   H7    S    
O3    Zn1   S    
O4    Zn2   S    
C12   C13   A    
C38   H25   S    
C13   N2    A    
C39   H28   S    
C44   H40   S    
C41   H33   S    
C31   C32   S    
C21   C23   A    
C17   H1    S    
C46   H46   S    
C33   H16   S    
C18   H2    S    
C4    C27   A    
C49   H52   S    
C7    O11   S    
C11   O13   S    
C7    C9    A    
C40   H30   S    
C1    C10   S    
C20   C22   A    
C39   H27   S    
C34   H14   S    
C16   O7    A    
C6    C8    A    
O16   C49   S    
C45   H43   S    
C25   C27   A    
C26   C28   A    
C8    O12   S    
C35   H17   S    
C36   H21   S    
C15   O5    A    
C5    C10   A    
C13   O15   S    
C42   H36   S    
C34   H12   S    
C16   C19   S    
C17   C19   A    
C18   C20   A    
C23   C25   A    
C38   H26   S    
C24   C30   A    
C34   H13   S    
C1    O1    A    
O11   C39   S    
C2    O2    A    
C1    O4    A    
O10   C37   S    
C40   H31   S    
C41   H32   S    
C8    C10   A    
C14   O16   S    
O14   C45   S    
C33   H15   S    
C15   O8    A    
C2    C9    S    
O5    Zn1   S    
C47   C48   S    
C4    C30   A    
C48   H49   S    
C14   N1    A    
