data_mof_unit_5425.cif
_audit_creation_date              2012-10-26T20:33:17-0400
_audit_creation_method            fapswitch 2.2
_symmetry_space_group_name_H-M    P1
_symmetry_Int_Tables_number       1
_space_group_crystal_system       triclinic
_cell_length_a                    17.738847
_cell_length_b                    10.802946
_cell_length_c                    9.530465
_cell_angle_alpha                 89.791315
_cell_angle_beta                  89.761064
_cell_angle_gamma                 90.204435
_cell_volume                      1826.3005027

loop_
_atom_site_label
_atom_site_type_symbol
_atom_type_description
_atom_site_fract_x
_atom_site_fract_y
_atom_site_fract_z
_atom_type_partial_charge
C1    C     C_R   0.503721 0.262488 0.500267 0.534800
C2    C     C_R   0.115022 0.504835 0.505206 0.040536
C3    C     C_R   0.489515 0.063622 0.620843 -0.006565
C4    C     C_R   0.355558 0.500321 0.500404 0.554475
C5    C     C_R   0.513772 0.129520 0.502809 -0.014997
C6    C     C_R   0.548638 0.063466 0.391347 0.218463
C7    C     C_R   0.544101 0.934094 0.390775 -0.083698
C8    C     C_R   0.508559 0.870564 0.501599 -0.040775
C9    C     C_R   0.486430 0.936550 0.620009 -0.051713
C10   C     C_3   0.415598 0.931647 0.706510 -0.107750
C11   C     C_3   0.418532 0.073172 0.706411 0.114545
C12   C     C_R   0.886231 0.505200 0.507711 -0.008760
C13   C     C_R   0.556299 0.558208 0.073020 0.176542
C14   C     C_R   0.448581 0.432827 0.075140 0.007723
C15   C     C_R   0.448471 0.433063 0.926151 0.008777
C16   C     C_R   0.501306 0.737612 0.499938 0.554615
C17   C     C_R   0.556576 0.557686 0.925441 0.207346
C18   C     C_3   0.576845 0.691833 0.918927 0.078003
C19   C     C_3   0.576007 0.692366 0.078155 -0.188671
C20   C     C_R   0.644645 0.500569 0.499535 0.555751
C21   C     C_R   0.844759 0.503161 0.633420 -0.006303
C22   C     C_R   0.766165 0.501611 0.628553 -0.170783
C23   C     C_1   0.966986 0.505662 0.507986 -0.000312
C24   C     C_R   0.727999 0.502140 0.499360 0.029872
C25   C     C_R   0.770058 0.504650 0.372773 0.239316
C26   C     C_R   0.849160 0.506054 0.378815 -0.109733
C27   C     C_1   0.881609 0.502486 0.768358 0.225530
C28   C     C_1   0.350433 0.881517 0.629705 0.186996
C29   C     C_1   0.034558 0.505546 0.507011 -0.004904
C30   C     C_R   0.154660 0.505628 0.631517 -0.098580
C31   C     C_R   0.233192 0.504059 0.629988 -0.112426
C32   C     C_R   0.272694 0.501668 0.501766 0.024845
C33   C     C_R   0.232245 0.501061 0.375256 -0.117781
C34   C     C_R   0.153669 0.502608 0.377150 -0.103471
Cu1   Cu    Cu3+1 0.500000 0.499980 0.640670 0.964573
Cu2   Cu    Cu3+1 0.500000 0.500020 0.359330 0.985599
H1    H     H_    0.568370 0.883821 0.303786 0.147952
H2    H     H_    0.882020 0.507677 0.282608 0.123442
H3    H     H_    0.124883 0.507308 0.731011 0.127798
H4    H     H_    0.262849 0.504745 0.729087 0.127119
H5    H     H_    0.261190 0.499295 0.275004 0.125621
H6    H     H_    0.123086 0.501917 0.278961 0.121492
H7    H     H_    0.476419 0.084738 0.881645 0.347220
H8    H     H_    0.643840 0.716700 0.761616 0.342297
H9    H     H_    0.771270 0.508016 0.168094 0.335466
H10   H     H_    0.607313 0.199556 0.315275 0.350225
H11   H     H_    0.423964 0.887840 0.810955 0.124895
H12   H     H_    0.371974 0.120392 0.649667 0.153528
H13   H     H_    0.406134 0.380301 0.131597 0.133082
H14   H     H_    0.405818 0.381061 0.870735 0.161754
H15   H     H_    0.533200 0.752322 0.871129 0.126134
H16   H     H_    0.632107 0.708711 0.126460 0.194148
H17   H     H_    0.734791 0.499872 0.726434 0.170559
H18   H     H_    0.529414 0.749305 0.121347 0.102235
N1    N     N_R   0.500470 0.500930 0.147930 -0.248438
N2    N     N_R   0.500480 0.500890 0.852020 -0.264462
N3    N     N_1   0.911094 0.501958 0.876454 -0.298400
N4    N     N_1   0.299320 0.841883 0.569379 -0.285376
O1    O     O_R   0.500000 0.319640 0.618810 -0.471478
O2    O     O_3   0.649626 0.710040 0.864853 -0.688325
O3    O     O_3   0.733461 0.505724 0.245024 -0.676986
O4    O     O_3   0.586023 0.120328 0.281398 -0.670433
O5    O     O_R   0.500010 0.319680 0.381230 -0.491143
O6    O     O_R   0.391250 0.499990 0.618840 -0.510323
O7    O     O_R   0.391260 0.500020 0.381250 -0.510737
O8    O     O_R   0.499990 0.680320 0.618770 -0.514946
O9    O     O_R   0.500000 0.680360 0.381190 -0.512101
O10   O     O_R   0.608740 0.499980 0.618750 -0.518652
O11   O     O_R   0.608750 0.500010 0.381160 -0.436807
O12   O     O_3   0.430858 0.123626 0.840460 -0.697445

loop_
_geom_bond_atom_site_label_1
_geom_bond_atom_site_label_2
_ccdc_geom_bond_type
C30   H3    S    
C6    C7    A    
C3    C9    A    
C28   N4    T    
Cu2   O7    S    
C22   H17   S    
Cu2   O5    S    
C9    C10   S    
C4    O6    A    
Cu1   Cu2   S    
C34   H6    S    
C13   C17   A    
C2    C30   A    
C25   C26   A    
C33   H5    S    
C15   N2    A    
C2    C34   A    
C14   N1    A    
C7    H1    S    
C11   O12   S    
C7    C8    A    
C8    C16   S    
C16   O9    A    
C25   O3    S    
C21   C22   A    
C24   C25   A    
Cu1   O6    S    
C12   C23   S    
C6    O4    S    
C11   H12   S    
C4    C32   S    
Cu1   O10   S    
H10   O4    S    
C2    C29   S    
C1    C5    S    
C5    C6    A    
C1    O5    A    
C19   H18   S    
H9    O3    S    
C33   C34   A    
H8    O2    S    
C18   H15   S    
C17   C18   S    
H7    O12   S    
C17   N2    A    
C1    O1    A    
C21   C27   S    
C30   C31   A    
C22   C24   A    
C20   O11   A    
Cu2   O9    S    
C14   H13   S    
C3    C11   S    
C10   C11   S    
C13   C19   S    
C10   C28   S    
C12   C21   A    
C23   C29   T    
C16   O8    A    
C31   H4    S    
Cu1   O1    S    
C18   C19   S    
C27   N3    T    
C15   H14   S    
C18   O2    S    
C10   H11   S    
Cu2   N1    S    
Cu2   O11   S    
C20   C24   S    
C4    O7    A    
C26   H2    S    
Cu1   O8    S    
C3    C5    A    
Cu1   N2    S    
C14   C15   A    
C19   H16   S    
C20   O10   A    
C31   C32   A    
C32   C33   A    
C12   C26   A    
C8    C9    A    
C13   N1    A    
