data_mof_unit_19659.cif
_audit_creation_date              2012-12-11T14:19:23-0500
_audit_creation_method            fapswitch 2.2
_symmetry_space_group_name_H-M    P1
_symmetry_Int_Tables_number       1
_space_group_crystal_system       monoclinic
_cell_length_a                    19.534873
_cell_length_b                    7.247967
_cell_length_c                    17.556777
_cell_angle_alpha                 90.0
_cell_angle_beta                  107.620546
_cell_angle_gamma                 90.0
_cell_volume                      2369.20118409

loop_
_atom_site_label
_atom_site_type_symbol
_atom_type_description
_atom_site_fract_x
_atom_site_fract_y
_atom_site_fract_z
_atom_type_partial_charge
O1    O     O_R   0.414820 0.494320 0.416790 -0.531297
O2    O     O_R   0.585180 0.994320 0.583210 -0.531297
O3    O     O_R   0.560270 0.819500 0.430140 -0.537768
O4    O     O_R   0.439730 0.319500 0.569860 -0.537768
C1    C     C_R   0.582773 0.655636 0.416992 0.714275
C2    C     C_R   0.417227 0.155636 0.583008 0.714276
O5    O     O_R   0.413840 0.823740 0.407440 -0.551471
O6    O     O_R   0.586160 0.323740 0.592560 -0.551471
O7    O     O_R   0.437710 0.998590 0.560350 -0.541983
O8    O     O_R   0.562290 0.498590 0.439650 -0.541983
C3    C     C_R   0.387167 0.656323 0.385170 0.725981
C4    C     C_R   0.612833 0.156323 0.614830 0.725982
O9    O     O_3   0.508000 0.662290 0.550200 -0.378584
O10   O     O_3   0.492000 0.162290 0.449800 -0.378584
V1    V     V_3+5 0.498520 0.935380 0.490690 1.382136
V2    V     V_3+5 0.501480 0.435380 0.509310 1.382136
C5    C     C_2   0.790853 0.269511 0.783369 -0.128594
C6    C     C_2   0.209147 0.769511 0.216630 -0.128594
C7    C     C_2   0.817156 0.112780 0.822254 -0.349264
C8    C     C_2   0.182843 0.612780 0.177746 -0.349264
H1    H     H_    0.824519 0.391381 0.796647 0.162091
H2    H     H_    0.175481 0.891382 0.203352 0.162090
H3    H     H_    0.785444 0.987614 0.810660 0.138456
H4    H     H_    0.214556 0.487613 0.189340 0.138455
C9    C     C_2   0.716338 0.291291 0.727163 0.154219
C10   C     C_2   0.283663 0.791290 0.272837 0.154219
C11   C     C_2   0.683295 0.147987 0.679269 -0.381880
C12   C     C_2   0.316705 0.647987 0.320731 -0.381879
H5    H     H_    0.711036 0.016607 0.684680 0.134407
H6    H     H_    0.288963 0.516608 0.315320 0.134407
C13   C     C_R   0.295621 0.062263 0.595166 0.094175
C14   C     C_R   0.704379 0.562263 0.404834 0.094175
C15   C     C_R   0.364174 0.146592 0.627783 -0.099896
C16   C     C_R   0.635826 0.646593 0.372217 -0.099896
C17   C     C_R   0.382602 0.227121 0.703827 -0.252747
C18   C     C_R   0.617398 0.727121 0.296173 -0.252747
C19   C     C_R   0.335318 0.222640 0.749756 0.098804
C20   C     C_R   0.664681 0.722640 0.250244 0.098804
C21   C     C_R   0.268261 0.133525 0.720065 0.040713
C22   C     C_R   0.731739 0.633525 0.279935 0.040713
C23   C     C_R   0.248314 0.050919 0.643179 0.092180
C24   C     C_R   0.751686 0.550919 0.356821 0.092180
C25   C     C_R   0.354472 0.305790 0.825467 -0.177350
C26   C     C_R   0.645528 0.805790 0.174532 -0.177350
C27   C     C_R   0.307659 0.301638 0.871813 -0.164414
C28   C     C_R   0.692341 0.801638 0.128187 -0.164413
C29   C     C_R   0.240751 0.214189 0.843392 0.104955
C30   C     C_R   0.759249 0.714190 0.156608 0.104955
C31   C     C_R   0.220704 0.129498 0.767308 0.009395
C32   C     C_R   0.779295 0.629497 0.232692 0.009395
C33   C     C_R   0.153209 0.041633 0.738451 0.006259
C34   C     C_R   0.846791 0.541633 0.261549 0.006259
C35   C     C_R   0.135762 0.951418 0.664329 -0.186939
C36   C     C_R   0.864238 0.451417 0.335670 -0.186939
C37   C     C_R   0.181574 0.958774 0.616976 -0.198458
C38   C     C_R   0.818426 0.458774 0.383024 -0.198458
C39   C     C_R   0.194112 0.208350 0.890402 -0.293592
C40   C     C_R   0.805888 0.708350 0.109598 -0.293592
C41   C     C_R   0.127076 0.121325 0.862351 -0.149984
C42   C     C_R   0.872924 0.621325 0.137648 -0.149983
C43   C     C_R   0.104752 0.045735 0.784558 0.382069
C44   C     C_R   0.895247 0.545734 0.215442 0.382068
H7    H     H_    0.434527 0.293463 0.727446 0.121239
H8    H     H_    0.565473 0.793462 0.272554 0.121239
H9    H     H_    0.405865 0.374384 0.848940 0.122198
H10   H     H_    0.594135 0.874384 0.151060 0.122198
H11   H     H_    0.323887 0.366837 0.930091 0.121587
H12   H     H_    0.676112 0.866838 0.069908 0.121587
H13   H     H_    0.210227 0.269862 0.949502 0.134374
H14   H     H_    0.789773 0.769862 0.050498 0.134374
H15   H     H_    0.086036 0.875094 0.642014 0.149728
H16   H     H_    0.913963 0.375093 0.357986 0.149728
H17   H     H_    0.163468 0.889891 0.559899 0.132923
H18   H     H_    0.836531 0.389889 0.440101 0.132923
O11   O     O_R   0.937810 0.773680 0.060480 -0.546428
O12   O     O_R   0.062190 0.273680 0.939520 -0.546428
O13   O     O_R   0.086190 0.439740 0.092580 -0.536520
O14   O     O_R   0.913810 0.939740 0.907420 -0.536520
C45   C     C_R   0.112983 0.607752 0.113862 0.735442
C46   C     C_R   0.887017 0.107752 0.886138 0.735442
O15   O     O_R   0.939760 0.444210 0.069890 -0.521185
O16   O     O_R   0.060240 0.944210 0.930110 -0.521185
O17   O     O_R   0.914790 0.269640 0.916760 -0.543744
O18   O     O_R   0.085210 0.769640 0.083240 -0.543744
C47   C     C_R   0.919971 0.612612 0.085650 0.739913
C48   C     C_R   0.080029 0.112612 0.914350 0.739914
O19   O     O_3   0.992050 0.601530 0.949880 -0.378618
O20   O     O_3   0.007950 0.101530 0.050120 -0.378618
V3    V     V_3+5 0.001480 0.328340 0.009300 1.435162
V4    V     V_3+5 0.998520 0.828340 0.990700 1.435162
O21   O     O_3   0.035654 0.975289 0.755222 -0.574031
C49   C     C_3   0.991592 0.096640 0.697254 0.024303
H19   H     H_    0.940434 0.022951 0.668315 0.154277
H20   H     H_    0.015136 0.130973 0.648764 0.117057
C50   C     C_3   0.974318 0.275729 0.734407 -0.305100
H21   H     H_    0.953722 0.241883 0.784797 0.197536
H22   H     H_    0.023722 0.360301 0.757444 0.193303
C51   C     C_3   0.918260 0.390011 0.673431 -0.834208
H23   H     H_    0.937839 0.426773 0.622215 0.231163
H24   H     H_    0.907881 0.519097 0.702173 0.237657
H25   H     H_    0.867162 0.311762 0.651201 0.234412
O22   O     O_3   0.964346 0.475288 0.244778 -0.574031
C52   C     C_3   0.008408 0.596639 0.302746 0.024303
H26   H     H_    0.059566 0.522949 0.331685 0.154277
H27   H     H_    0.984863 0.630972 0.351236 0.117057
C53   C     C_3   0.025682 0.775728 0.265593 -0.305100
H28   H     H_    0.046278 0.741881 0.215203 0.197536
H29   H     H_    0.976278 0.860301 0.242557 0.193302
C54   C     C_3   0.081741 0.890009 0.326568 -0.834207
H30   H     H_    0.062161 0.926771 0.377785 0.231163
H31   H     H_    0.092119 0.019095 0.297827 0.237657
H32   H     H_    0.132838 0.811760 0.348799 0.234412
C55   C     C_3   0.679558 0.478926 0.723495 -0.274829
C56   C     C_3   0.716220 0.614636 0.790160 -0.829831
H33   H     H_    0.726054 0.549332 0.849762 0.237533
H34   H     H_    0.767526 0.664491 0.782740 0.218290
H35   H     H_    0.680917 0.736417 0.786860 0.221053
H36   H     H_    0.675798 0.546743 0.665602 0.190220
H37   H     H_    0.624583 0.456571 0.727924 0.185018
C57   C     C_3   0.320443 0.978924 0.276503 -0.274830
C58   C     C_3   0.283782 0.114632 0.209837 -0.829830
H38   H     H_    0.273949 0.049325 0.150236 0.237533
H39   H     H_    0.232476 0.164489 0.217256 0.218289
H40   H     H_    0.319086 0.236412 0.213136 0.221053
H41   H     H_    0.324203 0.046744 0.334395 0.190220
H42   H     H_    0.375418 0.956567 0.272075 0.185017
C59   C     C_3   0.270740 0.002496 0.507579 -0.360809
C60   C     C_3   0.221034 0.147317 0.456035 -0.784526
H43   H     H_    0.169753 0.155770 0.470796 0.234952
H44   H     H_    0.247474 0.284772 0.465351 0.226334
H45   H     H_    0.209276 0.110532 0.392014 0.221781
H46   H     H_    0.315592 0.983722 0.482343 0.189313
H47   H     H_    0.244508 0.865252 0.500127 0.167165
C61   C     C_3   0.729260 0.502497 0.492421 -0.360809
C62   C     C_3   0.778967 0.647318 0.543964 -0.784524
H48   H     H_    0.830248 0.655768 0.529203 0.234952
H49   H     H_    0.752527 0.784774 0.534648 0.226334
H50   H     H_    0.790725 0.610534 0.607985 0.221781
H51   H     H_    0.684408 0.483726 0.517657 0.189312
H52   H     H_    0.755491 0.365253 0.499873 0.167165

loop_
_geom_bond_atom_site_label_1
_geom_bond_atom_site_label_2
_ccdc_geom_bond_type
C62   H50   S    
C14   C61   S    
O4    V2    S    
C11   H5    S    
C26   H10   S    
C50   H21   S    
O1    C3    A    
C13   C59   S    
O2    C4    A    
C60   H43   S    
C2    O7    A    
C56   H33   S    
C50   C51   S    
C62   H48   S    
C29   C31   A    
O14   V4    S    
C20   C26   A    
O13   V3    S    
C17   C19   A    
C10   C57   S    
C54   H31   S    
C61   H52   S    
C45   O18   A    
O14   C46   A    
C39   C41   A    
C53   H28   S    
C40   C42   A    
C42   C44   A    
C27   C29   A    
C59   H46   S    
C23   C37   A    
C58   H40   S    
O11   V4    S    
C24   C38   A    
C55   H37   S    
C6    C10   S    
C17   H7    S    
O11   C47   A    
C8    H4    S    
C26   C28   A    
C12   H6    S    
C31   C33   A    
C33   C43   A    
C27   H11   S    
C32   C34   A    
C13   C15   A    
C16   C18   A    
C25   H9    S    
O12   V3    S    
O15   V3    S    
C30   C32   A    
O6    V2    S    
O22   C52   S    
O18   V4    S    
C46   O17   A    
C34   C36   A    
C28   C30   A    
C35   C37   A    
O17   V3    S    
C36   C38   A    
C41   C43   A    
C38   H18   S    
C4    C11   S    
C21   C23   A    
C54   H32   S    
C61   H51   S    
C57   H41   S    
C40   H14   S    
O16   C48   A    
C49   C50   S    
C5    H1    S    
C33   C35   A    
C14   C16   A    
C19   C25   A    
O5    C3    A    
C28   H12   S    
C9    C55   S    
C29   C39   A    
O6    C4    A    
C1    C16   S    
C49   H20   S    
O13   C45   A    
C52   H27   S    
O1    V2    S    
O2    V1    S    
C25   C27   A    
C58   H38   S    
C57   H42   S    
O4    C2    A    
C21   C31   A    
C51   H24   S    
O19   V4    S    
C5    C7    D    
C59   C60   S    
C35   H15   S    
C60   H45   S    
O12   C48   A    
O21   C49   S    
O3    V1    S    
C57   C58   S    
C7    H3    S    
C55   C56   S    
C62   H49   S    
C13   C23   A    
C8    C45   S    
C6    H2    S    
C59   H47   S    
C22   C24   A    
O3    C1    A    
C60   H44   S    
C56   H34   S    
C42   C47   S    
C50   H22   S    
C30   C40   A    
C61   C62   S    
C9    C11   D    
C51   H25   S    
C10   C12   D    
O16   V4    S    
C2    C15   S    
C5    C9    S    
C18   C20   A    
O7    V1    S    
C41   C48   S    
C1    O8    A    
C19   C21   A    
C34   C44   A    
C54   H30   S    
C20   C22   A    
C53   H29   S    
C3    C12   S    
C22   C32   A    
O5    V1    S    
C49   H19   S    
C15   C17   A    
C52   C53   S    
C6    C8    D    
C7    C46   S    
C58   H39   S    
C56   H35   S    
C55   H36   S    
C37   H17   S    
C36   H16   S    
O20   V3    S    
C51   H23   S    
O9    V2    S    
C52   H26   S    
C14   C24   A    
O10   V1    S    
O8    V2    S    
C39   H13   S    
C18   H8    S    
O15   C47   A    
C43   O21   S    
C44   O22   S    
C53   C54   S    
