data_mof_unit_55481.cif
_audit_creation_date              2012-12-10T16:38:05-0500
_audit_creation_method            fapswitch 2.2
_symmetry_space_group_name_H-M    P1
_symmetry_Int_Tables_number       1
_space_group_crystal_system       triclinic
_cell_length_a                    28.164079
_cell_length_b                    18.454809
_cell_length_c                    16.910661
_cell_angle_alpha                 89.981165
_cell_angle_beta                  60.948863
_cell_angle_gamma                 90.078311
_cell_volume                      7683.67845823

loop_
_atom_site_label
_atom_site_type_symbol
_atom_type_description
_atom_site_fract_x
_atom_site_fract_y
_atom_site_fract_z
_atom_type_partial_charge
C1    C     C_R   0.707413 0.279465 0.671778 0.947253
C2    C     C_R   0.099969 0.501076 0.494944 0.064931
C3    C     C_R   0.194528 0.211578 0.902589 -0.005200
C4    C     C_R   0.623771 0.332947 0.043616 -0.190427
C5    C     C_R   0.375857 0.666642 0.956736 -0.190585
C6    C     C_R   0.337700 0.398292 0.008524 -0.189379
C7    C     C_R   0.662188 0.601956 0.991591 -0.188444
C8    C     C_R   0.108308 0.815040 0.054855 -0.197603
C9    C     C_R   0.891377 0.184526 0.945397 -0.195511
C10   C     C_R   0.837863 0.897739 0.008369 -0.191738
C11   C     C_R   0.162009 0.102498 0.991820 -0.192411
C12   C     C_R   0.654924 0.323491 0.086557 -0.228442
C13   C     C_R   0.405525 0.998307 0.482723 0.069901
C14   C     C_R   0.344676 0.676014 0.913847 -0.228601
C15   C     C_R   0.309007 0.381601 0.963385 -0.211887
C16   C     C_R   0.690824 0.618697 0.036800 -0.211694
C17   C     C_R   0.133685 0.790816 0.103313 -0.221997
C18   C     C_R   0.865856 0.208454 0.897085 -0.220270
C19   C     C_R   0.809163 0.881037 0.963274 -0.212748
C20   C     C_R   0.190608 0.119303 0.037040 -0.214555
C21   C     C_R   0.782309 0.287019 0.754989 0.628104
C22   C     C_R   0.217315 0.712375 0.245506 0.625517
C23   C     C_R   0.269526 0.182998 0.192329 0.626236
C24   C     C_R   0.594480 0.001691 0.517259 0.069762
C25   C     C_R   0.730212 0.817340 0.807935 0.628848
C26   C     C_R   0.239259 0.684631 0.794705 0.646907
C27   C     C_R   0.760543 0.315113 0.205444 0.647222
C28   C     C_R   0.769647 0.682557 0.192337 0.632718
C29   C     C_R   0.230247 0.317615 0.807744 0.634016
C30   C     C_R   0.811768 0.268653 0.798760 -0.299274
C31   C     C_R   0.187781 0.730548 0.201766 -0.300398
C32   C     C_R   0.243780 0.162313 0.143054 -0.308788
C33   C     C_R   0.755846 0.838133 0.857376 -0.302097
C34   C     C_R   0.270657 0.672237 0.836626 -0.304924
C35   C     C_R   0.119405 0.376904 0.441097 -0.237671
C36   C     C_R   0.729032 0.327314 0.163679 -0.304858
C37   C     C_R   0.743939 0.661790 0.142996 -0.302948
C38   C     C_R   0.255867 0.338479 0.857200 -0.303964
C39   C     C_R   0.079659 0.091303 0.928441 0.928400
C40   C     C_R   0.920323 0.908736 0.071576 0.927807
C41   C     C_R   0.928295 0.103354 0.063287 0.908352
C42   C     C_R   0.071665 0.896607 0.936757 0.908195
C43   C     C_R   0.579742 0.591099 0.928358 0.927776
C44   C     C_R   0.420218 0.408983 0.071678 0.927809
C45   C     C_R   0.427070 0.602114 0.064126 0.906444
C46   C     C_R   0.924166 0.632366 0.428159 -0.233209
C47   C     C_R   0.572832 0.397793 0.935965 0.907216
C48   C     C_R   0.522836 0.119959 0.579678 0.109842
C49   C     C_R   0.477169 0.880039 0.420304 0.109826
C50   C     C_R   0.426911 0.116486 0.566605 0.108815
C51   C     C_R   0.573095 0.883512 0.433375 0.108582
C52   C     C_R   0.043519 0.630139 0.508401 0.114250
C53   C     C_R   0.979355 0.372205 0.410427 0.110636
C54   C     C_R   0.964981 0.632698 0.451933 0.105408
C55   C     C_R   0.073760 0.375073 0.428818 0.103058
C56   C     C_R   0.485382 0.176992 0.614628 -0.200817
C57   C     C_R   0.930227 0.371038 0.407644 -0.202829
C58   C     C_R   0.514623 0.823006 0.385353 -0.200886
C59   C     C_R   0.437561 0.175004 0.608785 -0.200236
C60   C     C_R   0.562446 0.824994 0.391196 -0.200297
C61   C     C_R   0.019300 0.695860 0.505811 -0.182865
C62   C     C_R   0.011162 0.309626 0.393466 -0.192310
C63   C     C_R   0.981894 0.697541 0.473996 -0.208568
C64   C     C_R   0.058709 0.311497 0.400593 -0.200094
C65   C     C_R   0.463827 0.058652 0.532238 0.031749
C66   C     C_R   0.536180 0.941348 0.467741 0.031789
C67   C     C_R   0.511505 0.060049 0.539644 0.028686
C68   C     C_R   0.081609 0.627629 0.538590 -0.170234
C69   C     C_R   0.488502 0.939950 0.460336 0.028703
C70   C     C_R   0.987946 0.566818 0.456676 0.034589
C71   C     C_R   0.042459 0.437741 0.445292 0.037442
C72   C     C_R   0.029727 0.566171 0.479403 0.025017
C73   C     C_R   0.996721 0.437030 0.432080 0.032106
C74   C     C_R   0.969112 0.501633 0.438643 -0.046202
C75   C     C_R   0.057169 0.501528 0.473891 -0.046560
C76   C     C_R   0.452529 0.998824 0.492076 -0.049930
C77   C     C_R   0.547477 0.001175 0.507904 -0.049913
C78   C     C_R   0.898263 0.434564 0.425461 0.063770
C79   C     C_R   0.619630 0.884470 0.442985 -0.240058
C80   C     C_R   0.113577 0.564947 0.525857 0.075654
C81   C     C_R   0.130088 0.437299 0.482716 0.052362
C82   C     C_R   0.896256 0.567237 0.431797 0.050127
C83   C     C_R   0.391772 0.936429 0.448900 0.061986
C84   C     C_R   0.608232 0.063569 0.551085 0.062045
C85   C     C_R   0.628468 0.940595 0.491519 0.045030
C86   C     C_R   0.371537 0.059404 0.508464 0.045044
C87   C     C_R   0.844173 0.434950 0.438270 -0.115753
C88   C     C_R   0.160148 0.564128 0.539014 -0.114540
C89   C     C_R   0.169655 0.436921 0.512696 -0.112596
C90   C     C_R   0.380376 0.115527 0.556999 -0.240248
C91   C     C_R   0.843394 0.565563 0.440373 -0.111661
C92   C     C_R   0.341048 0.935787 0.449645 -0.122544
C93   C     C_R   0.658955 0.064211 0.550344 -0.122399
C94   C     C_R   0.669914 0.938236 0.516347 -0.113567
C95   C     C_R   0.330090 0.061763 0.483639 -0.113948
C96   C     C_R   0.819347 0.500127 0.440459 -0.247597
C97   C     C_R   0.183753 0.499622 0.540231 -0.276567
C98   C     C_R   0.314819 0.999931 0.456221 -0.270450
C99   C     C_R   0.685185 0.000068 0.543765 -0.270838
C100  C     C_R   0.428702 0.878129 0.415867 -0.235676
C101  C     C_R   0.292427 0.720273 0.328404 0.945406
C102  C     C_R   0.571302 0.121869 0.584119 -0.235669
C103  C     C_R   0.732863 0.291486 0.943585 0.021081
C104  C     C_R   0.266689 0.707781 0.056890 0.020876
C105  C     C_R   0.277006 0.269956 0.049313 0.018606
C106  C     C_R   0.722711 0.730428 0.951016 0.018601
C107  C     C_R   0.206601 0.740023 0.966564 0.020982
C108  C     C_R   0.793017 0.259389 0.033822 0.021093
C109  C     C_R   0.777178 0.769402 0.049208 0.018580
C110  C     C_R   0.222586 0.230924 0.951071 0.018522
C111  C     C_R   0.787187 0.266885 0.893697 -0.046546
C112  C     C_R   0.300048 0.264071 0.322692 0.941876
C113  C     C_R   0.212336 0.732301 0.106805 -0.045978
C114  C     C_R   0.246319 0.205062 0.071372 -0.043592
C115  C     C_R   0.753347 0.795364 0.929026 -0.043946
C116  C     C_R   0.256769 0.703384 0.920790 -0.050105
C117  C     C_R   0.742843 0.296029 0.079616 -0.049892
C118  C     C_R   0.746494 0.704499 0.071265 -0.047779
C119  C     C_R   0.253267 0.295830 0.929005 -0.047730
C120  C     C_R   0.815539 0.244538 0.940386 0.113844
C121  C     C_R   0.184002 0.754714 0.060067 0.114465
C122  C     C_R   0.219535 0.185003 0.021193 0.111957
C123  C     C_R   0.699922 0.735993 0.677322 0.958670
C124  C     C_R   0.780177 0.815380 0.979164 0.111931
C125  C     C_R   0.289408 0.694727 0.963105 0.111860
C126  C     C_R   0.710169 0.304632 0.037343 0.112022
C127  C     C_R   0.719711 0.684436 0.021058 0.110916
C128  C     C_R   0.280041 0.315917 0.979225 0.110722
C129  C     C_R   0.647086 0.328314 0.948680 0.109737
C130  C     C_R   0.352558 0.671196 0.051668 0.109582
C131  C     C_R   0.339389 0.350183 0.071556 0.097800
C132  C     C_R   0.660461 0.650074 0.928601 0.098367
C133  C     C_R   0.132126 0.805303 0.960286 0.108744
C134  C     C_R   0.200345 0.764850 0.677198 0.917085
C135  C     C_R   0.867656 0.194404 0.039917 0.107764
C136  C     C_R   0.839584 0.849659 0.071384 0.099137
C137  C     C_R   0.160306 0.150530 0.928755 0.099440
C138  C     C_R   0.618378 0.347289 0.900827 -0.130863
C139  C     C_R   0.381356 0.652365 0.099418 -0.131085
C140  C     C_R   0.373729 0.361178 0.110684 -0.131968
C141  C     C_R   0.626171 0.638996 0.889403 -0.130658
C142  C     C_R   0.110738 0.836546 0.906224 -0.132382
C143  C     C_R   0.889184 0.163365 0.093864 -0.131872
C144  C     C_R   0.873922 0.860737 0.110505 -0.131852
C145  C     C_R   0.799649 0.235145 0.322814 0.910705
C146  C     C_R   0.126035 0.139346 0.889539 -0.133041
C147  C     C_R   0.638874 0.328315 0.811975 -0.314047
C148  C     C_R   0.360849 0.671265 0.188282 -0.314474
C149  C     C_R   0.364647 0.324291 0.187304 -0.312447
C150  C     C_R   0.635251 0.675875 0.812773 -0.310951
C151  C     C_R   0.131250 0.816137 0.817131 -0.304236
C152  C     C_R   0.868764 0.183908 0.182889 -0.305228
C153  C     C_R   0.864861 0.823846 0.187122 -0.313088
C154  C     C_R   0.135134 0.176175 0.812867 -0.311321
C155  C     C_R   0.690982 0.302567 0.763511 -0.092537
C156  C     C_R   0.800078 0.763990 0.322688 0.915906
C157  C     C_R   0.308731 0.696969 0.236795 -0.092250
C158  C     C_R   0.323527 0.274339 0.224806 -0.083056
C159  C     C_R   0.676364 0.725846 0.775275 -0.089423
C160  C     C_R   0.174862 0.769537 0.776257 -0.096753
C161  C     C_R   0.825099 0.230427 0.223790 -0.094981
C162  C     C_R   0.823671 0.773981 0.224733 -0.076637
C163  C     C_R   0.176301 0.226081 0.775280 -0.081411
C164  C     C_R   0.725287 0.297177 0.804357 -0.073115
C165  C     C_R   0.274349 0.702227 0.196062 -0.071606
C166  C     C_R   0.298972 0.248206 0.172975 -0.065131
C167  C     C_R   0.199905 0.236061 0.677311 0.939667
C168  C     C_R   0.700830 0.752081 0.827218 -0.061111
C169  C     C_R   0.198195 0.738544 0.827851 -0.071388
C170  C     C_R   0.801643 0.261240 0.172296 -0.070782
C171  C     C_R   0.799132 0.747753 0.172903 -0.069545
C172  C     C_R   0.200776 0.252402 0.827179 -0.071211
C173  C     C_R   0.691053 0.129610 0.536188 0.892141
C174  C     C_R   0.308948 0.870389 0.463807 0.892791
C175  C     C_R   0.303116 0.127755 0.483105 0.908402
C176  C     C_R   0.696887 0.872245 0.516886 0.908477
C177  C     C_R   0.191717 0.628918 0.532115 0.913952
C178  C     C_R   0.921494 0.501101 0.430742 0.066797
C179  C     C_R   0.809130 0.370450 0.463280 0.911373
C180  C     C_R   0.808614 0.629445 0.464751 0.909887
C181  C     C_R   0.196600 0.371976 0.517022 0.913318
C182  C     C_R   0.701578 0.304794 0.899072 -0.001633
C183  C     C_R   0.298017 0.694555 0.101356 -0.001958
C184  C     C_R   0.305124 0.289187 0.097724 -0.005488
C185  C     C_R   0.694648 0.711141 0.902525 -0.003780
C186  C     C_R   0.178985 0.761464 0.918172 0.001716
C187  C     C_R   0.820752 0.238159 0.082083 0.001469
C188  C     C_R   0.805318 0.788654 0.097586 -0.005792
F1    F     F_    0.811467 0.302126 0.665352 -0.654068
F2    F     F_    0.188247 0.697597 0.335239 -0.660477
F3    F     F_    0.269413 0.135020 0.253311 -0.661734
F4    F     F_    0.730406 0.865211 0.746790 -0.663323
F5    F     F_    0.245570 0.637399 0.728802 -0.646174
F6    F     F_    0.754316 0.362501 0.271158 -0.646374
F7    F     F_    0.769443 0.634692 0.253499 -0.651006
F8    F     F_    0.230531 0.365397 0.746446 -0.647300
H1    H     H_    0.082641 0.262573 0.387121 0.143806
H2    H     H_    0.216092 0.499059 0.557685 0.216293
H3    H     H_    0.279805 0.000633 0.445608 0.206995
H4    H     H_    0.720198 0.999367 0.554380 0.206960
H5    H     H_    0.146125 0.330828 0.415974 0.179621
H6    H     H_    0.914695 0.683785 0.409014 0.178043
H7    H     H_    0.918326 0.320779 0.389437 0.165087
H8    H     H_    0.084758 0.675036 0.573113 0.164683
H9    H     H_    0.648972 0.841724 0.410576 0.172189
H10   H     H_    0.351033 0.158272 0.589412 0.171637
H11   H     H_    0.421123 0.832421 0.383380 0.163437
H12   H     H_    0.964185 0.748891 0.471094 0.139754
H13   H     H_    0.578879 0.167575 0.616610 0.163340
H14   H     H_    0.614623 0.337169 0.778875 0.189458
H15   H     H_    0.385150 0.662503 0.221311 0.189698
H16   H     H_    0.387538 0.338142 0.221516 0.192921
H17   H     H_    0.612396 0.661963 0.778519 0.192161
H18   H     H_    0.114973 0.840724 0.777090 0.191656
H19   H     H_    0.885145 0.159474 0.222863 0.191037
H20   H     H_    0.887752 0.837722 0.221325 0.189860
H21   H     H_    0.112289 0.162215 0.778612 0.192205
H22   H     H_    0.580834 0.341935 0.086760 0.170814
H23   H     H_    0.999215 0.259295 0.375067 0.141855
H24   H     H_    0.418809 0.657832 0.913534 0.170909
H25   H     H_    0.356992 0.450888 0.995075 0.175887
H26   H     H_    0.642994 0.549299 0.004927 0.175948
H27   H     H_    0.068828 0.839208 0.094347 0.173630
H28   H     H_    0.930895 0.160497 0.905794 0.175228
H29   H     H_    0.857101 0.950359 0.994918 0.174460
H30   H     H_    0.142851 0.049827 0.005205 0.174605
H31   H     H_    0.634438 0.328016 0.159475 0.147470
H32   H     H_    0.365171 0.671592 0.840919 0.147503
H33   H     H_    0.310310 0.422097 0.916573 0.146017
H34   H     H_    0.030246 0.746020 0.526240 0.141907
H35   H     H_    0.689568 0.578170 0.083542 0.145992
H36   H     H_    0.113720 0.803277 0.174610 0.141606
H37   H     H_    0.885736 0.195810 0.825847 0.143476
H38   H     H_    0.810483 0.921525 0.916453 0.143658
H39   H     H_    0.189286 0.078827 0.083874 0.143522
H40   H     H_    0.854890 0.260528 0.756629 0.174260
H41   H     H_    0.144653 0.738665 0.243933 0.173382
H42   H     H_    0.222090 0.111733 0.163353 0.172100
H43   H     H_    0.777456 0.888778 0.837191 0.171891
H44   H     H_    0.303262 0.633220 0.805965 0.174216
H45   H     H_    0.590650 0.780144 0.364144 0.146271
H46   H     H_    0.696416 0.366316 0.194338 0.174191
H47   H     H_    0.722231 0.611214 0.163301 0.177484
H48   H     H_    0.277546 0.389076 0.836924 0.177476
H49   H     H_    0.409356 0.219854 0.635837 0.146259
H50   H     H_    0.506875 0.776784 0.353741 0.144434
H51   H     H_    0.493130 0.223214 0.646242 0.144462
H52   H     H_    0.778458 0.499895 0.449769 0.211681
O1    O     O_R   0.746490 0.236330 0.638080 -0.576411
O2    O     O_R   0.325830 0.813840 0.483730 -0.633747
O3    O     O_R   0.325830 0.186160 0.483730 -0.646251
O4    O     O_R   0.674170 0.813840 0.516270 -0.646834
O5    O     O_R   0.174170 0.686160 0.516270 -0.606608
O6    O     O_R   0.825830 0.313840 0.483730 -0.594033
O7    O     O_R   0.825830 0.686160 0.483730 -0.654509
O8    O     O_R   0.174170 0.313840 0.516270 -0.653109
O9    O     O_R   0.739960 0.127620 0.525000 -0.624086
O10   O     O_R   0.260040 0.872380 0.475000 -0.624004
O11   O     O_R   0.260040 0.127620 0.475000 -0.604709
O12   O     O_R   0.253510 0.763670 0.361920 -0.577110
O13   O     O_R   0.739960 0.872380 0.525000 -0.605405
O14   O     O_R   0.239960 0.627620 0.525000 -0.602960
O15   O     O_R   0.760040 0.372380 0.475000 -0.607881
O16   O     O_R   0.760040 0.627620 0.475000 -0.599162
O17   O     O_R   0.239960 0.372380 0.525000 -0.597531
O18   O     O_R   0.680700 0.294870 0.629350 -0.654938
O19   O     O_R   0.319300 0.705130 0.370650 -0.655361
O20   O     O_R   0.319300 0.294870 0.370650 -0.644263
O21   O     O_R   0.680700 0.705130 0.629350 -0.639666
O22   O     O_R   0.180700 0.794870 0.629350 -0.648509
O23   O     O_R   0.253510 0.236330 0.361920 -0.587849
O24   O     O_R   0.819300 0.205130 0.370650 -0.651704
O25   O     O_R   0.819300 0.794870 0.370650 -0.657112
O26   O     O_R   0.180700 0.205130 0.629350 -0.645534
O27   O     O_R   0.062020 0.072840 0.007170 -0.627868
O28   O     O_R   0.937980 0.927160 0.992830 -0.627218
O29   O     O_R   0.937980 0.072840 0.992830 -0.643610
O30   O     O_R   0.062020 0.927160 0.007170 -0.643790
O31   O     O_R   0.562020 0.572840 0.007170 -0.629650
O32   O     O_R   0.437980 0.427160 0.992830 -0.629414
O33   O     O_R   0.437980 0.572840 0.992830 -0.641795
O34   O     O_R   0.746490 0.763670 0.638080 -0.568818
O35   O     O_R   0.562020 0.427160 0.007170 -0.641629
O36   O     O_R   0.947860 0.073950 0.109290 -0.613823
O37   O     O_R   0.052140 0.926050 0.890710 -0.613180
O38   O     O_R   0.052140 0.073950 0.890710 -0.624666
O39   O     O_R   0.947860 0.926050 0.109290 -0.626008
O40   O     O_R   0.447860 0.573950 0.109290 -0.610947
O41   O     O_R   0.552140 0.426050 0.890710 -0.610767
O42   O     O_R   0.552140 0.573950 0.890710 -0.622176
O43   O     O_R   0.447860 0.426050 0.109290 -0.622550
O44   O     O_R   0.246490 0.736330 0.638080 -0.561316
O45   O     O_R   0.753510 0.263670 0.361920 -0.561737
O46   O     O_R   0.753510 0.736330 0.361920 -0.587517
O47   O     O_R   0.246490 0.263670 0.638080 -0.587129
O48   O     O_R   0.674170 0.186160 0.516270 -0.633697
Zn1   Zn    Zn3+2 0.792340 0.208750 0.507670 1.009322
Zn2   Zn    Zn3+2 0.494040 0.500000 0.919480 0.934425
Zn3   Zn    Zn3+2 0.005960 0.000000 0.080520 0.926864
Zn4   Zn    Zn3+2 0.994040 0.000000 0.919480 0.930846
Zn5   Zn    Zn3+2 0.207660 0.791250 0.492330 1.003678
Zn6   Zn    Zn3+2 0.207660 0.208750 0.492330 0.991544
Zn7   Zn    Zn3+2 0.792340 0.791250 0.507670 0.992576
Zn8   Zn    Zn3+2 0.292340 0.708750 0.507670 1.022791
Zn9   Zn    Zn3+2 0.707660 0.291250 0.492330 1.021431
Zn10  Zn    Zn3+2 0.707660 0.708750 0.492330 1.006259
Zn11  Zn    Zn3+2 0.292340 0.291250 0.507670 1.005660
Zn12  Zn    Zn3+2 0.505960 0.500000 0.080520 0.934163

loop_
_geom_bond_atom_site_label_1
_geom_bond_atom_site_label_2
_ccdc_geom_bond_type
O32   Zn2   S    
C108  C120  A    
O17   Zn11  S    
O5    Zn5   S    
C88   C177  S    
O13   Zn7   S    
C60   H45   S    
O14   Zn8   S    
C50   C59   A    
C41   C143  S    
C52   C61   A    
C180  O16   A    
C12   C126  A    
C54   C63   A    
C40   O28   A    
C58   C60   A    
C43   O42   A    
C45   C139  S    
C28   F7    S    
C61   C63   A    
C103  C126  A    
C95   C175  S    
C62   C64   A    
C131  C140  A    
C91   C96   A    
C179  O6    A    
C179  O15   A    
C50   C90   A    
C162  C171  A    
C170  C187  A    
C70   C74   A    
C4    C12   A    
C34   H44   S    
C24   C85   A    
C112  O20   A    
O8    Zn6   S    
C88   C97   A    
C119  C128  A    
C109  C188  A    
C49   C69   A    
O26   Zn6   S    
O27   Zn3   S    
C109  C118  A    
C173  O48   A    
C11   C20   A    
C150  C159  A    
C165  C183  A    
C137  C146  A    
C166  C184  A    
O15   Zn9   S    
C86   C90   A    
C71   C73   A    
C35   H5    S    
C12   H31   S    
C106  C127  A    
C82   C91   A    
C51   C66   A    
C89   C181  S    
C142  C151  A    
C173  O9    A    
C52   C72   A    
C131  C184  A    
C105  C114  A    
C54   C70   A    
C82   C178  A    
C17   H36   S    
C61   H34   S    
C36   C117  A    
C7    C132  A    
C8    H27   S    
C112  C158  S    
C38   C119  A    
C5    C130  A    
C63   H12   S    
C47   O41   A    
C79   C85   A    
C66   C77   A    
C40   O39   A    
C57   C78   A    
C25   F4    S    
O33   Zn2   S    
C176  O4    A    
O46   Zn10  S    
O36   Zn3   S    
C8    C17   A    
C56   C59   A    
C106  C115  A    
C62   H23   S    
C80   C88   A    
O6    Zn1   S    
C145  C161  S    
C11   H30   S    
O2    Zn8   S    
C93   C173  S    
C84   C93   A    
C105  C184  A    
O7    Zn7   S    
C86   C95   A    
C24   C77   A    
C104  C183  A    
C43   O31   A    
O3    Zn11  S    
O43   Zn12  S    
C2    C81   A    
C55   C71   A    
C2    C75   A    
C78   C87   A    
C134  C160  S    
C68   H8    S    
C84   C102  A    
C67   C77   A    
C149  H16   S    
C133  C142  A    
C45   O40   A    
C123  C159  S    
C98   H3    S    
C130  C183  A    
C1    O1    A    
C3    C110  A    
C69   C76   A    
C85   C94   A    
O40   Zn12  S    
C46   C82   A    
C175  O3    A    
C29   C38   A    
C147  H14   S    
C149  C158  A    
C20   C122  A    
C152  C161  A    
C135  C143  A    
C48   C67   A    
C136  C188  A    
C72   C75   A    
C112  O23   A    
C135  C187  A    
C180  O7    A    
C141  C150  A    
O22   Zn5   S    
C25   C168  A    
C139  C148  A    
C104  C125  A    
C157  C165  A    
C92   C174  S    
C79   H9    S    
C14   H32   S    
C181  O8    A    
C21   F1    S    
C91   C180  S    
C27   F6    S    
C154  H21   S    
C47   O35   A    
C9    C135  A    
C4    H22   S    
C116  C125  A    
O37   Zn4   S    
C22   F2    S    
C118  C127  A    
C19   H38   S    
O20   Zn11  S    
C147  C155  A    
O35   Zn12  S    
C117  C126  A    
C39   O27   A    
C132  C141  A    
C108  C117  A    
C110  C119  A    
C174  O10   A    
C102  H13   S    
C134  O22   A    
C16   H35   S    
C36   H46   S    
O18   Zn9   S    
C9    H28   S    
C44   O32   A    
C28   C37   A    
C47   C138  S    
C148  C157  A    
C50   C65   A    
C51   C79   A    
C107  C116  A    
C41   O29   A    
C104  C113  A    
C9    C18   A    
C113  C121  A    
C51   C60   A    
C30   H40   S    
C140  C149  A    
C31   C113  A    
C25   C33   A    
O47   Zn11  S    
C129  C182  A    
C37   H47   S    
C44   O43   A    
C73   C74   A    
O42   Zn2   S    
C41   O36   A    
C107  C186  A    
C65   C76   A    
O39   Zn3   S    
C171  C188  A    
C145  O24   A    
C134  O44   A    
C169  C186  A    
C42   O30   A    
C3    C172  A    
O48   Zn9   S    
C103  C111  A    
C150  H17   S    
C90   H10   S    
C1    O18   A    
C65   C67   A    
C10   H29   S    
C160  C169  A    
C3    C137  A    
C93   C99   A    
C81   C89   A    
C123  O21   A    
C101  C157  S    
C44   C140  S    
C21   C164  A    
C64   H1    S    
C15   H33   S    
O19   Zn8   S    
C130  C139  A    
C167  O26   A    
O28   Zn4   S    
C100  H11   S    
O12   Zn5   S    
C56   H51   S    
C53   C73   A    
C33   C115  A    
C58   H50   S    
C148  H15   S    
C53   C57   A    
C132  C185  A    
C177  O14   A    
O29   Zn4   S    
O30   Zn3   S    
C10   C19   A    
C20   H39   S    
C48   C102  A    
C46   C54   A    
C59   H49   S    
C27   C170  A    
C5    C14   A    
O34   Zn7   S    
C181  O17   A    
C17   C121  A    
C143  C152  A    
C15   C128  A    
C43   C141  S    
C107  C121  A    
O16   Zn10  S    
C158  C166  A    
C115  C124  A    
C39   O38   A    
C78   C178  A    
C106  C185  A    
C6    C131  A    
C123  O34   A    
C4    C129  A    
C27   C36   A    
C38   H48   S    
C21   C30   A    
C13   C83   A    
O11   Zn6   S    
O4    Zn10  S    
C156  O46   A    
C153  C162  A    
C23   C32   A    
C11   C137  A    
C136  C144  A    
C110  C122  A    
O31   Zn12  S    
C32   H42   S    
C39   C146  S    
C42   O37   A    
C164  C182  A    
O21   Zn10  S    
C66   C69   A    
C176  O13   A    
C46   H6    S    
O23   Zn6   S    
C26   F5    S    
C96   H52   S    
C153  H20   S    
C94   C176  S    
C68   C80   A    
O1    Zn1   S    
C74   C178  A    
C103  C182  A    
C108  C187  A    
C23   F3    S    
C35   C81   A    
C18   H37   S    
C92   C98   A    
C83   C92   A    
C14   C125  A    
O41   Zn2   S    
C10   C136  A    
C5    H24   S    
C34   C116  A    
C101  O12   A    
C159  C168  A    
C144  C153  A    
C1    C155  S    
C6    C15   A    
C22   C165  A    
C26   C34   A    
C129  C138  A    
C26   C169  A    
C151  H18   S    
C146  C154  A    
C13   C86   A    
C42   C142  S    
C52   C68   A    
C6    H25   S    
C31   H41   S    
C156  C162  S    
O38   Zn4   S    
C16   C127  A    
O10   Zn5   S    
C167  O47   A    
C152  H19   S    
C19   C124  A    
C45   O33   A    
C22   C31   A    
C37   C118  A    
C35   C55   A    
C154  C163  A    
C7    H26   S    
C174  O2    A    
C49   C58   A    
C89   C97   A    
C111  C120  A    
C99   H4    S    
C163  C167  S    
C33   H43   S    
C23   C166  A    
O45   Zn9   S    
C53   C62   A    
C28   C171  A    
C57   H7    S    
C13   C76   A    
C138  C147  A    
C87   C96   A    
C156  O25   A    
C133  C186  A    
C161  C170  A    
C40   C144  S    
C18   C120  A    
O9    Zn1   S    
C48   C56   A    
C7    C16   A    
C168  C185  A    
C105  C128  A    
C8    C133  A    
C97   H2    S    
C163  C172  A    
O25   Zn7   S    
C109  C124  A    
C55   C64   A    
C155  C164  A    
C29   F8    S    
C177  O5    A    
C30   C111  A    
C83   C100  A    
C151  C160  A    
C24   C84   A    
C145  O45   A    
C49   C100  A    
C71   C75   A    
C94   C99   A    
O44   Zn8   S    
C29   C172  A    
C101  O19   A    
C2    C80   A    
C87   C179  S    
C114  C122  A    
C70   C72   A    
C32   C114  A    
C95   C98   A    
O24   Zn1   S    
C175  O11   A    
