data_mof_unit_42828.cif
_audit_creation_date              2012-12-10T17:56:20-0500
_audit_creation_method            fapswitch 2.2
_symmetry_space_group_name_H-M    P1
_symmetry_Int_Tables_number       1
_space_group_crystal_system       triclinic
_cell_length_a                    13.051007
_cell_length_b                    10.819813
_cell_length_c                    9.51274
_cell_angle_alpha                 90.056903
_cell_angle_beta                  97.168969
_cell_angle_gamma                 89.980684
_cell_volume                      1332.78689762

loop_
_atom_site_label
_atom_site_type_symbol
_atom_type_description
_atom_site_fract_x
_atom_site_fract_y
_atom_site_fract_z
_atom_type_partial_charge
C1    C     C_R   0.503809 0.262309 0.500467 0.845353
C2    C     C_R   0.496191 0.737691 0.499533 0.845353
C3    C     C_R   0.493558 0.871654 0.498862 -0.111587
C4    C     C_R   0.506442 0.128346 0.501138 -0.111587
C5    C     C_R   0.456846 0.404587 0.066822 0.029460
C6    C     C_R   0.543154 0.595413 0.933178 0.029460
C7    C     C_R   0.456432 0.404868 0.918040 0.011854
C8    C     C_R   0.543568 0.595132 0.081960 0.011854
C9    C     C_R   0.300215 0.496690 0.472066 0.838823
C10   C     C_R   0.699785 0.503310 0.527934 0.838823
C11   C     C_R   0.813307 0.508823 0.546540 -0.113154
C12   C     C_R   0.186693 0.491177 0.453459 -0.113154
C13   C     C_R   0.019541 0.450220 0.316235 -0.055374
C14   C     C_R   0.980459 0.549780 0.683765 -0.055374
C15   C     C_R   0.127844 0.454192 0.325187 -0.080297
C16   C     C_R   0.872156 0.545808 0.674813 -0.080297
C17   C     C_R   0.136892 0.521812 0.570451 -0.221560
C18   C     C_R   0.863108 0.478188 0.429549 -0.221560
C19   C     C_R   0.029586 0.517958 0.564171 0.091308
C20   C     C_R   0.970414 0.482042 0.435829 0.091308
C21   C     C_R   0.558339 0.060505 0.404581 -0.007260
C22   C     C_R   0.441661 0.939495 0.595419 -0.007260
C23   C     C_R   0.549816 0.932397 0.403678 -0.221565
C24   C     C_R   0.450184 0.067603 0.596321 -0.221565
Cu1   Cu    Cu3+1 0.500000 0.500020 0.640660 0.991358
Cu2   Cu    Cu3+1 0.500000 0.499980 0.359340 0.991358
H1    H     H_    0.817006 0.450763 0.332115 0.174160
H2    H     H_    0.182993 0.549237 0.667884 0.174160
H3    H     H_    0.591335 0.879045 0.332399 0.170890
H4    H     H_    0.408664 0.120955 0.667601 0.170890
H5    H     H_    0.422364 0.327931 0.116526 0.146378
H6    H     H_    0.577636 0.672069 0.883474 0.146378
H7    H     H_    0.420932 0.328848 0.856160 0.135245
H8    H     H_    0.579068 0.671152 0.143840 0.135245
N1    N     N_R   0.500030 0.500030 0.852080 -0.177826
N2    N     N_R   0.499970 0.499970 0.147920 -0.177826
O1    O     O_R   0.499990 0.319660 0.618740 -0.592139
O2    O     O_R   0.500010 0.680340 0.381260 -0.592139
O3    O     O_R   0.499990 0.319630 0.381170 -0.578294
O4    O     O_R   0.500010 0.680370 0.618830 -0.578294
O5    O     O_R   0.349000 0.499990 0.599490 -0.572610
O6    O     O_R   0.651000 0.500010 0.400510 -0.572610
O7    O     O_R   0.348990 0.499960 0.361920 -0.575426
O8    O     O_R   0.651010 0.500040 0.638080 -0.575426
C25   C     C_1   0.823241 0.583808 0.796709 0.316228
N3    N     N_1   0.785268 0.614403 0.894704 -0.283471
C26   C     C_1   0.176759 0.416192 0.203291 0.316228
N4    N     N_1   0.214732 0.385597 0.105296 -0.283471
C27   C     C_1   0.959594 0.412184 0.184038 0.244669
N5    N     N_1   0.912003 0.381785 0.078850 -0.252599
C28   C     C_1   0.040406 0.587816 0.815962 0.244669
N6    N     N_1   0.087997 0.618215 0.921150 -0.252599
C29   C     C_2   0.626514 0.118643 0.309540 0.852474
O9    O     O_2   0.630666 0.075931 0.191260 -0.582764
O10   O     O_R   0.688979 0.219020 0.356718 -0.757853
H9    H     H_    0.732556 0.248969 0.282515 0.335579
C30   C     C_2   0.373486 0.881357 0.690459 0.852474
O11   O     O_2   0.369334 0.924069 0.808740 -0.582764
O12   O     O_R   0.311020 0.780980 0.643282 -0.757853
H10   H     H_    0.267444 0.751031 0.717485 0.335579

loop_
_geom_bond_atom_site_label_1
_geom_bond_atom_site_label_2
_ccdc_geom_bond_type
C16   C25   S    
C12   C17   A    
C6    H6    S    
O10   H9    S    
C11   C18   A    
C14   C16   A    
C1    O1    A    
C10   O6    A    
C11   C16   A    
C2    O2    A    
C29   O10   S    
C9    O5    A    
C19   C20   A    
C12   C15   A    
C15   C26   S    
C1    C4    S    
C22   C30   S    
C21   C23   A    
C2    C3    S    
O12   H10   S    
C8    H8    S    
C25   N3    T    
C21   C29   S    
C4    C21   A    
C7    H7    S    
C30   O11   D    
C7    N1    A    
Cu1   N1    S    
C13   C27   S    
C23   H3    S    
Cu1   O8    S    
Cu2   N2    S    
C17   C19   A    
Cu2   O7    S    
C18   C20   A    
C13   C15   A    
Cu1   O4    S    
C4    C24   A    
C9    C12   S    
C22   C24   A    
Cu2   O3    S    
C30   O12   S    
C24   H4    S    
C9    O7    A    
C10   C11   S    
C1    O3    A    
C10   O8    A    
C28   N6    T    
C5    N2    A    
C2    O4    A    
C6    N1    A    
Cu2   O6    S    
C14   C28   S    
C27   N5    T    
C8    N2    A    
Cu1   O5    S    
C5    C7    A    
Cu2   O2    S    
C3    C22   A    
C6    C8    A    
C13   C20   A    
Cu1   O1    S    
Cu1   Cu2   S    
C29   O9    D    
C17   H2    S    
C3    C23   A    
C14   C19   A    
C18   H1    S    
C26   N4    T    
C5    H5    S    
