data_mof_unit_38081.cif
_audit_creation_date              2012-12-10T16:44:38-0500
_audit_creation_method            fapswitch 2.2
_symmetry_space_group_name_H-M    P1
_symmetry_Int_Tables_number       1
_space_group_crystal_system       triclinic
_cell_length_a                    15.043344
_cell_length_b                    8.729071
_cell_length_c                    7.440193
_cell_angle_alpha                 102.787139
_cell_angle_beta                  94.536882
_cell_angle_gamma                 92.615711
_cell_volume                      947.782893098

loop_
_atom_site_label
_atom_site_type_symbol
_atom_type_description
_atom_site_fract_x
_atom_site_fract_y
_atom_site_fract_z
_atom_type_partial_charge
C1    C     C_R   0.497332 0.200103 0.453680 0.812988
C2    C     C_R   0.502668 0.799897 0.546320 0.812987
C3    C     C_R   0.031168 0.384273 0.169238 -0.214692
C4    C     C_R   0.968832 0.615727 0.830762 -0.214692
C5    C     C_2   0.496153 0.033120 0.427146 0.284475
C6    C     C_2   0.503847 0.966879 0.572854 0.284475
C7    C     C_R   0.328695 0.498724 0.501581 0.792860
C8    C     C_R   0.671305 0.501276 0.498419 0.792860
C9    C     C_R   0.822210 0.559279 0.662778 -0.122831
C10   C     C_R   0.177789 0.440721 0.337222 -0.122831
C11   C     C_R   0.768072 0.503231 0.496656 -0.094745
C12   C     C_R   0.231928 0.496768 0.503344 -0.094745
C13   C     C_R   0.806460 0.447319 0.331149 -0.178593
C14   C     C_R   0.193540 0.552681 0.668851 -0.178593
C15   C     C_R   0.899118 0.444708 0.330983 0.000298
C16   C     C_R   0.100882 0.555292 0.669017 0.000298
C17   C     C_R   0.953434 0.500994 0.498958 -0.016534
C18   C     C_R   0.046566 0.499006 0.501042 -0.016534
C19   C     C_R   0.914680 0.559107 0.665020 0.065526
C20   C     C_R   0.085320 0.440893 0.334980 0.065526
C21   C     C_R   0.938529 0.386071 0.166828 0.570266
C22   C     C_R   0.061471 0.613929 0.833171 0.570266
Cu1   Cu    Cu3+1 0.510010 0.517380 0.684380 1.045732
Cu2   Cu    Cu3+1 0.489990 0.482620 0.315620 1.045732
H1    H     H_    0.792431 0.603687 0.790674 0.164076
H2    H     H_    0.207568 0.396313 0.209325 0.164076
H3    H     H_    0.764075 0.403646 0.203511 0.213576
H4    H     H_    0.235925 0.596354 0.796489 0.213576
H5    H     H_    0.060599 0.339039 0.041256 0.175238
H6    H     H_    0.939401 0.660961 0.958744 0.175238
H7    H     H_    0.430054 0.377912 0.948091 0.247579
H8    H     H_    0.569946 0.622087 0.051908 0.247579
N1    N     N_2   0.474890 0.456420 0.038520 -0.182335
N2    N     N_2   0.525110 0.543580 0.961480 -0.182335
O1    O     O_R   0.506510 0.286130 0.619770 -0.556619
O2    O     O_R   0.493490 0.713870 0.380230 -0.556619
O3    O     O_R   0.489600 0.256770 0.308360 -0.525972
O4    O     O_R   0.510400 0.743230 0.691640 -0.525972
O5    O     O_R   0.378710 0.514640 0.655720 -0.598937
O6    O     O_R   0.621290 0.485360 0.344280 -0.598937
O7    O     O_R   0.361800 0.485290 0.344300 -0.583447
O8    O     O_R   0.638200 0.514710 0.655700 -0.583447
F1    F     F_    0.887618 0.330383 0.004276 -0.670930
F2    F     F_    0.112382 0.669618 0.995724 -0.670930
F3    F     F_    0.487112 0.946858 0.249133 -0.626977
F4    F     F_    0.512888 0.053142 0.750867 -0.626977

loop_
_geom_bond_atom_site_label_1
_geom_bond_atom_site_label_2
_ccdc_geom_bond_type
C17   C18   A    
C15   C21   A    
Cu1   Cu2   S    
H7    N1    S    
C15   C17   A    
Cu1   O4    S    
C4    C22   A    
C2    O4    A    
Cu1   O1    S    
Cu2   N1    S    
C1    O3    A    
C8    O8    A    
Cu1   N2    S    
C14   H4    S    
C10   H2    S    
C13   C15   A    
Cu2   O3    S    
C9    H1    S    
C3    C20   A    
C2    C6    S    
Cu2   O7    S    
C9    C11   A    
Cu2   O2    S    
Cu1   O8    S    
C10   C12   A    
C8    C11   S    
Cu1   O5    S    
C4    H6    S    
Cu2   O6    S    
C12   C14   A    
N1    N2    D    
C18   C20   A    
C7    O7    A    
C6    F4    S    
C5    C6    D    
C14   C16   A    
C7    C12   S    
C3    C21   A    
C11   C13   A    
C1    C5    S    
C1    O1    A    
C16   C18   A    
C2    O2    A    
C3    H5    S    
C7    O5    A    
C13   H3    S    
C16   C22   A    
C8    O6    A    
C17   C19   A    
C21   F1    S    
C4    C19   A    
C5    F3    S    
C9    C19   A    
C22   F2    S    
C10   C20   A    
H8    N2    S    
