data_mof_unit_41035.cif
_audit_creation_date              2013-03-05T15:55:44-0500
_audit_creation_method            fapswitch 2.2
_symmetry_space_group_name_H-M    P1
_symmetry_Int_Tables_number       1
_space_group_crystal_system       triclinic
_cell_length_a                    10.61482
_cell_length_b                    12.398343
_cell_length_c                    13.236663
_cell_angle_alpha                 116.658183
_cell_angle_beta                  76.659557
_cell_angle_gamma                 101.207644
_cell_volume                      1506.54962968

loop_
_atom_site_label
_atom_site_type_symbol
_atom_site_description
_atom_site_fract_x
_atom_site_fract_y
_atom_site_fract_z
_atom_type_partial_charge
O1    O     O_R   0.537510 0.972500 0.318130 -0.548533
O2    O     O_R   0.487140 0.806530 0.359650 -0.635972
C1    C     C_R   0.508438 0.854870 0.286903 0.818956
O3    O     O_R   0.708330 0.082950 0.479220 -0.547094
O4    O     O_R   0.657960 0.916980 0.520740 -0.608199
C2    C     C_R   0.739941 0.999482 0.499749 0.877995
Cu1   Cu    Cu3+1 0.529830 0.098270 0.475420 1.074972
Cu2   Cu    Cu3+1 0.470170 0.901730 0.524580 1.006685
O5    O     O_R   0.512860 0.193470 0.640350 -0.556093
O6    O     O_R   0.462490 0.027500 0.681870 -0.552685
O7    O     O_R   0.342040 0.083020 0.479260 -0.534634
O8    O     O_R   0.291670 0.917050 0.520780 -0.568336
C3    C     C_R   0.483626 0.144872 0.713283 0.859714
C4    C     C_R   0.260274 0.998765 0.497938 0.841367
C5    C     C_3   0.968423 0.110137 0.557893 -0.039233
C6    C     C_3   0.072001 0.070336 0.448370 -0.214590
H1    H     H_    0.130710 0.127260 0.405779 0.235591
C7    C     C_3   0.123952 0.997110 0.495652 -0.140476
C8    C     C_3   0.022289 0.038602 0.605706 -0.053887
C9    C     C_3   0.929025 0.924576 0.545905 -0.186775
C10   C     C_3   0.032738 0.883928 0.436479 -0.093571
C11   C     C_3   0.978940 0.956985 0.391641 0.339023
C12   C     C_3   0.876311 0.998030 0.499246 -0.156155
H2    H     H_    0.043219 0.073087 0.694014 0.208342
H3    H     H_    0.868847 0.865063 0.585325 0.216880
C13   C     C_R   0.415978 0.267937 0.035072 -0.137082
H4    H     H_    0.427308 0.089491 0.899413 0.208487
H5    H     H_    0.333184 0.440807 0.237297 0.175081
H6    H     H_    0.379238 0.234121 0.100133 0.165772
C14   C     C_R   0.473548 0.227743 0.835065 -0.045951
C15   C     C_R   0.569357 0.817157 0.082904 -0.193465
C16   C     C_R   0.618076 0.740771 0.971089 0.384813
C17   C     C_R   0.605561 0.614105 0.937200 -0.142060
C18   C     C_R   0.524420 0.564020 0.012349 -0.025707
C19   C     C_R   0.477597 0.644555 0.126646 0.091642
C20   C     C_R   0.489092 0.436845 0.979864 0.085651
C21   C     C_R   0.434124 0.392914 0.064372 0.152428
C22   C     C_R   0.386822 0.473393 0.174325 -0.183734
C23   C     C_R   0.397491 0.595857 0.201118 -0.113062
C24   C     C_R   0.494326 0.352639 0.865582 -0.203912
C25   C     C_R   0.440649 0.185539 0.920704 -0.093270
C26   C     C_R   0.512724 0.771375 0.163938 -0.147939
H7    H     H_    0.506404 0.383881 0.799662 0.187835
H8    H     H_    0.587905 0.914088 0.108845 0.223420
H9    H     H_    0.340678 0.650734 0.280937 0.172106
C27   C     C_R   0.727171 0.358065 0.344141 0.174915
H10   H     H_    0.761707 0.556237 0.302775 0.220719
N1    N     N_R   0.575030 0.246270 0.438190 -0.310513
C28   C     C_R   0.324774 0.758902 0.648830 0.445801
C29   C     C_R   0.305370 0.673487 0.695099 -0.191308
C30   C     C_R   0.383244 0.578258 0.644236 -0.100779
C31   C     C_R   0.470774 0.559407 0.542253 0.039971
C32   C     C_R   0.498839 0.656171 0.507451 0.203180
C33   C     C_R   0.538520 0.452148 0.479402 -0.101719
C34   C     C_R   0.649997 0.455234 0.397997 -0.052275
C35   C     C_R   0.680489 0.553825 0.368691 -0.143623
C36   C     C_R   0.604588 0.649826 0.419689 -0.157070
C37   C     C_R   0.496896 0.340296 0.490689 0.405934
C38   C     C_R   0.689513 0.255616 0.367663 0.348491
N2    N     N_R   0.425760 0.754330 0.561190 -0.266453
H11   H     H_    0.377396 0.521694 0.687631 0.233149
H12   H     H_    0.634573 0.718566 0.389150 0.218044
C39   C     C_2   0.689112 0.538842 0.830797 0.419164
H13   H     H_    0.736615 0.468515 0.830059 0.134269
O9    O     O_2   0.701546 0.551424 0.742510 -0.498072
N3    N     N_R   0.692476 0.795263 0.897341 0.165873
O10   O     O_R   0.644408 0.877280 0.885890 -0.341112
O11   O     O_R   0.815967 0.782519 0.861834 -0.260948
N4    N     N_R   0.775387 0.162873 0.319152 0.184529
O12   O     O_R   0.889632 0.188903 0.349557 -0.323647
O13   O     O_R   0.756713 0.068921 0.224208 -0.285147
N5    N     N_R   0.846268 0.363730 0.267697 0.154922
O14   O     O_R   0.940241 0.448327 0.304785 -0.318141
O15   O     O_R   0.865108 0.278791 0.163941 -0.251872
N6    N     N_R   0.364548 0.318197 0.539298 0.121972
O16   O     O_R   0.270911 0.327983 0.496474 -0.399041
O17   O     O_R   0.336862 0.309306 0.636415 -0.362829
N7    N     N_R   0.237108 0.849922 0.693668 0.122495
O18   O     O_R   0.247267 0.941498 0.792158 -0.374792
O19   O     O_R   0.126118 0.821122 0.657213 -0.365304
C40   C     C_2   0.931047 0.236469 0.626876 0.490026
H14   H     H_    0.975594 0.307563 0.599567 0.133967
O20   O     O_2   0.849817 0.259619 0.713622 -0.557971
C41   C     C_2   0.203903 0.683020 0.796426 0.500379
H15   H     H_    0.141569 0.755835 0.836416 0.163440
O21   O     O_2   0.188008 0.608918 0.836606 -0.490337
C42   C     C_2   0.071990 0.757664 0.370586 0.422444
H16   H     H_    0.105575 0.715116 0.414036 0.118585
O22   O     O_2   0.066743 0.702306 0.268485 -0.462662
N8    N     N_R   0.951284 0.911164 0.275724 0.180613
O23   O     O_R   0.018219 0.957692 0.206541 -0.254015
O24   O     O_R   0.861470 0.821521 0.240131 -0.337594

loop_
_geom_bond_atom_site_label_1
_geom_bond_atom_site_label_2
_geom_bond_distance
_ccdc_geom_bond_type
N3    O11   1.301428 A    
C42   H16   1.084488 S    
C39   O9    1.221397 D    
C1    C26   1.481597 S    
C15   C26   1.396501 A    
C27   C38   1.403635 A    
C7    C10   1.534806 S    
C4    C7    1.450286 S    
C8    C9    1.555211 S    
C30   H11   1.074114 S    
C34   C35   1.401131 A    
C10   C42   1.498554 S    
C40   H14   1.084540 S    
C29   C41   1.487790 S    
Cu1   Cu2   2.719398 S    
C5    C40   1.495166 S    
C35   C36   1.386478 A    
C5    C8    1.543331 S    
C28   N2    1.374332 A    
C20   C21   1.417883 A    
C41   O21   1.221558 D    
C7    C8    1.539207 S    
O4    C2    1.295461 A    
O7    C4    1.298437 A    
N7    O19   1.300995 A    
C9    H3    1.110487 S    
C5    C6    1.545136 S    
C28   N7    1.429692 S    
C18   C19   1.422432 A    
N4    O13   1.298906 A    
C19   C26   1.419709 A    
O5    C3    1.304743 A    
C24   H7    1.077127 S    
C6    H1    1.108242 S    
C27   C34   1.405042 A    
C14   C25   1.399743 A    
C27   N5    1.437328 S    
Cu2   O8    1.954769 S    
C23   H9    1.078560 S    
C5    C12   1.531113 S    
N3    O10   1.301170 A    
C10   C11   1.529270 S    
O3    Cu1   1.954768 S    
C40   O20   1.219782 D    
C32   N2    1.387218 A    
C31   C33   1.442427 A    
C37   N6    1.433208 S    
Cu1   O7    1.956315 S    
C15   H8    1.081607 S    
C30   C31   1.400947 A    
C3    C14   1.463749 S    
C20   C24   1.395693 A    
C41   H15   1.083874 S    
N5    O15   1.300966 A    
C32   C36   1.402235 A    
N7    O18   1.299760 A    
C29   C30   1.392786 A    
O1    C1    1.317589 A    
C19   C23   1.416675 A    
N6    O16   1.300987 A    
C21   C22   1.385767 A    
H4    C25   1.081337 S    
N8    O24   1.300626 A    
C15   C16   1.390796 A    
C9    C12   1.544727 S    
H5    C22   1.084408 S    
C17   C39   1.485559 S    
C17   C18   1.438024 A    
C11   N8    1.457401 S    
C14   C24   1.398834 A    
N6    O17   1.300485 A    
C38   N4    1.428353 S    
O3    C2    1.298752 A    
O8    C4    1.296746 A    
C42   O22   1.219922 D    
C36   H12   1.065545 S    
C31   C32   1.426166 A    
N1    C38   1.371311 A    
C16   N3    1.435855 S    
C33   C37   1.434560 A    
Cu1   O5    1.944369 S    
C33   C34   1.411999 A    
C6    C11   1.539611 S    
O1    Cu1   1.957231 S    
Cu2   O6    1.957230 S    
O2    Cu2   1.944369 S    
N5    O14   1.301292 A    
O6    C3    1.309217 A    
O4    Cu2   1.956314 S    
C13   C21   1.402743 A    
N1    C37   1.383017 A    
Cu1   N1    2.049438 S    
O2    C1    1.304715 A    
C16   C17   1.414020 A    
N8    O23   1.300239 A    
C22   C23   1.382929 A    
C2    C12   1.449602 S    
C8    H2    1.110394 S    
C18   C20   1.431031 A    
N4    O12   1.301263 A    
C39   H13   1.084265 S    
C9    C10   1.545542 S    
C13   H6    1.083961 S    
C6    C7    1.543962 S    
C28   C29   1.406419 A    
C11   C12   1.524306 S    
Cu2   N2    2.037459 S    
C13   C25   1.391859 A    
H10   C35   1.082436 S    
