data_mof_unit_41874.cif
_audit_creation_date              2012-12-10T17:19:45-0500
_audit_creation_method            fapswitch 2.2
_symmetry_space_group_name_H-M    P1
_symmetry_Int_Tables_number       1
_space_group_crystal_system       triclinic
_cell_length_a                    21.77461
_cell_length_b                    21.774686
_cell_length_c                    23.53919
_cell_angle_alpha                 90.000836
_cell_angle_beta                  89.999132
_cell_angle_gamma                 90.001499
_cell_volume                      11160.7608007

loop_
_atom_site_label
_atom_site_type_symbol
_atom_type_description
_atom_site_fract_x
_atom_site_fract_y
_atom_site_fract_z
_atom_type_partial_charge
C1    C     C_R   0.379687 0.000000 0.500001 0.957616
C2    C     C_R   0.999998 0.379687 0.500002 0.957603
C3    C     C_R   0.620313 0.000002 0.499998 0.957577
C4    C     C_R   1.000000 0.620313 0.499997 0.957641
C5    C     C_R   0.879687 0.500000 0.000000 0.957630
C6    C     C_R   0.499998 0.879687 0.000002 0.957594
C7    C     C_R   0.120313 0.500001 0.999999 0.957577
C8    C     C_R   0.499999 0.120313 0.999997 0.957653
C9    C     C_R   0.280452 0.958347 0.462014 -0.005733
C10   C     C_R   0.041658 0.280453 0.462023 -0.005746
C11   C     C_R   0.719552 0.041695 0.462047 -0.005757
C12   C     C_R   0.958344 0.719545 0.462012 -0.005769
C13   C     C_R   0.719547 0.958326 0.537965 -0.005743
C14   C     C_R   0.958320 0.280451 0.537972 -0.005755
C15   C     C_R   0.280451 0.041670 0.537975 -0.005766
C16   C     C_R   0.041633 0.719546 0.538000 -0.005731
C17   C     C_R   0.780454 0.458360 0.962003 -0.005724
C18   C     C_R   0.541663 0.780452 0.962029 -0.005753
C19   C     C_R   0.219551 0.541688 0.962040 -0.005747
C20   C     C_R   0.458354 0.219545 0.962001 -0.005771
C21   C     C_R   0.219547 0.458326 0.037964 -0.005752
C22   C     C_R   0.458322 0.780451 0.037973 -0.005748
C23   C     C_R   0.780453 0.541656 0.037986 -0.005769
C24   C     C_R   0.541619 0.219546 0.038010 -0.005725
C25   C     C_R   0.185750 0.999996 0.500000 -0.115329
C26   C     C_R   0.999999 0.185750 0.500003 -0.115301
C27   C     C_R   0.814251 0.000001 0.500001 -0.115275
C28   C     C_R   0.000004 0.814249 0.499998 -0.115359
C29   C     C_R   0.685751 0.499995 0.000001 -0.115365
C30   C     C_R   0.499998 0.685750 0.000005 -0.115299
C31   C     C_R   0.314251 0.500002 0.999999 -0.115281
C32   C     C_R   0.500005 0.314249 0.999996 -0.115395
C33   C     C_R   0.313110 0.000003 0.499999 -0.168011
C34   C     C_R   0.999992 0.313110 0.500000 -0.168018
C35   C     C_R   0.686891 0.000007 0.500002 -0.168031
C36   C     C_R   0.999995 0.686888 0.499999 -0.167999
C37   C     C_R   0.813111 0.500002 0.000000 -0.167998
C38   C     C_R   0.499994 0.813110 0.000001 -0.168019
C39   C     C_R   0.186891 0.500005 0.000000 -0.168028
C40   C     C_R   0.499994 0.186888 0.999999 -0.167988
C41   C     C_R   0.000001 0.119922 0.500001 0.868568
C42   C     C_R   0.880079 0.999997 0.500000 0.868581
C43   C     C_R   0.000006 0.880078 0.499999 0.868548
C44   C     C_R   0.119922 0.999995 0.500000 0.868567
C45   C     C_R   0.499999 0.619922 0.000001 0.868574
C46   C     C_R   0.380079 0.500000 0.000000 0.868587
C47   C     C_R   0.500007 0.380077 0.999999 0.868548
C48   C     C_R   0.619922 0.499994 1.000000 0.868564
C49   C     C_R   0.500005 1.000000 0.390741 0.920276
C50   C     C_R   0.000000 0.500000 0.390741 0.920284
C51   C     C_R   0.500000 0.000000 0.609259 0.920293
C52   C     C_R   1.000000 0.499995 0.609259 0.920271
C53   C     C_R   0.000005 0.500000 0.890741 0.920259
C54   C     C_R   0.500000 0.999998 0.890741 0.920287
C55   C     C_R   0.000001 0.500000 0.109258 0.920289
C56   C     C_R   0.499999 0.999994 0.109259 0.920269
C57   C     C_1   0.500005 0.999999 0.330468 -0.226983
C58   C     C_1   0.000001 0.500000 0.330468 -0.227005
C59   C     C_1   0.500001 0.000001 0.669532 -0.226981
C60   C     C_1   0.999999 0.499994 0.669532 -0.227020
C61   C     C_1   0.000005 0.499999 0.830468 -0.227002
C62   C     C_1   0.500001 0.999998 0.830468 -0.227010
C63   C     C_1   0.000002 0.500001 0.169532 -0.226991
C64   C     C_1   0.499999 0.999993 0.169532 -0.227035
C65   C     C_1   0.500003 0.999996 0.279663 -0.015417
C66   C     C_1   0.000002 0.500000 0.279662 -0.015419
C67   C     C_1   0.500001 0.000000 0.720337 -0.015415
C68   C     C_1   0.000001 0.499995 0.720337 -0.015422
C69   C     C_1   0.000004 0.499997 0.779663 -0.015418
C70   C     C_1   0.500001 0.999999 0.779663 -0.015420
C71   C     C_1   0.000002 0.500001 0.220337 -0.015417
C72   C     C_1   0.500000 0.999994 0.220337 -0.015424
C73   C     C_R   0.306476 0.920208 0.417092 0.079697
C74   C     C_R   0.079809 0.306476 0.417108 0.079714
C75   C     C_R   0.693533 0.079888 0.417159 0.079750
C76   C     C_R   0.920192 0.693519 0.417099 0.079689
C77   C     C_R   0.693524 0.920156 0.582867 0.079743
C78   C     C_R   0.920146 0.306475 0.582870 0.079722
C79   C     C_R   0.306474 0.079835 0.582879 0.079718
C80   C     C_R   0.079748 0.693520 0.582936 0.079670
C81   C     C_R   0.806479 0.420237 0.917069 0.079663
C82   C     C_R   0.579819 0.806473 0.917117 0.079730
C83   C     C_R   0.193531 0.579871 0.917146 0.079738
C84   C     C_R   0.420213 0.193517 0.917082 0.079671
C85   C     C_R   0.193526 0.420156 0.082866 0.079737
C86   C     C_R   0.420150 0.806475 0.082874 0.079718
C87   C     C_R   0.806477 0.579809 0.082899 0.079697
C88   C     C_R   0.579715 0.193520 0.082959 0.079652
C89   C     C_R   0.267852 0.882131 0.383072 0.192680
C90   C     C_R   0.117916 0.267854 0.383115 0.192685
C91   C     C_R   0.732158 0.118039 0.383208 0.192671
C92   C     C_R   0.882089 0.732139 0.383102 0.192691
C93   C     C_R   0.732145 0.882027 0.616839 0.192681
C94   C     C_R   0.882019 0.267854 0.616846 0.192678
C95   C     C_R   0.267852 0.117957 0.616858 0.192683
C96   C     C_R   0.117797 0.732144 0.616982 0.192679
C97   C     C_R   0.767854 0.382193 0.883021 0.192673
C98   C     C_R   0.617935 0.767850 0.883132 0.192680
C99   C     C_R   0.232155 0.618010 0.883184 0.192675
C100  C     C_R   0.382123 0.232136 0.883073 0.192697
C101  C     C_R   0.232148 0.382026 0.116835 0.192676
C102  C     C_R   0.382025 0.767855 0.116852 0.192682
C103  C     C_R   0.767856 0.617914 0.116893 0.192687
C104  C     C_R   0.617736 0.232145 0.117029 0.192677
C105  C     C_R   0.206866 0.873000 0.398709 0.219843
C106  C     C_R   0.127061 0.206879 0.398773 0.219851
C107  C     C_R   0.793137 0.127155 0.398869 0.219880
C108  C     C_R   0.872958 0.793121 0.398748 0.219853
C109  C     C_R   0.793121 0.872889 0.601174 0.219848
C110  C     C_R   0.872901 0.206871 0.601200 0.219879
C111  C     C_R   0.206873 0.127087 0.601203 0.219853
C112  C     C_R   0.126931 0.793132 0.601359 0.219856
C113  C     C_R   0.706861 0.373074 0.898635 0.219844
C114  C     C_R   0.627080 0.706876 0.898796 0.219843
C115  C     C_R   0.293135 0.627131 0.898841 0.219877
C116  C     C_R   0.372990 0.293120 0.898713 0.219847
C117  C     C_R   0.293123 0.372887 0.101167 0.219842
C118  C     C_R   0.372902 0.706872 0.101203 0.219873
C119  C     C_R   0.706875 0.627048 0.101245 0.219853
C120  C     C_R   0.626871 0.293136 0.101416 0.219864
C121  C     C_R   0.182811 0.906764 0.442974 -0.303094
C122  C     C_R   0.093255 0.182816 0.443007 -0.303169
C123  C     C_R   0.817200 0.093291 0.443061 -0.303211
C124  C     C_R   0.906765 0.817187 0.442979 -0.303163
C125  C     C_R   0.817185 0.906721 0.556957 -0.303180
C126  C     C_R   0.906738 0.182804 0.556990 -0.303218
C127  C     C_R   0.182810 0.093260 0.556984 -0.303165
C128  C     C_R   0.093204 0.817185 0.557070 -0.303095
C129  C     C_R   0.682811 0.406795 0.942930 -0.303048
C130  C     C_R   0.593265 0.682815 0.943025 -0.303154
C131  C     C_R   0.317198 0.593283 0.943045 -0.303208
C132  C     C_R   0.406781 0.317186 0.942955 -0.303148
C133  C     C_R   0.317185 0.406720 0.056951 -0.303159
C134  C     C_R   0.406735 0.682806 0.056990 -0.303209
C135  C     C_R   0.682812 0.593240 0.057013 -0.303152
C136  C     C_R   0.593183 0.317184 0.057099 -0.303043
C137  C     C_R   0.216492 0.954645 0.468963 -0.000929
C138  C     C_R   0.045358 0.216494 0.468975 -0.000959
C139  C     C_R   0.783514 0.045382 0.468998 -0.000969
C140  C     C_R   0.954652 0.783507 0.468956 -0.000943
C141  C     C_R   0.783507 0.954628 0.531010 -0.000967
C142  C     C_R   0.954633 0.216489 0.531026 -0.000969
C143  C     C_R   0.216491 0.045361 0.531025 -0.000951
C144  C     C_R   0.045338 0.783506 0.531055 -0.000932
C145  C     C_R   0.716492 0.454657 0.968947 -0.000907
C146  C     C_R   0.545363 0.716492 0.968983 -0.000952
C147  C     C_R   0.283513 0.545378 0.968991 -0.000974
C148  C     C_R   0.454662 0.283507 0.968943 -0.000943
C149  C     C_R   0.283507 0.454629 0.031008 -0.000953
C150  C     C_R   0.454632 0.716489 0.031026 -0.000971
C151  C     C_R   0.716491 0.545349 0.031040 -0.000952
C152  C     C_R   0.545329 0.283506 0.031065 -0.000910
H1    H     H_    0.135369 0.897864 0.453656 0.161937
H2    H     H_    0.102145 0.135374 0.453686 0.161954
H3    H     H_    0.864650 0.102157 0.453733 0.161951
H4    H     H_    0.897877 0.864631 0.453653 0.161985
H5    H     H_    0.864629 0.897840 0.546277 0.161933
H6    H     H_    0.897864 0.135355 0.546322 0.161979
H7    H     H_    0.135365 0.102142 0.546306 0.161961
H8    H     H_    0.102114 0.864626 0.546392 0.161962
H9    H     H_    0.635370 0.397883 0.953612 0.161946
H10   H     H_    0.602152 0.635373 0.953708 0.161945
H11   H     H_    0.364646 0.602154 0.953718 0.161950
H12   H     H_    0.397887 0.364629 0.953629 0.162002
H13   H     H_    0.364629 0.397837 0.046267 0.161932
H14   H     H_    0.397860 0.635358 0.046320 0.161969
H15   H     H_    0.635368 0.602128 0.046335 0.161981
H16   H     H_    0.602105 0.364622 0.046417 0.161960
O1    O     O_R   0.408370 0.051730 0.500010 -0.607281
O2    O     O_R   0.948270 0.408370 0.500010 -0.607277
O3    O     O_R   0.591630 0.948270 0.500010 -0.607272
O4    O     O_R   0.051730 0.591630 0.500010 -0.607288
O5    O     O_R   0.591630 0.051730 0.499990 -0.607267
O6    O     O_R   0.051730 0.408370 0.499990 -0.607278
O7    O     O_R   0.408370 0.948270 0.499990 -0.607276
O8    O     O_R   0.948270 0.591630 0.499990 -0.607288
O9    O     O_R   0.908370 0.551730 0.000010 -0.607286
O10   O     O_R   0.448270 0.908370 0.000010 -0.607276
O11   O     O_R   0.091630 0.448270 0.000010 -0.607271
O12   O     O_R   0.551730 0.091630 0.000010 -0.607290
O13   O     O_R   0.091630 0.551730 0.999990 -0.607269
O14   O     O_R   0.551730 0.908370 0.999990 -0.607280
O15   O     O_R   0.908370 0.448270 0.999990 -0.607272
O16   O     O_R   0.448270 0.091630 0.999990 -0.607291
O17   O     O_R   0.499980 0.051730 0.417240 -0.623879
O18   O     O_R   0.948270 0.499980 0.417240 -0.623856
O19   O     O_R   0.500020 0.948270 0.417240 -0.623843
O20   O     O_R   0.051730 0.500020 0.417240 -0.623853
O21   O     O_R   0.500020 0.051730 0.582760 -0.623862
O22   O     O_R   0.051730 0.499980 0.582760 -0.623827
O23   O     O_R   0.499980 0.948270 0.582760 -0.623859
O24   O     O_R   0.948270 0.500020 0.582760 -0.623866
O25   O     O_R   0.999980 0.551730 0.917240 -0.623869
O26   O     O_R   0.448270 0.999980 0.917240 -0.623851
O27   O     O_R   0.000020 0.448270 0.917240 -0.623839
O28   O     O_R   0.551730 0.000020 0.917240 -0.623852
O29   O     O_R   0.000020 0.551730 0.082760 -0.623855
O30   O     O_R   0.551730 0.999980 0.082760 -0.623818
O31   O     O_R   0.999980 0.448270 0.082760 -0.623861
O32   O     O_R   0.448270 0.000020 0.082760 -0.623863
O33   O     O_R   0.999980 0.091600 0.546760 -0.626706
O34   O     O_R   0.908400 0.999980 0.546760 -0.626696
O35   O     O_R   0.000020 0.908400 0.546760 -0.626711
O36   O     O_R   0.091600 0.000020 0.546760 -0.626713
O37   O     O_R   0.000020 0.091600 0.453240 -0.626698
O38   O     O_R   0.091600 0.999980 0.453240 -0.626710
O39   O     O_R   0.999980 0.908400 0.453240 -0.626712
O40   O     O_R   0.908400 0.000020 0.453240 -0.626701
O41   O     O_R   0.499980 0.591600 0.046760 -0.626707
O42   O     O_R   0.408400 0.499980 0.046760 -0.626696
O43   O     O_R   0.500020 0.408400 0.046760 -0.626710
O44   O     O_R   0.591600 0.500020 0.046760 -0.626714
O45   O     O_R   0.500020 0.591600 0.953240 -0.626695
O46   O     O_R   0.591600 0.499980 0.953240 -0.626715
O47   O     O_R   0.499980 0.408400 0.953240 -0.626717
O48   O     O_R   0.408400 0.500020 0.953240 -0.626706
Zn1   Zn    Zn3+2 0.500000 0.069080 0.500000 0.897274
Zn2   Zn    Zn3+2 0.930920 0.500000 0.500000 0.897284
Zn3   Zn    Zn3+2 0.500000 0.930920 0.500000 0.897301
Zn4   Zn    Zn3+2 0.069080 0.500000 0.500000 0.897315
Zn5   Zn    Zn3+2 0.000000 0.569080 0.000000 0.897283
Zn6   Zn    Zn3+2 0.430920 0.000000 0.000000 0.897291
Zn7   Zn    Zn3+2 0.000000 0.430920 0.000000 0.897308
Zn8   Zn    Zn3+2 0.569080 0.000000 0.000000 0.897325
Zn9   Zn    Zn3+2 0.000000 0.000000 0.562420 0.919582
Zn10  Zn    Zn3+2 0.000000 0.000000 0.437580 0.919580
Zn11  Zn    Zn3+2 0.500000 0.500000 0.062420 0.919568
Zn12  Zn    Zn3+2 0.500000 0.500000 0.937580 0.919566
N1    N     N_2   0.290366 0.147063 0.667172 -0.300140
H17   H     H_    0.325012 0.125253 0.689149 0.219439
C153  C     C_3   0.292634 0.213656 0.667755 -0.746314
H18   H     H_    0.339538 0.229431 0.679200 0.218380
H19   H     H_    0.259841 0.231255 0.699857 0.255950
H20   H     H_    0.280471 0.233554 0.625721 0.234832
N2    N     N_2   0.852888 0.290374 0.667146 -0.300137
H21   H     H_    0.874687 0.325025 0.689127 0.219439
C154  C     C_3   0.786295 0.292638 0.667697 -0.746304
H22   H     H_    0.770513 0.339535 0.679154 0.218400
H23   H     H_    0.768677 0.259828 0.699774 0.255954
H24   H     H_    0.766422 0.280493 0.625647 0.234802
N3    N     N_2   0.709635 0.852931 0.667159 -0.300153
H25   H     H_    0.674999 0.874750 0.689142 0.219439
C155  C     C_3   0.707360 0.786338 0.667752 -0.746326
H26   H     H_    0.660444 0.770572 0.679169 0.218363
H27   H     H_    0.740124 0.768744 0.699879 0.255941
H28   H     H_    0.719554 0.766428 0.625729 0.234866
N4    N     N_2   0.146833 0.709619 0.667326 -0.300161
H29   H     H_    0.125008 0.674946 0.689255 0.219392
C156  C     C_3   0.213426 0.707391 0.667997 -0.746256
H30   H     H_    0.229207 0.660487 0.679434 0.218376
H31   H     H_    0.230954 0.740170 0.700143 0.256010
H32   H     H_    0.233387 0.719597 0.625998 0.234809
N5    N     N_2   0.709648 0.147192 0.332918 -0.300131
H33   H     H_    0.675006 0.125400 0.310919 0.219461
C157  C     C_3   0.707376 0.213786 0.332400 -0.746354
H34   H     H_    0.660484 0.229567 0.320925 0.218425
H35   H     H_    0.740206 0.231425 0.300349 0.255937
H36   H     H_    0.719491 0.233637 0.374466 0.234800
N6    N     N_2   0.146988 0.290365 0.332782 -0.300147
H37   H     H_    0.125161 0.325007 0.310815 0.219423
C158  C     C_3   0.213581 0.292638 0.332160 -0.746312
H38   H     H_    0.229344 0.339549 0.320723 0.218362
H39   H     H_    0.231158 0.259862 0.300033 0.255967
H40   H     H_    0.233510 0.280458 0.374177 0.234845
N7    N     N_2   0.290371 0.853065 0.332740 -0.300149
H41   H     H_    0.325035 0.874883 0.310791 0.219406
C159  C     C_3   0.292612 0.786471 0.332104 -0.746263
H42   H     H_    0.339519 0.770691 0.320674 0.218365
H43   H     H_    0.259837 0.768917 0.299967 0.255980
H44   H     H_    0.280409 0.766535 0.374114 0.234823
N8    N     N_2   0.852996 0.709617 0.332785 -0.300146
H45   H     H_    0.874808 0.674962 0.310820 0.219422
C160  C     C_3   0.786402 0.707355 0.332188 -0.746301
H46   H     H_    0.770626 0.660451 0.320746 0.218376
H47   H     H_    0.768817 0.740144 0.300079 0.255970
H48   H     H_    0.766494 0.719529 0.374217 0.234827
N9    N     N_2   0.790373 0.647004 0.167214 -0.300144
H49   H     H_    0.825025 0.625190 0.189179 0.219427
C161  C     C_3   0.792633 0.713597 0.167819 -0.746292
H50   H     H_    0.839538 0.729372 0.179262 0.218374
H51   H     H_    0.759845 0.731179 0.199933 0.255964
H52   H     H_    0.780460 0.733510 0.125794 0.234830
N10   N     N_2   0.352905 0.790373 0.167158 -0.300138
H53   H     H_    0.374710 0.825022 0.189137 0.219434
C162  C     C_3   0.286312 0.792638 0.167722 -0.746315
H54   H     H_    0.270534 0.839540 0.179170 0.218383
H55   H     H_    0.268703 0.759839 0.199813 0.255954
H56   H     H_    0.266428 0.780480 0.125679 0.234819
N11   N     N_2   0.209641 0.352927 0.167155 -0.300139
H57   H     H_    0.175007 0.374748 0.189141 0.219440
C163  C     C_3   0.207357 0.286335 0.167741 -0.746331
H58   H     H_    0.160444 0.270573 0.179170 0.218369
H59   H     H_    0.240131 0.268733 0.199856 0.255942
H60   H     H_    0.219534 0.266430 0.125712 0.234849
N12   N     N_2   0.646746 0.209618 0.167384 -0.300168
H61   H     H_    0.624917 0.174932 0.189294 0.219380
C164  C     C_3   0.713340 0.207405 0.168089 -0.746247
H62   H     H_    0.729126 0.160510 0.179550 0.218388
H63   H     H_    0.730840 0.240202 0.200232 0.256043
H64   H     H_    0.733322 0.219599 0.126095 0.234782
N13   N     N_2   0.209644 0.647145 0.832885 -0.300133
H65   H     H_    0.175000 0.625345 0.810894 0.219451
C165  C     C_3   0.207374 0.713738 0.832343 -0.746340
H66   H     H_    0.160478 0.729516 0.820878 0.218407
H67   H     H_    0.240192 0.731362 0.800274 0.255942
H68   H     H_    0.219506 0.733607 0.874398 0.234810
N14   N     N_2   0.647012 0.790357 0.832801 -0.300142
H69   H     H_    0.625186 0.824996 0.810828 0.219438
C166  C     C_3   0.713605 0.792631 0.832183 -0.746344
H70   H     H_    0.729367 0.839542 0.820749 0.218365
H71   H     H_    0.731185 0.759856 0.800059 0.255961
H72   H     H_    0.733530 0.780452 0.874202 0.234851
N15   N     N_2   0.790384 0.353134 0.832690 -0.300136
H73   H     H_    0.825064 0.374945 0.810758 0.219377
C167  C     C_3   0.792606 0.286540 0.832044 -0.746208
H74   H     H_    0.839508 0.270748 0.820614 0.218361
H75   H     H_    0.759827 0.268999 0.799904 0.255990
H76   H     H_    0.780396 0.266600 0.874050 0.234787
N16   N     N_2   0.353045 0.209611 0.832749 -0.300149
H77   H     H_    0.374862 0.174952 0.810794 0.219410
C168  C     C_3   0.286452 0.207356 0.832132 -0.746279
H78   H     H_    0.270676 0.160449 0.820697 0.218364
H79   H     H_    0.268881 0.240135 0.800007 0.255978
H80   H     H_    0.266528 0.219544 0.874150 0.234831
N17   N     N_2   0.370304 0.918767 0.404707 -0.271192
H81   H     H_    0.382416 0.944109 0.369466 0.197592
C169  C     C_3   0.399510 0.858466 0.408202 -0.644123
H82   H     H_    0.438682 0.859376 0.438028 0.258674
H83   H     H_    0.416901 0.844332 0.365814 0.198343
H84   H     H_    0.367813 0.822669 0.424744 0.213155
N18   N     N_2   0.081237 0.370301 0.404709 -0.271199
H85   H     H_    0.055894 0.382399 0.369466 0.197590
C170  C     C_3   0.141531 0.399525 0.408203 -0.644116
H86   H     H_    0.140616 0.438698 0.438028 0.258689
H87   H     H_    0.155662 0.416916 0.365814 0.198343
H88   H     H_    0.177336 0.367841 0.424748 0.213151
N19   N     N_2   0.629710 0.081314 0.404745 -0.271201
H89   H     H_    0.617622 0.056004 0.369477 0.197603
C171  C     C_3   0.600472 0.141597 0.408291 -0.644119
H90   H     H_    0.561263 0.140629 0.438074 0.258692
H91   H     H_    0.583126 0.155788 0.365904 0.198313
H92   H     H_    0.632133 0.177381 0.424916 0.213159
N20   N     N_2   0.918751 0.629691 0.404712 -0.271198
H93   H     H_    0.944078 0.617582 0.369461 0.197597
C172  C     C_3   0.858453 0.600478 0.408230 -0.644098
H94   H     H_    0.859378 0.561298 0.438047 0.258676
H95   H     H_    0.844297 0.583095 0.365845 0.198335
H96   H     H_    0.822664 0.632166 0.424797 0.213149
N21   N     N_2   0.629700 0.918734 0.595276 -0.271194
H97   H     H_    0.617610 0.944069 0.630529 0.197594
C173  C     C_3   0.600464 0.858446 0.591768 -0.644125
H98   H     H_    0.561284 0.859379 0.561953 0.258692
H99   H     H_    0.583080 0.844303 0.634156 0.198330
H100  H     H_    0.632138 0.822643 0.575203 0.213162
N22   N     N_2   0.918710 0.370302 0.595268 -0.271198
H101  H     H_    0.944024 0.382402 0.630529 0.197601
C174  C     C_3   0.858420 0.399525 0.591731 -0.644108
H102  H     H_    0.859371 0.438721 0.561935 0.258683
H103  H     H_    0.844240 0.416887 0.634116 0.198320
H104  H     H_    0.822637 0.367849 0.575130 0.213153
N23   N     N_2   0.370300 0.081266 0.595279 -0.271199
H105  H     H_    0.382396 0.055940 0.630533 0.197597
C175  C     C_3   0.399527 0.141558 0.591762 -0.644118
H106  H     H_    0.438713 0.140622 0.561952 0.258685
H107  H     H_    0.416903 0.155716 0.634149 0.198330
H108  H     H_    0.367850 0.177352 0.575186 0.213156
N24   N     N_2   0.081196 0.629690 0.595307 -0.271189
H109  H     H_    0.055844 0.617568 0.630539 0.197585
C176  C     C_3   0.141504 0.600498 0.591826 -0.644105
H110  H     H_    0.140620 0.561342 0.561980 0.258667
H111  H     H_    0.155616 0.583086 0.634213 0.198357
H112  H     H_    0.177306 0.632210 0.575319 0.213146
N25   N     N_2   0.870310 0.418777 0.904704 -0.271180
H113  H     H_    0.882440 0.444113 0.869465 0.197592
C177  C     C_3   0.899493 0.358466 0.908205 -0.644099
H114  H     H_    0.938673 0.359369 0.938024 0.258656
H115  H     H_    0.916873 0.344317 0.865817 0.198340
H116  H     H_    0.867785 0.322684 0.924756 0.213149
N26   N     N_2   0.581238 0.870297 0.904709 -0.271209
H117  H     H_    0.555890 0.882386 0.869466 0.197586
C178  C     C_3   0.641529 0.899531 0.908197 -0.644139
H118  H     H_    0.640613 0.938698 0.938028 0.258700
H119  H     H_    0.655647 0.916931 0.865807 0.198346
H120  H     H_    0.677342 0.867851 0.924731 0.213162
N27   N     N_2   0.129707 0.581299 0.904738 -0.271199
H121  H     H_    0.117615 0.555983 0.869475 0.197602
C179  C     C_3   0.100475 0.641585 0.908275 -0.644119
H122  H     H_    0.061273 0.640628 0.938066 0.258689
H123  H     H_    0.083120 0.655766 0.865888 0.198320
H124  H     H_    0.132142 0.677372 0.924884 0.213157
N28   N     N_2   0.418767 0.129687 0.904705 -0.271196
H125  H     H_    0.444097 0.117572 0.869457 0.197597
C180  C     C_3   0.358464 0.100483 0.908216 -0.644093
H126  H     H_    0.359378 0.061309 0.938039 0.258671
H127  H     H_    0.344315 0.083094 0.865832 0.198338
H128  H     H_    0.322675 0.132179 0.924771 0.213147
N29   N     N_2   0.129701 0.418733 0.095277 -0.271197
H129  H     H_    0.117613 0.444071 0.130529 0.197591
C181  C     C_3   0.100466 0.358446 0.091770 -0.644127
H130  H     H_    0.061283 0.359379 0.061958 0.258692
H131  H     H_    0.083086 0.344303 0.134159 0.198336
H132  H     H_    0.132139 0.322644 0.075200 0.213164
N30   N     N_2   0.418716 0.870302 0.095272 -0.271199
H133  H     H_    0.444034 0.882402 0.130530 0.197599
C182  C     C_3   0.358425 0.899525 0.091741 -0.644111
H134  H     H_    0.359371 0.938717 0.061940 0.258683
H135  H     H_    0.344252 0.916891 0.134126 0.198324
H136  H     H_    0.322639 0.867847 0.075147 0.213155
N31   N     N_2   0.870305 0.581246 0.095288 -0.271197
H137  H     H_    0.882409 0.555917 0.130538 0.197596
C183  C     C_3   0.899521 0.641543 0.091778 -0.644108
H138  H     H_    0.938700 0.640621 0.061960 0.258679
H139  H     H_    0.916904 0.655693 0.134164 0.198334
H140  H     H_    0.867834 0.677337 0.075217 0.213151
N32   N     N_2   0.581165 0.129689 0.095321 -0.271195
H141  H     H_    0.555802 0.117559 0.130542 0.197579
C184  C     C_3   0.641480 0.100506 0.091860 -0.644108
H142  H     H_    0.640616 0.061362 0.061999 0.258662
H143  H     H_    0.655571 0.083079 0.134248 0.198371
H144  H     H_    0.677289 0.132229 0.075382 0.213142
N33   N     N_2   0.168408 0.831585 0.368269 -0.289389
H145  H     H_    0.136325 0.809737 0.393441 0.223789
C185  C     C_3   0.140981 0.857543 0.317717 -0.762780
H146  H     H_    0.114169 0.821593 0.295269 0.229371
H147  H     H_    0.176984 0.874765 0.288326 0.252913
H148  H     H_    0.109586 0.895820 0.329294 0.236077
N34   N     N_2   0.168549 0.168441 0.368396 -0.289415
H149  H     H_    0.190404 0.136404 0.393611 0.223799
C186  C     C_3   0.142679 0.140939 0.317839 -0.762784
H150  H     H_    0.178684 0.114151 0.295444 0.229375
H151  H     H_    0.125451 0.176897 0.288407 0.252929
H152  H     H_    0.104425 0.109508 0.329401 0.236098
N35   N     N_2   0.831577 0.168679 0.368534 -0.289402
H153  H     H_    0.863621 0.190499 0.393769 0.223820
C187  C     C_3   0.859066 0.142873 0.317944 -0.762808
H154  H     H_    0.885855 0.178905 0.295586 0.229393
H155  H     H_    0.823101 0.125686 0.288497 0.252916
H156  H     H_    0.890495 0.104602 0.329456 0.236112
N36   N     N_2   0.831476 0.831558 0.368364 -0.289410
H157  H     H_    0.809634 0.863613 0.393571 0.223801
C188  C     C_3   0.857346 0.859028 0.317793 -0.762806
H158  H     H_    0.821345 0.885818 0.295395 0.229378
H159  H     H_    0.874556 0.823051 0.288370 0.252927
H160  H     H_    0.895613 0.890451 0.329336 0.236090
N37   N     N_2   0.831556 0.831379 0.631525 -0.289414
H161  H     H_    0.863595 0.809541 0.606298 0.223805
C189  C     C_3   0.859053 0.857209 0.682102 -0.762763
H162  H     H_    0.885838 0.821186 0.704473 0.229378
H163  H     H_    0.823093 0.874414 0.711544 0.252933
H164  H     H_    0.890486 0.895471 0.670568 0.236098
N38   N     N_2   0.831402 0.168431 0.631565 -0.289402
H165  H     H_    0.809577 0.136373 0.606349 0.223814
C190  C     C_3   0.857242 0.140967 0.682151 -0.762820
H166  H     H_    0.821228 0.114177 0.704534 0.229387
H167  H     H_    0.874435 0.176947 0.711580 0.252922
H168  H     H_    0.895516 0.109545 0.670629 0.236093
N39   N     N_2   0.168435 0.168586 0.631566 -0.289413
H169  H     H_    0.136392 0.190425 0.606347 0.223806
C191  C     C_3   0.140946 0.142740 0.682139 -0.762786
H170  H     H_    0.114155 0.178753 0.704520 0.229380
H171  H     H_    0.176912 0.125536 0.711575 0.252925
H172  H     H_    0.109521 0.104473 0.670600 0.236103
N40   N     N_2   0.168308 0.831595 0.631839 -0.289383
H173  H     H_    0.190167 0.863694 0.606692 0.223784
C192  C     C_3   0.142297 0.858997 0.682380 -0.762795
H174  H     H_    0.178219 0.885807 0.704868 0.229363
H175  H     H_    0.125053 0.822980 0.711745 0.252908
H176  H     H_    0.104024 0.890388 0.670786 0.236061
N41   N     N_2   0.668388 0.331726 0.868134 -0.289362
H177  H     H_    0.636270 0.309878 0.893266 0.223779
C193  C     C_3   0.641018 0.357769 0.817592 -0.762785
H178  H     H_    0.614199 0.321867 0.795087 0.229368
H179  H     H_    0.677055 0.375005 0.788244 0.252891
H180  H     H_    0.609642 0.396054 0.829191 0.236051
N42   N     N_2   0.668576 0.668438 0.868430 -0.289415
H181  H     H_    0.690432 0.636408 0.893652 0.223799
C194  C     C_3   0.642715 0.640924 0.817875 -0.762772
H182  H     H_    0.678727 0.614136 0.795488 0.229374
H183  H     H_    0.625487 0.676875 0.788435 0.252928
H184  H     H_    0.604464 0.609491 0.829437 0.236101
N43   N     N_2   0.331576 0.668642 0.868493 -0.289404
H185  H     H_    0.363623 0.690468 0.893720 0.223814
C195  C     C_3   0.359061 0.642815 0.817909 -0.762804
H186  H     H_    0.385855 0.678837 0.795541 0.229387
H187  H     H_    0.323093 0.625623 0.788468 0.252921
H188  H     H_    0.390485 0.604544 0.829433 0.236107
N44   N     N_2   0.331521 0.331557 0.868315 -0.289413
H189  H     H_    0.309671 0.363614 0.893513 0.223796
C196  C     C_3   0.357411 0.359023 0.817750 -0.762804
H190  H     H_    0.321419 0.385813 0.795340 0.229374
H191  H     H_    0.374629 0.323043 0.788334 0.252926
H192  H     H_    0.395674 0.390445 0.829303 0.236086
N45   N     N_2   0.331558 0.331374 0.131516 -0.289410
H193  H     H_    0.363588 0.309528 0.106285 0.223803
C197  C     C_3   0.359072 0.357209 0.182083 -0.762761
H194  H     H_    0.385857 0.321185 0.204455 0.229377
H195  H     H_    0.323121 0.374425 0.211530 0.252923
H196  H     H_    0.390508 0.395463 0.170538 0.236102
N46   N     N_2   0.331404 0.668434 0.131569 -0.289404
H197  H     H_    0.309573 0.636379 0.106352 0.223809
C198  C     C_3   0.357246 0.640962 0.182150 -0.762811
H198  H     H_    0.321231 0.614173 0.204533 0.229384
H199  H     H_    0.374443 0.676938 0.211581 0.252926
H200  H     H_    0.395516 0.609538 0.170623 0.236094
N47   N     N_2   0.668436 0.668531 0.131625 -0.289414
H201  H     H_    0.636389 0.690378 0.106416 0.223801
C199  C     C_3   0.640954 0.642659 0.182190 -0.762788
H202  H     H_    0.614162 0.678661 0.204587 0.229376
H203  H     H_    0.676923 0.625444 0.211617 0.252924
H204  H     H_    0.609529 0.604397 0.170639 0.236097
N48   N     N_2   0.668200 0.331610 0.131940 -0.289374
H205  H     H_    0.690063 0.363730 0.106820 0.223777
C200  C     C_3   0.642124 0.358979 0.182469 -0.762820
H206  H     H_    0.678011 0.385799 0.204995 0.229360
H207  H     H_    0.624871 0.322941 0.211808 0.252904
H208  H     H_    0.603845 0.390353 0.170853 0.236053

loop_
_geom_bond_atom_site_label_1
_geom_bond_atom_site_label_2
_ccdc_geom_bond_type
N34   H149  S    
C157  H35   S    
C174  H102  S    
C5    C37   S    
C183  H139  S    
N2    C154  S    
N39   H169  S    
C30   C45   S    
C197  H194  S    
C191  H170  S    
C179  H124  S    
C117  C133  A    
C22   C150  A    
N19   H89   S    
C165  H67   S    
C170  H86   S    
O33   Zn9   S    
N30   C182  S    
C12   C36   A    
N29   C181  S    
C20   C40   A    
C46   O42   A    
C199  H203  S    
C130  C146  A    
N8    H45   S    
C22   C38   A    
C160  H48   S    
C62   C70   T    
O47   Zn12  S    
N43   C195  S    
C88   C104  A    
C55   O31   A    
C163  H58   S    
C112  N40   S    
N46   C198  S    
O38   Zn10  S    
C45   O45   A    
C28   C144  A    
C129  C145  A    
C99   N13   S    
O26   Zn6   S    
C176  H112  S    
C31   C147  A    
C2    C34   S    
C177  H115  S    
C82   C98   A    
C108  C124  A    
C18   C82   A    
C77   N21   S    
C136  C152  A    
O21   Zn1   S    
O34   Zn9   S    
C56   O30   A    
C54   O28   A    
O13   Zn5   S    
N40   H173  S    
C84   C100  A    
C91   C107  A    
C92   N8    S    
C188  H160  S    
N41   H177  S    
C16   C80   A    
C190  H168  S    
C189  H163  S    
N1    H17   S    
N42   C194  S    
C8    O12   A    
C165  H66   S    
N38   C190  S    
C173  H99   S    
O37   Zn10  S    
N44   C196  S    
C127  C143  A    
C172  H96   S    
C128  C144  A    
O28   Zn8   S    
C87   C103  A    
C63   C71   T    
C174  H104  S    
N45   C197  S    
C178  H118  S    
C32   C47   S    
O6    Zn4   S    
C179  H122  S    
O35   Zn9   S    
C158  H39   S    
C170  H88   S    
C181  H131  S    
C16   C144  A    
C98   N14   S    
C102  N10   S    
C109  N37   S    
N6    C158  S    
C177  H114  S    
C180  H126  S    
C114  C130  A    
C74   C90   A    
C11   C35   A    
C18   C38   A    
O32   Zn6   S    
C194  H183  S    
O45   Zn12  S    
C182  H134  S    
C99   C115  A    
C56   C64   S    
C55   O29   A    
C78   C94   A    
C27   C141  A    
O12   Zn8   S    
C153  H20   S    
C161  H51   S    
N37   H161  S    
C45   O41   A    
C98   C114  A    
C198  H199  S    
C195  H188  S    
C162  H55   S    
C168  H78   S    
C7    C39   S    
C75   N19   S    
C10   C138  A    
N14   C166  S    
O36   Zn9   S    
O20   Zn4   S    
C56   O32   A    
C73   N17   S    
N4    C156  S    
C14   C142  A    
N21   H97   S    
C54   O26   A    
C47   O43   A    
C173  H98   S    
C50   O20   A    
C192  H176  S    
C173  H100  S    
N12   C164  S    
C186  H150  S    
C104  N12   S    
N34   C186  S    
C156  H30   S    
O48   Zn12  S    
C6    O14   A    
C163  H59   S    
C13   C35   A    
O29   Zn5   S    
N36   C188  S    
C158  H38   S    
C159  H44   S    
N15   C167  S    
C181  H130  S    
C123  C139  A    
C82   N26   S    
C49   C57   S    
C118  N46   S    
N3    H25   S    
C121  C137  A    
N17   C169  S    
C52   C60   S    
C108  N36   S    
C59   C67   T    
O44   Zn11  S    
C53   C61   S    
C92   C108  A    
C15   C79   A    
C125  C141  A    
C31   C46   S    
C55   C63   S    
C178  H120  S    
N32   C184  S    
C131  C147  A    
C113  N41   S    
C96   N4    S    
O4    Zn4   S    
C75   C91   A    
C130  H10   S    
N9    H49   S    
C164  H63   S    
C19   C83   A    
C80   N24   S    
C184  H143  S    
C105  N33   S    
N11   H57   S    
C170  H87   S    
C166  H71   S    
C180  H128  S    
N47   C199  S    
C7    O13   A    
C7    O11   A    
C95   C111  A    
C48   O44   A    
C10   C34   A    
C182  H136  S    
C169  H83   S    
C91   N5    S    
C27   C139  A    
C200  H207  S    
C25   C137  A    
C29   C151  A    
N7    C159  S    
C106  N34   S    
O39   Zn10  S    
C195  H186  S    
C116  C132  A    
C124  H4    S    
C3    C35   S    
C114  N42   S    
C175  H106  S    
C168  H80   S    
C86   N30   S    
C106  C122  A    
C12   C140  A    
N43   H185  S    
C129  H9    S    
C196  H191  S    
C110  C126  A    
C15   C143  A    
N22   C174  S    
C20   C84   A    
C175  H108  S    
C42   O34   A    
C172  H95   S    
N48   H205  S    
C50   O18   A    
C51   O23   A    
C79   N23   S    
C88   N32   S    
N28   C180  S    
N22   H101  S    
C1    O7    A    
C167  H76   S    
C4    O4    A    
C179  H123  S    
O22   Zn4   S    
C14   C34   A    
C158  H40   S    
C159  H42   S    
C83   N27   S    
C65   C72   S    
C8    C40   S    
O14   Zn8   S    
C67   C70   S    
N9    C161  S    
N31   H137  S    
C117  N45   S    
C93   N3    S    
N29   H129  S    
C16   C36   A    
C111  C127  A    
C27   C42   S    
C20   C148  A    
C155  H28   S    
C192  H175  S    
C197  H196  S    
C89   N7    S    
C100  N16   S    
C74   N18   S    
N38   H165  S    
C171  H92   S    
C49   O17   A    
O15   Zn7   S    
C198  H200  S    
C89   C105  A    
N44   H189  S    
C44   O36   A    
C135  H15   S    
C83   C99   A    
C188  H159  S    
C187  H155  S    
O3    Zn3   S    
N6    H37   S    
C93   C109  A    
C176  H111  S    
C86   C102  A    
C167  H75   S    
O1    Zn1   S    
C127  H7    S    
C53   O25   A    
C100  C116  A    
C107  C123  A    
N16   C168  S    
C85   C101  A    
N26   H117  S    
C185  H147  S    
C123  H3    S    
N23   C175  S    
N33   H145  S    
C121  H1    S    
N25   C177  S    
C116  N44   S    
C29   C145  A    
C31   C149  A    
C125  H5    S    
C94   N2    S    
C177  H116  S    
C155  H26   S    
N8    C160  S    
C164  H62   S    
C190  H167  S    
C11   C139  A    
C24   C152  A    
C9    C137  A    
N30   H133  S    
C68   C69   S    
N35   C187  S    
C47   O47   A    
N2    H21   S    
C134  H14   S    
C42   O40   A    
C13   C141  A    
C185  H148  S    
C32   C152  A    
C51   O21   A    
O25   Zn5   S    
C157  H36   S    
C167  H74   S    
C174  H103  S    
O8    Zn2   S    
N45   H193  S    
C6    O10   A    
C183  H140  S    
C9    C33   A    
N39   C191  S    
C90   N6    S    
N19   C171  S    
C165  H68   S    
C48   O46   A    
N13   C165  S    
C21   C85   A    
C43   O39   A    
N14   H69   S    
C50   C58   S    
C199  H202  S    
C122  C138  A    
C78   N22   S    
C199  H204  S    
C115  C131  A    
C54   C62   S    
C126  C142  A    
C119  C135  A    
C189  H162  S    
C120  C136  A    
C80   C96   A    
C17   C145  A    
N36   H157  S    
C132  H12   S    
C84   N28   S    
C79   C95   A    
C162  H54   S    
C133  H13   S    
C191  H171  S    
C171  H90   S    
C49   O19   A    
C131  H11   S    
O18   Zn2   S    
C44   O38   A    
N24   C176  S    
C52   O22   A    
C24   C88   A    
C90   C106  A    
C113  C129  A    
C2    O2    A    
C195  H187  S    
C122  H2    S    
C46   O48   A    
C12   C76   A    
C53   O27   A    
O31   Zn7   S    
C41   O33   A    
C81   N25   S    
N12   H61   S    
C186  H152  S    
N27   H121  S    
C24   C40   A    
N27   C179  S    
C124  C140  A    
N13   H65   S    
C95   N1    S    
C57   C65   T    
C26   C138  A    
C87   N31   S    
C32   C148  A    
C162  H56   S    
C28   C43   S    
C101  C117  A    
C193  H179  S    
C189  H164  S    
C73   C89   A    
C169  H82   S    
N1    C153  S    
N18   H85   S    
C23   C37   A    
C159  H43   S    
N15   H73   S    
N5    H33   S    
N20   C172  S    
C135  C151  A    
C77   C93   A    
C94   C110  A    
C17   C81   A    
C22   C86   A    
N17   H81   S    
C19   C147  A    
C112  C128  A    
N16   H77   S    
C60   C68   T    
C4    O8    A    
C85   N29   S    
C183  H138  S    
C178  H119  S    
C11   C75   A    
O41   Zn11  S    
C5    O15   A    
C107  N35   S    
C104  C120  A    
C181  H132  S    
N20   H93   S    
N48   C200  S    
N10   C162  S    
O42   Zn11  S    
O30   Zn8   S    
N24   H109  S    
C28   C140  A    
O24   Zn2   S    
C193  H178  S    
C184  H142  S    
C1    C33   S    
N28   H125  S    
O19   Zn3   S    
C166  H70   S    
O16   Zn6   S    
C96   C112  A    
C76   N20   S    
N47   H201  S    
C194  H182  S    
O17   Zn1   S    
C194  H184  S    
C182  H135  S    
C101  N11   S    
N26   C178  S    
N46   H197  S    
C134  C150  A    
C154  H23   S    
C200  H206  S    
C52   O24   A    
C161  H52   S    
N37   C189  S    
C160  H47   S    
C3    O5    A    
C66   C71   S    
C155  H27   S    
N31   C183  S    
O5    Zn1   S    
C196  H190  S    
C102  C118  A    
C187  H156  S    
O40   Zn10  S    
C8    O16   A    
C14   C78   A    
C120  N48   S    
N21   C173  S    
C23   C87   A    
C97   N15   S    
C175  H107  S    
C111  N39   S    
C25   C143  A    
C9    C73   A    
C25   C44   S    
C58   C66   T    
C30   C146  A    
C186  H151  S    
C191  H172  S    
C13   C77   A    
C156  H31   S    
C29   C48   S    
C132  C148  A    
C163  H60   S    
C133  C149  A    
C4    C36   S    
C153  H19   S    
C193  H180  S    
O23   Zn3   S    
C185  H146  S    
N5    C157  S    
C136  H16   S    
C168  H79   S    
O11   Zn7   S    
N3    C155  S    
N42   H181  S    
N32   H141  S    
C21   C39   A    
C161  H50   S    
C6    C38   S    
C192  H174  S    
C105  C121  A    
C197  H195  S    
C17   C37   A    
N18   C170  S    
C5    O9    A    
C19   C39   A    
C76   C92   A    
C109  C125  A    
C171  H91   S    
C115  N43   S    
C21   C149  A    
C119  N47   S    
C43   O35   A    
C164  H64   S    
C154  H24   S    
C51   C59   S    
C103  N9    S    
C97   C113  A    
C157  H34   S    
C180  H127  S    
N10   H53   S    
C184  H144  S    
O46   Zn12  S    
C128  H8    S    
C176  H110  S    
N7    H41   S    
C166  H72   S    
C61   C69   T    
C110  N38   S    
C23   C151  A    
C30   C150  A    
O7    Zn3   S    
C103  C119  A    
C18   C146  A    
C118  C134  A    
C169  H84   S    
N4    H29   S    
N23   H105  S    
C200  H208  S    
O9    Zn5   S    
N41   C193  S    
C26   C142  A    
N25   H113  S    
C2    O6    A    
O27   Zn7   S    
C10   C74   A    
C3    O3    A    
C188  H158  S    
C81   C97   A    
C1    O1    A    
N11   C163  S    
C64   C72   T    
C41   O37   A    
C190  H166  S    
C196  H192  S    
C154  H22   S    
C156  H32   S    
C187  H154  S    
C126  H6    S    
N33   C185  S    
N35   H153  S    
C153  H18   S    
N40   C192  S    
O10   Zn6   S    
O43   Zn11  S    
C172  H94   S    
C198  H198  S    
C15   C33   A    
C26   C41   S    
O2    Zn2   S    
C160  H46   S    
