data_mof_unit_6792.cif
_audit_creation_date              2012-12-10T20:41:47-0500
_audit_creation_method            fapswitch 2.2
_symmetry_space_group_name_H-M    P1
_symmetry_Int_Tables_number       1
_space_group_crystal_system       triclinic
_cell_length_a                    14.696565
_cell_length_b                    15.839916
_cell_length_c                    10.072803
_cell_angle_alpha                 89.996117
_cell_angle_beta                  89.15067
_cell_angle_gamma                 90.001306
_cell_volume                      2344.61390121

loop_
_atom_site_label
_atom_site_type_symbol
_atom_type_description
_atom_site_fract_x
_atom_site_fract_y
_atom_site_fract_z
_atom_type_partial_charge
C1    C     C_R   0.382484 0.878278 0.499872 0.915391
C2    C     C_R   0.384574 0.123407 0.500201 0.954142
C3    C     C_R   0.884412 0.376715 0.500201 0.952918
C4    C     C_R   0.882623 0.621814 0.499854 0.912124
C5    C     C_3   0.253173 0.185845 0.732313 -0.415583
C6    C     C_3   0.257803 0.810550 0.732663 -0.407904
C7    C     C_3   0.758847 0.690121 0.733030 -0.381158
C8    C     C_3   0.752544 0.314396 0.732320 -0.413536
C9    C     C_R   0.427233 0.032477 0.072438 -0.063817
C10   C     C_R   0.927290 0.467383 0.072419 -0.065034
C11   C     C_R   0.571530 0.970297 0.070144 -0.121892
C12   C     C_R   0.071439 0.529891 0.070151 -0.108851
C13   C     C_R   0.570164 0.968621 0.928610 0.090175
C14   C     C_R   0.070072 0.531559 0.928624 0.098485
C15   C     C_R   0.428201 0.031606 0.930114 0.154106
C16   C     C_R   0.928230 0.468367 0.930082 0.154812
C17   C     C_3   0.337455 0.991148 0.932049 0.581174
C18   C     C_3   0.837555 0.508925 0.932056 0.578939
C19   C     C_3   0.325641 0.010176 0.079423 0.485759
C20   C     C_3   0.825636 0.489529 0.079298 0.477731
C21   C     C_R   0.623293 0.116592 0.499644 0.921659
C22   C     C_R   0.622340 0.883205 0.499165 0.877031
C23   C     C_R   0.122271 0.616845 0.499160 0.884603
C24   C     C_R   0.123223 0.383315 0.499654 0.914078
C25   C     C_R   0.294663 0.230575 0.618184 0.022843
C26   C     C_R   0.245704 0.809942 0.588413 -0.007589
C27   C     C_R   0.746365 0.690517 0.588857 -0.061355
C28   C     C_R   0.794096 0.269836 0.618076 -0.027646
C29   C     C_R   0.332861 0.201177 0.500981 -0.039795
C30   C     C_R   0.316884 0.810808 0.496658 -0.030995
C31   C     C_R   0.817204 0.689410 0.496664 -0.004143
C32   C     C_R   0.832426 0.299149 0.500932 -0.088305
C33   C     C_R   0.321050 0.250032 0.385986 -0.062678
C34   C     C_R   0.324151 0.746038 0.402061 -0.046814
C35   C     C_R   0.824262 0.754035 0.401761 -0.033462
C36   C     C_R   0.820932 0.250098 0.386064 -0.091150
C37   C     C_R   0.758309 0.817041 0.397908 -0.091840
C38   C     C_R   0.753244 0.187714 0.384668 -0.176178
C39   C     C_R   0.253171 0.312237 0.384595 -0.170074
C40   C     C_R   0.258231 0.683031 0.398155 -0.103515
C41   C     C_R   0.691055 0.819840 0.497783 -0.055946
C42   C     C_R   0.701414 0.171718 0.500843 -0.113972
C43   C     C_R   0.201397 0.328222 0.500842 -0.088509
C44   C     C_R   0.190769 0.680373 0.497725 -0.092507
C45   C     C_R   0.688398 0.758863 0.596148 -0.073790
C46   C     C_R   0.731486 0.206211 0.619996 0.020772
C47   C     C_R   0.231715 0.293961 0.620061 0.032881
C48   C     C_R   0.187757 0.741544 0.595783 0.016272
C49   C     C_3   0.704027 0.769603 0.742451 0.618345
C50   C     C_3   0.687064 0.240599 0.744400 0.631393
C51   C     C_3   0.187374 0.259353 0.744423 0.653725
C52   C     C_3   0.203196 0.730955 0.742173 0.585915
H1    H     H_    0.358715 0.235963 0.295862 0.229238
H2    H     H_    0.382168 0.742475 0.335091 0.185922
H3    H     H_    0.882117 0.757474 0.334478 0.180961
H4    H     H_    0.858778 0.264063 0.296062 0.235465
H5    H     H_    0.762627 0.865659 0.322414 0.166104
H6    H     H_    0.738823 0.155664 0.292417 0.191408
H7    H     H_    0.238540 0.344129 0.292275 0.192138
H8    H     H_    0.262762 0.634267 0.322926 0.173794
H9    H     H_    0.302084 0.179078 0.814288 0.290600
H10   H     H_    0.330252 0.801735 0.756412 0.279612
H11   H     H_    0.831330 0.698930 0.756654 0.293079
H12   H     H_    0.801513 0.321224 0.814202 0.298435
H13   H     H_    0.220242 0.127136 0.696627 0.243242
H14   H     H_    0.224101 0.867245 0.773572 0.280911
H15   H     H_    0.725296 0.633439 0.774158 0.254334
H16   H     H_    0.719409 0.373068 0.696962 0.219331
H17   H     H_    0.629918 0.945216 0.120993 0.191522
H18   H     H_    0.129747 0.555130 0.121001 0.200922
H19   H     H_    0.626222 0.940963 0.876760 0.240446
H20   H     H_    0.126051 0.559375 0.876829 0.247666
N1    N     N_R   0.499140 0.000000 0.142800 -0.153352
N2    N     N_R   0.999140 0.500000 0.142800 -0.158413
N3    N     N_R   0.499160 0.000000 0.857150 -0.113437
N4    N     N_R   0.999160 0.500000 0.857150 -0.118731
O1    O     O_R   0.408400 0.908380 0.614690 -0.575825
O2    O     O_R   0.408400 0.091620 0.614690 -0.571884
O3    O     O_R   0.908400 0.408380 0.614690 -0.570472
O4    O     O_R   0.908400 0.591620 0.614690 -0.574947
O5    O     O_R   0.408370 0.908370 0.385350 -0.590263
O6    O     O_R   0.408370 0.091630 0.385350 -0.581219
O7    O     O_R   0.908370 0.408370 0.385350 -0.577665
O8    O     O_R   0.908370 0.591630 0.385350 -0.594437
O9    O     O_R   0.591610 0.091610 0.614650 -0.547510
O10   O     O_R   0.591610 0.908390 0.614650 -0.566326
O11   O     O_R   0.091610 0.591610 0.614650 -0.568946
O12   O     O_R   0.091610 0.408390 0.614650 -0.552694
O13   O     O_R   0.591590 0.091600 0.385310 -0.642731
O14   O     O_R   0.591590 0.908400 0.385310 -0.647860
O15   O     O_R   0.091590 0.591600 0.385310 -0.646190
O16   O     O_R   0.091590 0.408400 0.385310 -0.641407
Zn1   Zn    Zn3+2 0.500010 0.000000 0.653130 1.127161
Zn2   Zn    Zn3+2 0.000010 0.500000 0.653130 1.124888
Zn3   Zn    Zn3+2 0.499980 1.000000 0.346870 1.015960
Zn4   Zn    Zn3+2 0.999980 0.500000 0.346870 1.015799
S1    S     S_3+6 0.256831 0.102447 0.114499 0.095590
O17   O     O_2   0.309314 0.180461 0.078212 -0.285481
O18   O     O_2   0.170255 0.100107 0.037096 -0.205306
O19   O     O_3   0.228349 0.105863 0.276512 -0.522706
H21   H     H_    0.174488 0.143371 0.282259 0.395373
S2    S     S_3+6 0.276210 0.919320 0.162120 0.115287
O20   O     O_2   0.248941 0.939470 0.302686 -0.231216
O21   O     O_2   0.190894 0.896845 0.089666 -0.187187
O22   O     O_3   0.345065 0.834675 0.155134 -0.556323
H22   H     H_    0.407965 0.856492 0.158968 0.345521
S3    S     S_3+6 0.775911 0.580075 0.162424 0.128967
O23   O     O_2   0.690289 0.602175 0.090443 -0.147048
O24   O     O_2   0.749118 0.559719 0.303112 -0.244778
O25   O     O_3   0.844266 0.665062 0.155183 -0.525840
H23   H     H_    0.907284 0.643555 0.159244 0.339946
S4    S     S_3+6 0.756998 0.397028 0.113714 0.098803
O26   O     O_2   0.670790 0.399013 0.035416 -0.197553
O27   O     O_2   0.809976 0.319192 0.078032 -0.283465
O28   O     O_3   0.727768 0.393538 0.275462 -0.531356
H24   H     H_    0.674103 0.355767 0.280713 0.385836
S5    S     S_3+6 0.778429 0.858070 0.785316 0.051507
O29   O     O_2   0.874216 0.841305 0.737778 -0.264577
O30   O     O_2   0.748806 0.938717 0.721014 -0.299725
O31   O     O_3   0.779805 0.870781 0.951035 -0.516027
H25   H     H_    0.814277 0.923654 0.965400 0.394117
S6    S     S_3+6 0.711057 0.174706 0.884670 0.107434
O32   O     O_2   0.693449 0.085405 0.845620 -0.313373
O33   O     O_2   0.809379 0.181230 0.922370 -0.220376
O34   O     O_3   0.644169 0.201306 0.015010 -0.457659
H26   H     H_    0.647500 0.152694 0.076571 0.360538
S7    S     S_3+6 0.210788 0.325254 0.884868 0.123458
O35   O     O_2   0.308972 0.318839 0.923327 -0.199604
O36   O     O_2   0.193177 0.414542 0.845694 -0.291081
O37   O     O_3   0.143472 0.298549 0.014696 -0.461238
H27   H     H_    0.146704 0.347058 0.076461 0.362794
S8    S     S_3+6 0.278007 0.642842 0.785320 0.066467
O38   O     O_2   0.248680 0.561801 0.722100 -0.257251
O39   O     O_2   0.373579 0.659318 0.736628 -0.283829
O40   O     O_3   0.280312 0.629964 0.950929 -0.488228
H28   H     H_    0.310956 0.681186 0.984723 0.406853
S9    S     S_3+6 0.602982 0.754248 0.845074 0.073892
O41   O     O_2   0.622462 0.776813 0.986647 -0.204511
O42   O     O_2   0.525589 0.807187 0.797177 -0.334272
O43   O     O_3   0.568970 0.652825 0.841344 -0.456183
H29   H     H_    0.556602 0.641100 0.746715 0.370743
S10   S     S_3+6 0.569433 0.272698 0.733613 0.095585
O44   O     O_2   0.508195 0.204413 0.787104 -0.213048
O45   O     O_2   0.554003 0.351066 0.814956 -0.179919
O46   O     O_3   0.541934 0.292982 0.575258 -0.593364
H30   H     H_    0.582228 0.340103 0.547513 0.353038
S11   S     S_3+6 0.070088 0.226548 0.733487 0.081909
O47   O     O_2   0.055478 0.149179 0.817497 -0.191249
O48   O     O_2   0.007881 0.295150 0.783440 -0.242581
O49   O     O_3   0.045099 0.203336 0.575215 -0.619064
H31   H     H_    0.983190 0.178692 0.579453 0.394348
S12   S     S_3+6 0.102164 0.746016 0.844834 0.051343
O50   O     O_2   0.025090 0.693041 0.796045 -0.315124
O51   O     O_2   0.121759 0.723286 0.986383 -0.281668
O52   O     O_3   0.068276 0.847470 0.839903 -0.497706
H32   H     H_    0.023261 0.853236 0.913522 0.424440
O53   O     O_3   0.275592 0.028857 0.847848 -0.743949
H33   H     H_    0.217189 0.998334 0.860204 0.394859
O54   O     O_3   0.345948 0.904896 0.904912 -0.759244
H34   H     H_    0.403292 0.881379 0.939875 0.353508
O55   O     O_3   0.846197 0.595262 0.905482 -0.749332
H35   H     H_    0.903648 0.618592 0.940378 0.353892
O56   O     O_3   0.775748 0.471511 0.847435 -0.746681
H36   H     H_    0.717360 0.502047 0.859885 0.391212

loop_
_geom_bond_atom_site_label_1
_geom_bond_atom_site_label_2
_ccdc_geom_bond_type
C15   N3    A    
O53   H33   S    
C40   H8    S    
C49   S9    S    
C11   C13   A    
C1    O1    A    
O56   H36   S    
C50   S6    S    
C3    O3    A    
S4    O27   D    
O55   H35   S    
C19   S1    S    
O14   Zn3   S    
C21   O13   A    
O31   H25   S    
S9    O42   D    
C28   C46   A    
C33   C39   A    
C2    C29   S    
C34   C40   A    
C32   C36   A    
C35   C37   A    
C38   C42   A    
C48   C52   S    
C12   N2    A    
S5    O30   D    
O46   H30   S    
O5    Zn3   S    
C19   S2    S    
C22   C41   S    
O2    Zn1   S    
C1    O5    A    
O28   H24   S    
O11   Zn2   S    
C29   C33   A    
O16   Zn4   S    
C7    C27   S    
S2    O22   S    
O8    Zn4   S    
O25   H23   S    
C1    C30   S    
S11   O47   D    
N4    Zn2   S    
O15   Zn4   S    
C20   S4    S    
O9    Zn1   S    
C9    C19   S    
C49   S5    S    
C13   N3    A    
C10   C20   S    
S8    O38   D    
S3    O23   D    
C51   S11   S    
C17   O53   S    
C25   C47   A    
C18   C20   S    
C26   C48   A    
C20   S3    S    
C27   C45   A    
O40   H28   S    
C23   O11   A    
C33   H1    S    
S3    O24   D    
S10   O46   S    
S6    O33   D    
C3    C32   S    
C9    N1    A    
C24   O16   A    
S4    O26   D    
S1    O18   D    
S1    O17   D    
C21   O9    A    
C18   O55   S    
C25   C29   A    
S9    O43   S    
O12   Zn2   S    
C30   C34   A    
C27   C31   A    
C52   S8    S    
N2    Zn4   S    
C28   C32   A    
S11   O49   S    
O43   H29   S    
C7    C49   S    
O3    Zn2   S    
C5    H13   S    
C11   N1    A    
S5    O31   S    
C39   C43   A    
C13   H19   S    
C35   H3    S    
C23   C44   S    
C14   N4    A    
O13   Zn3   S    
S7    O36   D    
C36   H4    S    
O10   Zn1   S    
C18   O56   S    
O54   H34   S    
C4    O8    A    
S12   O52   S    
C6    H14   S    
C52   S12   S    
C39   H7    S    
C45   C49   S    
C22   O14   A    
C5    H9    S    
C38   H6    S    
S2    O21   D    
C24   O12   A    
C7    H11   S    
C8    H12   S    
C5    C25   S    
C16   C18   S    
C12   C14   A    
C8    H16   S    
C42   C46   A    
O34   H26   S    
C8    C28   S    
S3    O25   S    
S10   O45   D    
C2    O6    A    
N1    Zn3   S    
O4    Zn2   S    
S7    O35   D    
C8    C50   S    
S1    O19   S    
C2    O2    A    
N3    Zn1   S    
O22   H22   S    
C15   C17   S    
C12   H18   S    
O6    Zn3   S    
S11   O48   D    
C16   N4    A    
C14   H20   S    
S12   O51   D    
C47   C51   S    
C11   H17   S    
C4    O4    A    
S9    O41   D    
C46   C50   S    
C51   S7    S    
C6    H10   S    
S6    O34   S    
C36   C38   A    
O37   H27   S    
C9    C15   A    
S7    O37   S    
C10   C16   A    
S5    O29   D    
C3    O7    A    
C10   N2    A    
C34   H2    S    
C6    C26   S    
S8    O40   S    
O7    Zn4   S    
C31   C35   A    
O1    Zn1   S    
O19   H21   S    
C17   C19   S    
C23   O15   A    
C22   O10   A    
C37   C41   A    
S2    O20   D    
C17   O54   S    
C4    C31   S    
C7    H15   S    
C21   C42   S    
C44   C48   A    
C40   C44   A    
S12   O50   D    
S8    O39   D    
O52   H32   S    
S10   O44   D    
C24   C43   S    
C41   C45   A    
O49   H31   S    
C5    C51   S    
C6    C52   S    
S6    O32   D    
C43   C47   A    
S4    O28   S    
C37   H5    S    
C50   S10   S    
C26   C30   A    
