data_mof_unit_7296.cif
_audit_creation_date              2012-12-10T17:17:21-0500
_audit_creation_method            fapswitch 2.2
_symmetry_space_group_name_H-M    P1
_symmetry_Int_Tables_number       1
_space_group_crystal_system       triclinic
_cell_length_a                    27.738635
_cell_length_b                    13.13451
_cell_length_c                    11.770171
_cell_angle_alpha                 100.208841
_cell_angle_beta                  94.028604
_cell_angle_gamma                 93.176597
_cell_volume                      4199.87637975

loop_
_atom_site_label
_atom_site_type_symbol
_atom_type_description
_atom_site_fract_x
_atom_site_fract_y
_atom_site_fract_z
_atom_type_partial_charge
C1    C     C_R   0.498959 0.299361 0.478212 0.855541
C2    C     C_R   0.501226 0.701272 0.521877 0.836269
C3    C     C_R   0.102333 0.527997 0.499255 -0.135709
C4    C     C_R   0.899161 0.537655 0.491546 -0.159539
C5    C     C_R   0.124832 0.514795 0.393559 -0.113531
C6    C     C_R   0.877416 0.586328 0.589847 -0.097924
C7    C     C_R   0.096719 0.518821 0.288591 0.154817
C8    C     C_R   0.906938 0.635493 0.689914 0.153610
C9    C     C_R   0.130500 0.536039 0.606255 -0.105832
C10   C     C_R   0.870027 0.497545 0.388578 -0.084521
C11   C     C_R   0.355127 0.508297 0.500405 -0.138039
C12   C     C_R   0.645567 0.488162 0.499646 -0.227756
C13   C     C_R   0.971997 0.500885 0.390429 0.043845
C14   C     C_R   0.028816 0.551120 0.602334 0.030512
C15   C     C_R   0.978970 0.572330 0.597853 0.019031
C16   C     C_R   0.023098 0.517909 0.390984 -0.002522
C17   C     C_R   0.949967 0.536350 0.493432 -0.079087
C18   C     C_R   0.051509 0.532478 0.497637 -0.085298
C19   C     C_R   0.942667 0.447350 0.291682 0.265219
C20   C     C_R   0.055788 0.542605 0.706649 0.305565
C21   C     C_R   0.891725 0.450836 0.288580 0.179929
C22   C     C_R   0.106688 0.541088 0.710370 0.177833
C23   C     C_R   0.407716 0.501965 0.500053 0.827213
C24   C     C_R   0.592522 0.496733 0.499560 0.848073
C25   C     C_R   0.046107 0.526143 0.289517 0.426466
C26   C     C_R   0.958086 0.631448 0.692259 0.385134
C27   C     C_R   0.502324 0.816005 0.535423 -0.203098
C28   C     C_R   0.495925 0.185744 0.466223 -0.200262
C29   C     C_R   0.461451 0.015867 0.367840 0.385648
C30   C     C_R   0.522745 0.988806 0.652306 0.380318
C31   C     C_R   0.468338 0.123422 0.371650 0.086334
C32   C     C_R   0.517427 0.879875 0.643573 0.102578
C33   C     C_R   0.517396 0.141247 0.556034 0.200388
C34   C     C_R   0.488198 0.861865 0.439449 0.195753
C35   C     C_R   0.508978 0.033801 0.555044 -0.077750
C36   C     C_R   0.485846 0.970277 0.453733 -0.072989
C37   C     C_R   0.444674 0.426852 0.024273 -0.229228
C38   C     C_R   0.555216 0.573744 0.975728 -0.244289
C39   C     C_R   0.451075 0.428417 0.143619 0.480573
C40   C     C_R   0.548670 0.572643 0.856449 0.504327
C41   C     C_R   0.525674 0.529343 0.154471 0.507955
C42   C     C_R   0.474472 0.470139 0.845370 0.521196
C43   C     C_R   0.520588 0.525209 0.032732 -0.114065
C44   C     C_R   0.479484 0.474619 0.967151 -0.107504
C45   C     C_R   0.174846 0.499660 0.397646 0.617728
C46   C     C_R   0.826335 0.587398 0.582545 0.616080
C47   C     C_R   0.181462 0.536937 0.604089 0.617715
C48   C     C_R   0.819415 0.503078 0.390222 0.596622
C49   C     C_R   0.280282 0.587107 0.453659 0.394620
C50   C     C_R   0.717981 0.428819 0.410465 0.428175
C51   C     C_R   0.330966 0.582498 0.448235 0.110528
C52   C     C_R   0.667609 0.434801 0.403592 0.209913
C53   C     C_R   0.328781 0.437914 0.552593 -0.313686
C54   C     C_R   0.674346 0.521216 0.603997 -0.285690
C55   C     C_R   0.278291 0.437003 0.550115 0.239093
C56   C     C_R   0.724884 0.514087 0.609753 0.290645
C57   C     C_R   0.253983 0.512441 0.501270 0.251825
C58   C     C_R   0.747454 0.490980 0.504136 0.009864
Cu1   Cu    Cu3+1 0.503580 0.507730 0.615930 0.953889
Cu2   Cu    Cu3+1 0.496420 0.492270 0.384070 0.941937
H1    H     H_    0.347459 0.380634 0.591465 0.178886
H2    H     H_    0.656911 0.549241 0.681577 0.223664
H3    H     H_    0.412447 0.385831 0.976521 0.219548
H4    H     H_    0.587286 0.615351 0.023604 0.220563
N1    N     N_R   0.202072 0.515347 0.501277 -0.423300
N2    N     N_R   0.798634 0.523554 0.493796 -0.461539
N3    N     N_R   0.508960 0.519350 0.790140 -0.268552
N4    N     N_R   0.491040 0.480650 0.209860 -0.265295
O1    O     O_R   0.502540 0.354460 0.582000 -0.600711
O2    O     O_R   0.497460 0.645540 0.418000 -0.590505
O3    O     O_R   0.496500 0.341410 0.386200 -0.581325
O4    O     O_R   0.503500 0.658590 0.613800 -0.573432
O5    O     O_R   0.433290 0.506540 0.597890 -0.567292
O6    O     O_R   0.566710 0.493460 0.402110 -0.583488
O7    O     O_R   0.427240 0.493490 0.402090 -0.576522
O8    O     O_R   0.572760 0.506510 0.597910 -0.574517
O9    O     O_2   0.196461 0.467620 0.299762 -0.545953
O10   O     O_2   0.805165 0.658176 0.656664 -0.466694
O11   O     O_2   0.792058 0.496500 0.289619 -0.454791
O12   O     O_2   0.210636 0.560672 0.702844 -0.543980
N5    N     N_2   0.528802 0.833815 0.742191 -0.421647
H5    H     H_    0.563192 0.852577 0.782255 0.247230
C59   C     C_3   0.490863 0.832840 0.820449 -0.608589
H6    H     H_    0.501655 0.788057 0.888653 0.217051
H7    H     H_    0.456680 0.795034 0.772760 0.242446
H8    H     H_    0.484475 0.912988 0.862517 0.220202
N6    N     N_2   0.448646 0.169185 0.279296 -0.426788
H9    H     H_    0.411405 0.162008 0.265552 0.250052
C60   C     C_3   0.473927 0.150339 0.174837 -0.628499
H10   H     H_    0.457578 0.192826 0.109929 0.239150
H11   H     H_    0.471400 0.066378 0.136843 0.221111
H12   H     H_    0.512645 0.178407 0.194283 0.232381
O13   O     O_3   0.429736 0.953779 0.284396 -0.755566
H13   H     H_    0.409249 0.995614 0.241522 0.333016
O14   O     O_3   0.537194 0.053445 0.756755 -0.754717
H14   H     H_    0.551694 0.014937 0.813674 0.329857
O15   O     O_3   0.434105 0.415573 0.785030 -0.743307
H15   H     H_    0.444168 0.377614 0.711894 0.356012
O16   O     O_3   0.566106 0.583745 0.214628 -0.759590
H16   H     H_    0.556339 0.620084 0.288809 0.369549
O17   O     O_3   0.583882 0.626687 0.810446 -0.753651
H17   H     H_    0.568806 0.651124 0.743275 0.375407
O18   O     O_3   0.415385 0.376090 0.189876 -0.742139
H18   H     H_    0.430254 0.352419 0.257658 0.384544
N7    N     N_2   0.252079 0.361174 0.598638 -0.400422
H19   H     H_    0.271533 0.335469 0.664733 0.266703
C61   C     C_3   0.228545 0.276243 0.514279 -0.670385
H20   H     H_    0.207619 0.223180 0.559302 0.226797
H21   H     H_    0.256013 0.232090 0.465764 0.228416
H22   H     H_    0.202976 0.305172 0.452529 0.242743
N8    N     N_2   0.752234 0.515848 0.718269 -0.377429
H23   H     H_    0.780036 0.466613 0.713986 0.232320
C62   C     C_3   0.728375 0.525187 0.824837 -0.598760
H24   H     H_    0.755710 0.525437 0.898536 0.227810
H25   H     H_    0.701418 0.458549 0.820666 0.213266
H26   H     H_    0.710667 0.599579 0.841298 0.251512
N9    N     N_2   0.118447 0.521807 0.182846 -0.437907
H27   H     H_    0.150940 0.564986 0.188027 0.300801
C63   C     C_3   0.114153 0.424925 0.100933 -0.619664
H28   H     H_    0.133563 0.364790 0.137413 0.254675
H29   H     H_    0.130105 0.436413 0.019917 0.231951
H30   H     H_    0.075448 0.397385 0.079204 0.233521
N10   N     N_2   0.884868 0.684942 0.788919 -0.378424
H31   H     H_    0.897086 0.760889 0.820680 0.250894
C64   C     C_3   0.878683 0.621983 0.876714 -0.622169
H32   H     H_    0.857966 0.663570 0.945779 0.238525
H33   H     H_    0.914435 0.605925 0.915921 0.215484
H34   H     H_    0.858084 0.547399 0.838462 0.226923
N11   N     N_2   0.640230 0.379230 0.302569 -0.363616
H35   H     H_    0.617676 0.422084 0.259678 0.301912
C65   C     C_3   0.619409 0.278216 0.312812 -0.619171
H36   H     H_    0.602646 0.237962 0.227079 0.217684
H37   H     H_    0.591150 0.285941 0.375285 0.205483
H38   H     H_    0.647953 0.230320 0.342022 0.236438
N12   N     N_2   0.357007 0.653758 0.392583 -0.448132
H39   H     H_    0.392140 0.675277 0.426245 0.256443
C66   C     C_3   0.351961 0.628863 0.267285 -0.598836
H40   H     H_    0.370522 0.557691 0.236391 0.267585
H41   H     H_    0.368356 0.693856 0.231148 0.214848
H42   H     H_    0.313175 0.616731 0.234320 0.249580
O19   O     O_3   0.736258 0.352638 0.332099 -0.666388
H43   H     H_    0.765958 0.330633 0.370099 0.304427
O20   O     O_3   0.255057 0.663999 0.414896 -0.719965
H44   H     H_    0.277985 0.719856 0.400541 0.353488
N13   N     N_2   0.862026 0.404025 0.186913 -0.379561
H45   H     H_    0.872641 0.422372 0.110393 0.241512
C67   C     C_3   0.846975 0.295703 0.179774 -0.600052
H46   H     H_    0.815784 0.274008 0.113848 0.246066
H47   H     H_    0.835558 0.280779 0.264236 0.221494
H48   H     H_    0.876915 0.246426 0.153419 0.198479
N14   N     N_2   0.132184 0.534440 0.817988 -0.441187
H49   H     H_    0.158033 0.480862 0.815268 0.291293
C68   C     C_3   0.145294 0.632793 0.894312 -0.596494
H50   H     H_    0.171353 0.680766 0.855152 0.263805
H51   H     H_    0.162260 0.618877 0.977945 0.223751
H52   H     H_    0.112721 0.676647 0.911963 0.221635
N15   N     N_2   0.964141 0.381264 0.201769 -0.388867
H53   H     H_    0.945943 0.367756 0.120727 0.255437
C69   C     C_3   0.982986 0.288803 0.233993 -0.706363
H54   H     H_    0.999782 0.244402 0.159457 0.227571
H55   H     H_    0.953376 0.238923 0.258971 0.221211
H56   H     H_    0.011212 0.309099 0.307435 0.232496
N16   N     N_2   0.031160 0.521852 0.803761 -0.383017
H57   H     H_    0.049176 0.547688 0.884114 0.286854
C70   C     C_3   0.009884 0.417032 0.791419 -0.713233
H58   H     H_    0.989484 0.409846 0.867826 0.232464
H59   H     H_    0.038742 0.361352 0.785967 0.227508
H60   H     H_    0.984240 0.397443 0.712671 0.229784
O21   O     O_3   0.018619 0.550334 0.196157 -0.729398
H61   H     H_    0.039642 0.570210 0.138092 0.346952
O22   O     O_3   0.988944 0.690952 0.779716 -0.732281
H62   H     H_    0.970953 0.722428 0.844825 0.328105
N17   N     N_2   0.480169 0.798714 0.327012 -0.376699
H63   H     H_    0.444727 0.780647 0.294531 0.296946
C71   C     C_3   0.515022 0.813974 0.244462 -0.591071
H64   H     H_    0.508162 0.752320 0.166368 0.217028
H65   H     H_    0.552391 0.809658 0.283093 0.220576
H66   H     H_    0.512053 0.890143 0.217226 0.233686
N18   N     N_2   0.550858 0.205153 0.640270 -0.376567
H67   H     H_    0.540394 0.223875 0.723261 0.307927
C72   C     C_3   0.601661 0.190202 0.628536 -0.615706
H68   H     H_    0.623923 0.252495 0.688970 0.221387
H69   H     H_    0.610875 0.113985 0.649080 0.241164
H70   H     H_    0.610607 0.194220 0.538920 0.203679

loop_
_geom_bond_atom_site_label_1
_geom_bond_atom_site_label_2
_ccdc_geom_bond_type
C30   C32   A    
N6    H9    S    
C70   H58   S    
C33   N18   S    
C8    C26   A    
C39   N4    A    
C14   C18   A    
O14   H14   S    
O22   H62   S    
C65   H38   S    
O15   H15   S    
N10   H31   S    
C71   H65   S    
N17   H63   S    
C32   N5    S    
N7    C61   S    
C29   C36   A    
N15   H53   S    
C30   C35   A    
C55   N7    S    
C52   N11   S    
C48   O11   S    
C67   H47   S    
C46   N2    A    
C10   C48   A    
N9    C63   S    
N13   H45   S    
C9    C22   A    
N10   C64   S    
O20   H44   S    
C49   C57   A    
C3    C18   A    
N12   C66   S    
O21   H61   S    
C11   C23   S    
C7    N9    S    
C67   H46   S    
Cu1   N3    S    
C40   O17   S    
C37   H3    S    
C53   H1    S    
C58   N2    S    
C68   H50   S    
C69   H54   S    
C49   C51   A    
C40   N3    A    
C64   H34   S    
C50   C52   A    
C61   H20   S    
C41   O16   S    
C2    C27   S    
C60   H11   S    
Cu1   O5    S    
C56   N8    S    
C11   C53   A    
C50   O19   S    
Cu1   O4    S    
C62   H26   S    
C29   O13   S    
C53   C55   A    
Cu1   Cu2   S    
C27   C34   A    
N18   C72   S    
C29   C31   A    
C61   H21   S    
O19   H43   S    
C42   C44   A    
C47   O12   S    
C23   O5    A    
C2    O4    A    
C12   C52   A    
N5    H5    S    
C41   N4    A    
C38   H4    S    
C63   H29   S    
C10   C21   A    
C66   H42   S    
C54   C56   A    
C31   N6    S    
N13   C67   S    
C19   N15   S    
O17   H17   S    
C14   C20   A    
N12   H39   S    
C67   H48   S    
C4    C6    A    
C72   H69   S    
C57   N1    S    
C5    C7    A    
C13   C19   A    
C71   H66   S    
C24   O8    A    
C15   C26   A    
C6    C8    A    
C54   H2    S    
Cu2   O3    S    
C3    C5    A    
C72   H68   S    
C20   N16   S    
C5    C45   A    
C1    O1    A    
C62   H25   S    
C68   H52   S    
C35   C36   A    
C21   N13   S    
N15   C69   S    
C43   C44   A    
C30   O14   S    
C3    C9    A    
C1    C28   S    
C66   H41   S    
N5    C59   S    
C59   H6    S    
Cu2   O2    S    
N14   H49   S    
C69   H55   S    
C69   H56   S    
N8    C62   S    
O13   H13   S    
C1    O3    A    
C60   H12   S    
C64   H33   S    
N17   C71   S    
Cu1   O1    S    
C4    C17   A    
C16   C18   A    
C50   C58   A    
C59   H7    S    
C20   C22   A    
C26   O22   S    
C9    C47   A    
C70   H60   S    
N6    C60   S    
C45   N1    A    
C42   N3    A    
C61   H22   S    
C42   O15   S    
C68   H51   S    
C4    C10   A    
C65   H36   S    
C46   O10   S    
C62   H24   S    
C66   H40   S    
C72   H70   S    
C25   O21   S    
C16   C25   A    
C15   C17   A    
C22   N14   S    
C6    C46   A    
N8    H23   S    
C19   C21   A    
C27   C32   A    
C63   H30   S    
C28   C31   A    
C41   C43   A    
C23   O7    A    
C65   H37   S    
C28   C33   A    
C63   H28   S    
C8    N10   S    
C39   O18   S    
N7    H19   S    
C12   C24   S    
Cu2   O7    S    
C7    C25   A    
O16   H16   S    
C13   C17   A    
C37   C44   A    
C55   C57   A    
N11   H35   S    
C38   C43   A    
C37   C39   A    
C71   H64   S    
N9    H27   S    
C38   C40   A    
C24   O6    A    
C64   H32   S    
C51   N12   S    
C49   O20   S    
Cu2   O6    S    
C33   C35   A    
C56   C58   A    
C34   C36   A    
N14   C68   S    
N16   H57   S    
C11   C51   A    
N18   H67   S    
C59   H8    S    
Cu2   N4    S    
C70   H59   S    
C13   C16   A    
O18   H18   S    
C34   N17   S    
C14   C15   A    
N16   C70   S    
C45   O9    S    
C48   N2    A    
C60   H10   S    
C2    O2    A    
Cu1   O8    S    
C47   N1    A    
C12   C54   A    
N11   C65   S    
