data_mof_unit_27705.cif
_audit_creation_date              2012-10-26T19:41:29-0400
_audit_creation_method            fapswitch 2.2
_symmetry_space_group_name_H-M    P1
_symmetry_Int_Tables_number       1
_space_group_crystal_system       triclinic
_cell_length_a                    17.227581
_cell_length_b                    11.047855
_cell_length_c                    9.782611
_cell_angle_alpha                 109.541993
_cell_angle_beta                  94.907041
_cell_angle_gamma                 91.757067
_cell_volume                      1744.73282029

loop_
_atom_site_label
_atom_site_type_symbol
_atom_type_description
_atom_site_fract_x
_atom_site_fract_y
_atom_site_fract_z
_atom_type_partial_charge
C1    C     C_R   0.492007 0.254670 0.444889 0.538854
C2    C     C_R   0.648312 0.501310 0.481805 0.557588
C3    C     C_R   0.267827 0.482285 0.522551 0.013560
C4    C     C_R   0.732299 0.518139 0.477291 0.005780
C5    C     C_R   0.226478 0.382269 0.408350 -0.156658
C6    C     C_R   0.774459 0.612532 0.596352 -0.126259
C7    C     C_R   0.145186 0.370365 0.394751 0.144961
C8    C     C_R   0.855166 0.630904 0.603472 0.151858
C9    C     C_R   0.104757 0.460610 0.496937 0.041115
C10   C     C_R   0.894572 0.551738 0.489624 0.016023
C11   C     C_R   0.146214 0.557212 0.615517 -0.137625
C12   C     C_R   0.501651 0.744278 0.556697 0.538656
C13   C     C_R   0.852247 0.461106 0.366953 -0.131227
C14   C     C_R   0.227821 0.567865 0.630058 0.111360
C15   C     C_R   0.771080 0.443105 0.359900 0.117979
C16   C     C_2   0.019232 0.453701 0.479311 -0.129072
C17   C     C_2   0.979961 0.559885 0.500995 -0.162707
C18   C     C_3   0.710676 0.227682 0.258922 -0.289638
C19   C     C_3   0.283321 0.638713 0.879934 -0.281187
C20   C     C_3   0.889732 0.855515 0.737481 -0.320774
C21   C     C_3   0.078255 0.308514 0.152511 -0.315372
C22   C     C_3   0.323931 0.931443 0.385358 -0.319431
C23   C     C_2   0.480143 0.117606 0.423562 -0.120854
C24   C     C_3   0.554706 0.187479 0.764019 -0.281909
C25   C     C_2   0.501811 0.880764 0.584385 -0.089836
C26   C     C_2   0.471985 0.073166 0.535409 0.130022
C27   C     C_2   0.456220 0.934895 0.504710 0.146021
C28   C     C_2   0.505026 0.513549 0.081617 -0.014477
C29   C     C_2   0.489400 0.498350 0.922970 -0.040500
C30   C     C_R   0.351730 0.498917 0.518293 0.565017
Cu1   Cu    Cu3+1 0.513640 0.521550 0.643210 0.923319
Cu2   Cu    Cu3+1 0.486360 0.478450 0.356790 0.933416
H1    H     H_    0.115224 0.624497 0.697049 0.102047
H2    H     H_    0.765045 0.181278 0.277470 0.125056
H3    H     H_    0.675135 0.161821 0.160604 0.137551
H4    H     H_    0.676205 0.243590 0.353614 0.159805
H5    H     H_    0.244200 0.756255 0.766574 0.238763
H6    H     H_    0.227399 0.628986 0.925345 0.118613
H7    H     H_    0.321263 0.717232 0.961918 0.154043
H8    H     H_    0.313342 0.547646 0.858545 0.162552
H9    H     H_    0.010729 0.654270 0.536980 0.125024
H10   H     H_    0.988066 0.359536 0.442246 0.153341
H11   H     H_    0.951570 0.702979 0.758566 0.248276
H12   H     H_    0.882670 0.402064 0.278114 0.108429
H13   H     H_    0.919624 0.920746 0.842617 0.136817
H14   H     H_    0.827579 0.879051 0.731121 0.148596
H15   H     H_    0.917952 0.872028 0.646683 0.137273
H16   H     H_    0.133642 0.186437 0.243943 0.241480
H17   H     H_    0.044182 0.226640 0.067722 0.132233
H18   H     H_    0.129164 0.336928 0.104867 0.138720
H19   H     H_    0.039996 0.390280 0.186003 0.160696
H20   H     H_    0.378702 0.772938 0.398924 0.279784
H21   H     H_    0.278827 0.864206 0.305922 0.130664
H22   H     H_    0.336332 0.011231 0.344044 0.147036
H23   H     H_    0.439744 0.436617 0.859591 0.131439
H24   H     H_    0.300007 0.969441 0.492523 0.146767
H25   H     H_    0.436742 0.222794 0.712822 0.252559
H26   H     H_    0.569011 0.292379 0.799681 0.179736
H27   H     H_    0.600730 0.138981 0.695947 0.128830
H28   H     H_    0.556159 0.158628 0.862466 0.139486
H29   H     H_    0.543856 0.938330 0.672453 0.087018
H30   H     H_    0.475136 0.050348 0.312380 0.095939
H31   H     H_    0.550658 0.583361 0.148337 0.155615
H32   H     H_    0.581450 0.611133 0.920980 0.204070
H33   H     H_    0.422953 0.380168 0.075801 0.198687
H34   H     H_    0.257551 0.315028 0.326760 0.113773
H35   H     H_    0.744521 0.671499 0.686049 0.136033
H36   H     H_    0.754582 0.333697 0.141018 0.238668
N1    N     N_2   0.465840 0.446060 0.141630 -0.353122
N2    N     N_2   0.534160 0.553940 0.858370 -0.357009
N3    N     N_2   0.729512 0.347917 0.236833 -0.497128
N4    N     N_2   0.268900 0.668950 0.747455 -0.499984
N5    N     N_2   0.895700 0.723337 0.730398 -0.520454
N6    N     N_2   0.104497 0.270046 0.275515 -0.527391
N7    N     N_2   0.393443 0.863759 0.398477 -0.511559
N8    N     N_2   0.477407 0.154626 0.684767 -0.511843
O1    O     O_R   0.507280 0.332200 0.576490 -0.487254
O2    O     O_R   0.492720 0.667800 0.423510 -0.499505
O3    O     O_R   0.484240 0.295800 0.334620 -0.496116
O4    O     O_R   0.515760 0.704200 0.665380 -0.486625
O5    O     O_R   0.399260 0.520290 0.634950 -0.477876
O6    O     O_R   0.600740 0.479710 0.365050 -0.461817
O7    O     O_R   0.376220 0.483890 0.393080 -0.512700
O8    O     O_R   0.623780 0.516110 0.606920 -0.513039

loop_
_geom_bond_atom_site_label_1
_geom_bond_atom_site_label_2
_ccdc_geom_bond_type
H11   N5    S    
C1    O1    A    
C2    O8    A    
C28   N1    D    
H20   N7    S    
C21   H17   S    
Cu1   O4    S    
C22   H22   S    
C26   C27   S    
H25   N8    S    
C28   C29   S    
C9    C16   S    
H36   N3    S    
C11   C14   A    
C10   C17   S    
C23   C26   D    
C30   O7    A    
C23   H30   S    
C16   C17   D    
C12   O2    A    
C26   N8    S    
H32   N2    S    
C7    N6    S    
C18   H3    S    
C20   H13   S    
C19   N4    S    
C22   N7    S    
C27   N7    S    
C21   H18   S    
Cu1   O1    S    
C22   H21   S    
Cu1   N2    S    
H16   N6    S    
C11   H1    S    
C4    C6    A    
C5    C7    A    
C24   N8    S    
C22   H24   S    
C29   H23   S    
C21   N6    S    
Cu1   O8    S    
C3    C30   S    
C2    C4    S    
C19   H6    S    
C9    C11   A    
Cu1   Cu2   S    
C24   H28   S    
C25   H29   S    
C18   H2    S    
C3    C14   A    
C19   H7    S    
C24   H26   S    
C6    H35   S    
C1    C23   S    
C13   C15   A    
C1    O3    A    
C2    O6    A    
C16   H10   S    
C21   H19   S    
C15   N3    S    
C29   N2    D    
C18   N3    S    
C7    C9    A    
Cu2   O7    S    
C14   N4    S    
C5    H34   S    
C3    C5    A    
C10   C13   A    
C6    C8    A    
Cu2   N1    S    
C25   C27   D    
Cu2   O6    S    
Cu1   O5    S    
C12   C25   S    
C30   O5    A    
Cu2   O3    S    
C4    C15   A    
C24   H27   S    
H33   N1    S    
C12   O4    A    
C8    N5    S    
C20   N5    S    
C17   H9    S    
C20   H15   S    
C19   H8    S    
Cu2   O2    S    
C28   H31   S    
C8    C10   A    
H5    N4    S    
C18   H4    S    
C13   H12   S    
C20   H14   S    
