data_mof_unit_18514.cif
_audit_creation_date              2012-12-11T15:18:37-0500
_audit_creation_method            fapswitch 2.2
_symmetry_space_group_name_H-M    P1
_symmetry_Int_Tables_number       1
_space_group_crystal_system       triclinic
_cell_length_a                    6.942289
_cell_length_b                    19.907001
_cell_length_c                    23.820443
_cell_angle_alpha                 93.503747
_cell_angle_beta                  91.338679
_cell_angle_gamma                 88.712492
_cell_volume                      3284.20829477

loop_
_atom_site_label
_atom_site_type_symbol
_atom_type_description
_atom_site_fract_x
_atom_site_fract_y
_atom_site_fract_z
_atom_type_partial_charge
O1    O     O_R   0.620100 0.812200 0.810870 -0.539347
O2    O     O_R   0.379900 0.187800 0.189130 -0.539347
O3    O     O_R   0.296960 0.671650 0.794750 -0.530339
O4    O     O_R   0.703040 0.328350 0.205250 -0.530339
O5    O     O_R   0.120160 0.687800 0.689130 -0.540076
O6    O     O_R   0.879840 0.312200 0.310870 -0.540077
C1    C     C_R   0.468980 0.646761 0.804434 0.715349
C2    C     C_R   0.531020 0.353239 0.195566 0.715349
O7    O     O_R   0.290810 0.810670 0.817290 -0.536506
O8    O     O_R   0.709190 0.189330 0.182710 -0.536505
O9    O     O_R   0.113980 0.827820 0.711840 -0.541347
O10   O     O_R   0.886020 0.172180 0.288160 -0.541347
C3    C     C_R   0.460629 0.830194 0.835259 0.704572
C4    C     C_R   0.539370 0.169806 0.164741 0.704573
O11   O     O_R   0.626290 0.672180 0.788160 -0.538032
O12   O     O_R   0.373710 0.327820 0.211840 -0.538032
O13   O     O_3   0.451520 0.755460 0.715370 -0.371615
O14   O     O_3   0.548480 0.244540 0.284630 -0.371615
V1    V     V_3+5 0.179200 0.748980 0.756420 1.483715
V2    V     V_3+5 0.820800 0.251020 0.243580 1.483715
O15   O     O_R   0.783880 0.828350 0.705250 -0.539838
O16   O     O_R   0.216120 0.171650 0.294750 -0.539838
C5    C     C_R   0.950115 0.852605 0.694797 0.686982
C6    C     C_R   0.049885 0.147395 0.305203 0.686982
O17   O     O_R   0.790030 0.689320 0.682700 -0.535133
O18   O     O_R   0.209970 0.310680 0.317300 -0.535133
C7    C     C_R   0.958615 0.667538 0.666304 0.722067
C8    C     C_R   0.041385 0.332462 0.333696 0.722067
V3    V     V_3+5 0.678400 0.751010 0.743570 1.479961
V4    V     V_3+5 0.321600 0.248990 0.256430 1.479960
O19   O     O_3   0.955950 0.744540 0.784620 -0.356116
O20   O     O_3   0.044050 0.255460 0.215380 -0.356116
C9    C     C_R   0.933554 0.446044 0.376755 -0.066121
C10   C     C_R   0.066443 0.553955 0.623245 -0.066121
C11   C     C_R   0.031745 0.383512 0.381841 -0.108676
C12   C     C_R   0.968255 0.616488 0.618159 -0.108676
C13   C     C_R   0.120842 0.369293 0.433339 -0.208485
C14   C     C_R   0.879161 0.630707 0.566661 -0.208486
C15   C     C_R   0.108332 0.415198 0.480359 0.102317
C16   C     C_R   0.891669 0.584802 0.519641 0.102318
C17   C     C_R   0.006406 0.476910 0.476107 0.050953
C18   C     C_R   0.993594 0.523090 0.523893 0.050953
C19   C     C_R   0.918409 0.492683 0.424141 0.055379
C20   C     C_R   0.081589 0.507317 0.575859 0.055379
C21   C     C_R   0.195402 0.399996 0.531823 -0.166136
C22   C     C_R   0.804599 0.600004 0.468177 -0.166137
C23   C     C_R   0.182126 0.445184 0.578902 -0.168902
C24   C     C_R   0.817873 0.554816 0.421098 -0.168903
H1    H     H_    0.197967 0.321735 0.436907 0.148348
H2    H     H_    0.802037 0.678265 0.563092 0.148349
H3    H     H_    0.274060 0.352814 0.535769 0.150198
H4    H     H_    0.725943 0.647186 0.464230 0.150199
C25   C     C_R   0.950713 0.914044 0.663235 -0.045228
C26   C     C_R   0.049287 0.085956 0.336765 -0.045229
C27   C     C_R   0.920982 0.034985 0.662787 -0.149312
C28   C     C_R   0.079018 0.965015 0.337213 -0.149312
C29   C     C_R   0.913784 0.976271 0.691426 -0.169975
C30   C     C_R   0.086216 0.023728 0.308574 -0.169975
C31   C     C_R   0.984201 0.910763 0.605093 -0.196668
C32   C     C_R   0.015799 0.089237 0.394907 -0.196668
C33   C     C_R   0.971526 0.969427 0.573591 0.081076
C34   C     C_R   0.028474 0.030573 0.426409 0.081076
C35   C     C_R   0.954777 0.032120 0.604748 0.127305
C36   C     C_R   0.045223 0.967880 0.395251 0.127305
C37   C     C_R   0.985228 0.968760 0.513138 -0.000598
C38   C     C_R   0.014772 0.031239 0.486862 -0.000598
C39   C     C_R   0.032972 0.091154 0.522497 -0.039757
C40   C     C_R   0.967028 0.908846 0.477503 -0.039757
C41   C     C_R   0.986441 0.091615 0.579039 -0.226921
C42   C     C_R   0.013559 0.908385 0.420961 -0.226921
H5    H     H_    0.990724 0.138685 0.604595 0.129431
H6    H     H_    0.009276 0.861315 0.395405 0.129431
H7    H     H_    0.971707 0.137548 0.413670 0.119373
H8    H     H_    0.028293 0.862452 0.586330 0.119373
H9    H     H_    0.903532 0.082985 0.686341 0.116421
H10   H     H_    0.096468 0.917015 0.313659 0.116421
C43   C     C_R   0.492789 0.584400 0.835055 -0.079316
C44   C     C_R   0.507210 0.415600 0.164945 -0.079316
C45   C     C_R   0.627307 0.471296 0.839954 -0.188343
C46   C     C_R   0.372688 0.528704 0.160045 -0.188344
C47   C     C_R   0.583108 0.527015 0.808996 -0.025496
C48   C     C_R   0.416887 0.472984 0.191003 -0.025496
C49   C     C_R   0.449978 0.585000 0.892575 -0.217388
C50   C     C_R   0.550025 0.415000 0.107425 -0.217389
C51   C     C_R   0.500559 0.529382 0.925410 0.086238
C52   C     C_R   0.499442 0.470618 0.074590 0.086238
C53   C     C_R   0.589455 0.472252 0.897532 0.124669
C54   C     C_R   0.410542 0.527748 0.102468 0.124669
C55   C     C_R   0.470426 0.528852 0.984916 0.059951
C56   C     C_R   0.529576 0.471148 0.015084 0.059951
C57   C     C_R   0.615721 0.415809 0.984670 -0.181286
C58   C     C_R   0.384278 0.584191 0.015329 -0.181285
C59   C     C_R   0.644166 0.416480 0.927275 -0.185024
C60   C     C_R   0.355831 0.583520 0.072725 -0.185024
H11   H     H_    0.696209 0.427326 0.819218 0.121739
H12   H     H_    0.303782 0.572673 0.180782 0.121739
C61   C     C_R   0.678625 0.076028 0.103659 -0.212836
C62   C     C_R   0.321376 0.923972 0.896341 -0.212837
C63   C     C_R   0.526200 0.122286 0.114084 -0.122146
C64   C     C_R   0.473800 0.877714 0.885916 -0.122146
C65   C     C_R   0.362353 0.121112 0.077055 -0.097996
C66   C     C_R   0.637646 0.878888 0.922944 -0.097995
C67   C     C_R   0.350778 0.071846 0.031530 0.043964
C68   C     C_R   0.649222 0.928154 0.968470 0.043963
C69   C     C_R   0.504797 0.024861 0.022604 0.052183
C70   C     C_R   0.495203 0.975140 0.977396 0.052182
C71   C     C_R   0.668803 0.027499 0.058677 0.090387
C72   C     C_R   0.331198 0.972502 0.941322 0.090388
C73   C     C_R   0.188759 0.068064 0.994617 -0.182006
C74   C     C_R   0.811241 0.931936 0.005382 -0.182006
C75   C     C_R   0.179442 0.019080 0.950278 -0.181739
C76   C     C_R   0.820559 0.980920 0.049721 -0.181739
H13   H     H_    0.066885 0.102561 0.999865 0.144969
H14   H     H_    0.933114 0.897439 0.000134 0.144969
C77   C     C_1   0.861669 0.463779 0.321904 0.321799
N1    N     N_1   0.806836 0.478098 0.277901 -0.367304
C78   C     C_1   0.138325 0.536220 0.678096 0.321798
N2    N     N_1   0.193155 0.521901 0.722099 -0.367304
H15   H     H_    0.712099 0.372785 0.905940 0.128433
H16   H     H_    0.287895 0.627214 0.094060 0.128433
H17   H     H_    0.614899 0.369287 0.089313 0.110506
H18   H     H_    0.385108 0.630714 0.910688 0.110504
C79   C     C_1   0.367027 0.475752 0.249691 0.333779
N3    N     N_1   0.327824 0.478026 0.296730 -0.362463
C80   C     C_1   0.632965 0.524247 0.750308 0.333779
N4    N     N_1   0.672165 0.521973 0.703269 -0.362463
H19   H     H_    0.664242 0.370799 0.004000 0.130130
H20   H     H_    0.335756 0.629201 0.996000 0.130130
H21   H     H_    0.804303 0.076775 0.131605 0.129586
H22   H     H_    0.195698 0.923225 0.868395 0.129586
C81   C     C_1   0.209867 0.171758 0.084244 0.287994
N5    N     N_1   0.087968 0.212098 0.089695 -0.347876
C82   C     C_1   0.790130 0.828241 0.915756 0.287994
N6    N     N_1   0.912027 0.787900 0.910306 -0.347877
H23   H     H_    0.052398 0.017582 0.922930 0.130477
H24   H     H_    0.947602 0.982418 0.077069 0.130477
H25   H     H_    0.252304 0.431101 0.617633 0.146519
H26   H     H_    0.747695 0.568899 0.382367 0.146519
H27   H     H_    0.113006 0.020440 0.263845 0.104023
H28   H     H_    0.886994 0.979560 0.736155 0.104023
C83   C     C_1   0.123873 0.151235 0.505844 0.298581
N7    N     N_1   0.197589 0.199411 0.493025 -0.393023
C84   C     C_1   0.876127 0.848765 0.494156 0.298581
N8    N     N_1   0.802411 0.800589 0.506975 -0.393023

loop_
_geom_bond_atom_site_label_1
_geom_bond_atom_site_label_2
_ccdc_geom_bond_type
C30   H27   S    
C14   C16   A    
C28   H10   S    
O13   V3    S    
C17   C18   A    
O4    C2    A    
V1    O19   S    
C68   C70   A    
C25   C31   A    
C4    C63   S    
C15   C17   A    
C26   C32   A    
C16   C22   A    
C69   C71   A    
O9    V1    S    
C57   H19   S    
C11   C13   A    
C50   C52   A    
O3    C1    A    
C73   C75   A    
V2    O20   S    
C52   C54   A    
C43   C49   A    
C6    C26   S    
C77   N1    T    
C22   H4    S    
C32   H7    S    
C62   C72   A    
C40   C84   S    
C32   C34   A    
C71   C76   A    
C65   C67   A    
C41   H5    S    
O7    C3    A    
C34   C36   A    
O13   V1    S    
O5    C7    A    
C60   H16   S    
O7    V1    S    
O6    C8    A    
C35   C41   A    
C8    C11   S    
O8    V2    S    
C27   C35   A    
C28   C36   A    
O3    V1    S    
O14   V4    S    
C36   C42   A    
C46   H12   S    
C19   C24   A    
C74   H14   S    
C10   C12   A    
C20   C23   A    
C73   H13   S    
C15   C21   A    
C27   H9    S    
C10   C78   S    
C21   C23   A    
C38   C39   A    
C2    O12   A    
C67   C73   A    
C46   C54   A    
C2    C44   S    
C17   C19   A    
C23   H25   S    
C18   C20   A    
C76   H24   S    
C58   H20   S    
C45   C53   A    
C61   C63   A    
O11   V3    S    
C54   C60   A    
C51   C53   A    
O17   V3    S    
C22   C24   A    
C9    C77   S    
C31   C33   A    
C34   C38   A    
C9    C19   A    
C79   N3    T    
C10   C20   A    
C46   C48   A    
C52   C56   A    
C47   C80   S    
C45   C47   A    
C25   C29   A    
C1    O11   A    
C50   H17   S    
O15   V3    S    
C29   H28   S    
C39   C41   A    
O4    V2    S    
C45   H11   S    
C33   C37   A    
C57   C59   A    
C13   H1    S    
C44   C48   A    
C43   C47   A    
V3    O19   S    
C37   C40   A    
O10   V2    S    
O1    V3    S    
C67   C69   A    
C55   C58   A    
C66   C68   A    
C31   H8    S    
O5    V1    S    
C65   C81   S    
C49   C51   A    
O18   V4    S    
C62   C64   A    
C27   C29   A    
O8    C4    A    
C82   N6    T    
O16   C6    A    
O1    C3    A    
C56   C57   A    
C62   H22   S    
C39   C83   S    
C48   C79   S    
C68   C74   A    
C64   C66   A    
C26   C30   A    
C51   C55   A    
O16   V4    S    
C63   C65   A    
C33   C35   A    
C16   C18   A    
C14   H2    S    
C24   H26   S    
C7    C12   S    
O17   C7    A    
O6    V2    S    
C69   C70   A    
O10   C6    A    
O18   C8    A    
C72   C75   A    
C1    C43   S    
O2    V4    S    
C3    C64   S    
O15   C5    A    
C84   N8    T    
C66   C82   S    
C61   H21   S    
C13   C15   A    
C83   N7    T    
C12   C14   A    
V4    O20   S    
C75   H23   S    
C58   C60   A    
C80   N4    T    
C70   C72   A    
C53   C59   A    
C5    C25   S    
O9    C5    A    
C9    C11   A    
C28   C30   A    
O14   V2    S    
C49   H18   S    
O2    C4    A    
C74   C76   A    
C61   C71   A    
C44   C50   A    
C40   C42   A    
C37   C38   A    
C21   H3    S    
C42   H6    S    
C59   H15   S    
C55   C56   A    
C78   N2    T    
O12   V4    S    
C81   N5    T    
