data_mof_unit_23964.cif
_audit_creation_date              2012-12-11T15:25:48-0500
_audit_creation_method            fapswitch 2.2
_symmetry_space_group_name_H-M    P1
_symmetry_Int_Tables_number       1
_space_group_crystal_system       triclinic
_cell_length_a                    24.932604
_cell_length_b                    17.232959
_cell_length_c                    15.556907
_cell_angle_alpha                 89.996764
_cell_angle_beta                  50.524642
_cell_angle_gamma                 90.003758
_cell_volume                      5159.53669141

loop_
_atom_site_label
_atom_site_type_symbol
_atom_type_description
_atom_site_fract_x
_atom_site_fract_y
_atom_site_fract_z
_atom_type_partial_charge
C1    C     C_R   0.344613 0.133160 0.775636 -0.145707
C2    C     C_2   0.344432 0.759909 0.887347 0.238222
C3    C     C_2   0.344456 0.240135 0.887243 0.238357
C4    C     C_2   0.689088 0.830334 0.029815 0.248602
C5    C     C_2   0.189119 0.669606 0.029739 0.248740
C6    C     C_2   0.845046 0.259489 0.886625 0.236054
C7    C     C_2   0.844447 0.740066 0.887330 0.238266
C8    C     C_2   0.189112 0.330431 0.029722 0.248927
C9    C     C_2   0.756817 0.157570 0.966470 -0.134276
C10   C     C_2   0.306870 0.710974 0.876706 -0.106417
C11   C     C_2   0.306859 0.289055 0.876664 -0.106558
C12   C     C_R   0.664237 0.885664 0.203166 -0.139877
C13   C     C_2   0.757975 0.842904 0.965700 -0.133768
C14   C     C_2   0.257999 0.657006 0.965616 -0.133286
C15   C     C_2   0.806718 0.210737 0.877234 -0.094881
C16   C     C_2   0.806818 0.788943 0.876790 -0.105652
C17   C     C_2   0.258000 0.343008 0.965596 -0.133301
C18   C     C_R   0.601775 0.127957 0.593733 -0.137059
C19   C     C_R   0.408598 0.861649 0.404312 -0.123386
C20   C     C_R   0.408189 0.137971 0.404310 -0.122946
C21   C     C_R   0.601868 0.872170 0.593734 -0.136823
C22   C     C_R   0.101840 0.627876 0.593721 -0.136569
C23   C     C_R   0.663962 0.115248 0.203978 -0.129181
C24   C     C_R   0.908503 0.361766 0.404280 -0.123341
C25   C     C_R   0.908619 0.638365 0.404296 -0.123421
C26   C     C_R   0.101480 0.371636 0.593757 -0.138680
C27   C     C_R   0.675828 0.129058 0.406775 -0.087640
C28   C     C_R   0.330285 0.863246 0.590608 -0.109503
C29   C     C_R   0.329984 0.136404 0.590642 -0.109431
C30   C     C_R   0.675896 0.871045 0.406771 -0.088679
C31   C     C_R   0.175869 0.629008 0.406759 -0.088735
C32   C     C_R   0.830133 0.363420 0.590575 -0.109424
C33   C     C_R   0.830309 0.636769 0.590591 -0.109335
C34   C     C_R   0.344565 0.866908 0.775788 -0.146018
C35   C     C_R   0.175533 0.370529 0.406791 -0.088653
C36   C     C_R   0.575026 0.113720 0.201966 -0.126819
C37   C     C_R   0.435097 0.866587 0.774140 -0.101095
C38   C     C_R   0.435097 0.133431 0.774113 -0.101054
C39   C     C_R   0.575388 0.887526 0.201041 -0.121637
C40   C     C_R   0.075399 0.612461 0.201019 -0.121681
C41   C     C_R   0.935151 0.366504 0.773984 -0.095260
C42   C     C_R   0.935099 0.633399 0.774141 -0.101265
C43   C     C_R   0.075393 0.387551 0.201022 -0.121524
C44   C     C_R   0.373889 0.171359 0.815501 0.100134
C45   C     C_R   0.844563 0.633067 0.775801 -0.146616
C46   C     C_R   0.643599 0.863599 0.142322 0.101296
C47   C     C_R   0.642999 0.138289 0.144007 0.102532
C48   C     C_R   0.373854 0.828701 0.815626 0.100221
C49   C     C_R   0.873856 0.671274 0.815632 0.100238
C50   C     C_R   0.143618 0.363665 0.142259 0.101325
C51   C     C_R   0.143619 0.636374 0.142279 0.101274
C52   C     C_R   0.874345 0.328037 0.814458 0.088447
C53   C     C_R   0.660061 0.162241 0.500636 0.119490
C54   C     C_R   0.352838 0.823515 0.495843 0.126193
C55   C     C_R   0.352306 0.175915 0.495867 0.125918
C56   C     C_R   0.164255 0.385724 0.203105 -0.139560
C57   C     C_R   0.660201 0.837949 0.500638 0.119409
C58   C     C_R   0.160159 0.662125 0.500618 0.119346
C59   C     C_R   0.852672 0.323725 0.495803 0.126162
C60   C     C_R   0.852874 0.676509 0.495814 0.126199
C61   C     C_R   0.159600 0.337130 0.500681 0.120322
C62   C     C_R   0.285555 0.293749 0.541257 0.225053
C63   C     C_R   0.731413 0.724025 0.447832 0.226057
C64   C     C_R   0.731243 0.276200 0.447798 0.226258
C65   C     C_R   0.286165 0.705521 0.541174 0.225156
C66   C     C_R   0.786197 0.794503 0.541209 0.225153
C67   C     C_R   0.164250 0.614320 0.203136 -0.139196
C68   C     C_R   0.230681 0.223095 0.448116 0.225895
C69   C     C_R   0.231355 0.776071 0.447880 0.226119
C70   C     C_R   0.786014 0.205754 0.541214 0.225246
C71   C     C_R   0.735790 0.831874 0.545779 -0.255480
C72   C     C_R   0.280580 0.185698 0.444321 -0.256880
C73   C     C_R   0.281243 0.813494 0.444082 -0.256947
C74   C     C_R   0.735617 0.168366 0.545792 -0.255579
C75   C     C_R   0.235161 0.331071 0.545794 -0.255626
C76   C     C_R   0.781308 0.686599 0.444004 -0.256939
C77   C     C_R   0.781141 0.313642 0.443950 -0.257555
C78   C     C_R   0.844897 0.366364 0.774956 -0.144310
C79   C     C_R   0.235766 0.668154 0.545717 -0.255364
C80   C     C_R   0.708650 0.796158 0.500063 -0.001470
C81   C     C_R   0.307288 0.220904 0.491077 0.001017
C82   C     C_R   0.307924 0.778359 0.490923 0.001059
C83   C     C_R   0.708479 0.204071 0.500070 -0.001679
C84   C     C_R   0.207973 0.295273 0.500203 -0.002113
C85   C     C_R   0.807976 0.721694 0.490888 0.001124
C86   C     C_R   0.807788 0.278558 0.490865 0.001153
C87   C     C_R   0.208612 0.703907 0.500045 -0.001654
C88   C     C_3   0.351793 0.749086 0.975879 -0.945124
C89   C     C_2   0.688305 0.172959 0.032585 0.252350
C90   C     C_3   0.658531 0.231257 0.000306 -0.951439
C91   C     C_3   0.658804 0.776141 0.993944 -0.950730
C92   C     C_3   0.351835 0.250950 0.975757 -0.945351
C93   C     C_3   0.854793 0.250713 0.972743 -0.926895
C94   C     C_3   0.158854 0.723820 0.993862 -0.950874
C95   C     C_3   0.158828 0.276237 0.993854 -0.951179
C96   C     C_3   0.851920 0.750975 0.975701 -0.945653
H1    H     H_    0.293732 0.143047 0.800696 0.096799
H2    H     H_    0.433458 0.851094 0.317812 0.105972
H3    H     H_    0.432830 0.148325 0.317860 0.105622
H4    H     H_    0.582512 0.867625 0.678426 0.101320
H5    H     H_    0.082489 0.632428 0.678408 0.101357
H6    H     H_    0.933365 0.351243 0.317772 0.105903
H7    H     H_    0.933489 0.648932 0.317791 0.105984
H8    H     H_    0.082087 0.366897 0.678448 0.100701
H9    H     H_    0.722679 0.135718 0.321397 0.107719
H10   H     H_    0.282008 0.854833 0.673823 0.105021
H11   H     H_    0.281690 0.144658 0.673887 0.104969
H12   H     H_    0.716039 0.883608 0.177016 0.090971
H13   H     H_    0.722726 0.864400 0.321370 0.107932
H14   H     H_    0.222695 0.635674 0.321356 0.107863
H15   H     H_    0.781771 0.355145 0.673734 0.104838
H16   H     H_    0.782040 0.645191 0.673807 0.104938
H17   H     H_    0.222321 0.363692 0.321399 0.107861
H18   H     H_    0.546720 0.112901 0.170801 0.100445
H19   H     H_    0.468294 0.854451 0.794426 0.100437
H20   H     H_    0.468259 0.145548 0.794471 0.100381
H21   H     H_    0.547073 0.889112 0.169908 0.098905
H22   H     H_    0.047085 0.610865 0.169884 0.098940
H23   H     H_    0.715858 0.117434 0.177456 0.087432
H24   H     H_    0.967898 0.354884 0.795287 0.100634
H25   H     H_    0.968297 0.645530 0.794424 0.100499
H26   H     H_    0.047067 0.389136 0.169907 0.098903
H27   H     H_    0.718514 0.889045 0.583133 0.161887
H28   H     H_    0.297258 0.128269 0.407682 0.162818
H29   H     H_    0.297902 0.870926 0.407423 0.162793
H30   H     H_    0.718346 0.111191 0.583158 0.161927
H31   H     H_    0.217948 0.388289 0.583000 0.162032
H32   H     H_    0.797976 0.629188 0.407298 0.162751
H33   H     H_    0.797826 0.371050 0.407210 0.162689
H34   H     H_    0.293640 0.857081 0.800990 0.096761
H35   H     H_    0.218503 0.610961 0.583020 0.161986
H36   H     H_    0.302120 0.720651 0.812890 0.152706
H37   H     H_    0.776876 0.113466 0.989221 0.109395
H38   H     H_    0.778844 0.883032 0.991591 0.117182
H39   H     H_    0.302095 0.279399 0.812861 0.152832
H40   H     H_    0.801856 0.220470 0.813553 0.149456
H41   H     H_    0.278848 0.616872 0.991533 0.116958
H42   H     H_    0.278865 0.383126 0.991501 0.116962
H43   H     H_    0.802004 0.779228 0.813064 0.152536
H44   H     H_    0.382285 0.796740 0.974402 0.244827
H45   H     H_    0.793633 0.642873 0.801016 0.096768
H46   H     H_    0.299756 0.748694 0.059786 0.260972
H47   H     H_    0.378565 0.693352 0.962164 0.245142
H48   H     H_    0.601502 0.237490 0.066464 0.246957
H49   H     H_    0.682347 0.289159 0.986708 0.250469
H50   H     H_    0.669047 0.212143 0.922676 0.251688
H51   H     H_    0.601515 0.771327 0.058492 0.245036
H52   H     H_    0.671002 0.798076 0.916083 0.254618
H53   H     H_    0.680868 0.716995 0.979246 0.248856
H54   H     H_    0.382335 0.203308 0.974268 0.244800
H55   H     H_    0.378604 0.306694 0.962038 0.245158
H56   H     H_    0.216068 0.383720 0.176908 0.090685
H57   H     H_    0.299803 0.251318 0.059673 0.260905
H58   H     H_    0.911039 0.245997 0.930249 0.237545
H59   H     H_    0.833522 0.302632 0.027476 0.259270
H60   H     H_    0.828961 0.198813 0.026214 0.240199
H61   H     H_    0.101598 0.728755 0.058484 0.245109
H62   H     H_    0.181015 0.782916 0.978964 0.248959
H63   H     H_    0.170917 0.701838 0.916153 0.254701
H64   H     H_    0.101571 0.271302 0.058480 0.245064
H65   H     H_    0.170894 0.298238 0.916147 0.254755
H66   H     H_    0.180974 0.217138 0.978956 0.249020
H67   H     H_    0.216056 0.616361 0.176972 0.090768
H68   H     H_    0.882442 0.703366 0.974173 0.244785
H69   H     H_    0.878696 0.806713 0.961867 0.245566
H70   H     H_    0.799933 0.751388 0.059658 0.260951
H71   H     H_    0.794024 0.356364 0.800056 0.097110
H72   H     H_    0.582415 0.132541 0.678421 0.101393
I1    I     I_    0.328001 0.350320 0.607108 -0.399188
I2    I     I_    0.690726 0.667573 0.378633 -0.371986
I3    I     I_    0.690572 0.332595 0.378541 -0.370780
I4    I     I_    0.328560 0.649061 0.607166 -0.398601
I5    I     I_    0.828573 0.850912 0.607263 -0.398448
I6    I     I_    0.189971 0.166647 0.378965 -0.370437
I7    I     I_    0.190653 0.832558 0.378728 -0.370610
I8    I     I_    0.828375 0.149389 0.607328 -0.397917
N1    N     N_R   0.388930 0.078160 0.705470 -0.038141
N2    N     N_R   0.419500 0.922160 0.443350 -0.048804
N3    N     N_R   0.419500 0.077840 0.443350 -0.048533
N4    N     N_R   0.580500 0.922160 0.556650 -0.045496
N5    N     N_R   0.080500 0.577840 0.556650 -0.045501
N6    N     N_R   0.919500 0.422160 0.443350 -0.048786
N7    N     N_R   0.919500 0.577840 0.443350 -0.048825
N8    N     N_R   0.080500 0.422160 0.556650 -0.045494
N9    N     N_R   0.626210 0.077590 0.443410 -0.047965
N10   N     N_R   0.373790 0.922410 0.556590 -0.046129
N11   N     N_R   0.373790 0.077590 0.556590 -0.046057
N12   N     N_R   0.611070 0.921840 0.294530 -0.037399
N13   N     N_R   0.626210 0.922410 0.443410 -0.047687
N14   N     N_R   0.126210 0.577590 0.443410 -0.047653
N15   N     N_R   0.873790 0.422410 0.556590 -0.046053
N16   N     N_R   0.873790 0.577590 0.556590 -0.046089
N17   N     N_R   0.126210 0.422410 0.443410 -0.047767
N18   N     N_R   0.554800 0.077270 0.294580 -0.041303
N19   N     N_R   0.445200 0.922730 0.705420 -0.045199
N20   N     N_R   0.445200 0.077270 0.705420 -0.045190
N21   N     N_R   0.554800 0.922730 0.294580 -0.041203
N22   N     N_R   0.054800 0.577270 0.294580 -0.041267
N23   N     N_R   0.611070 0.078160 0.294530 -0.038826
N24   N     N_R   0.945200 0.422730 0.705420 -0.045405
N25   N     N_R   0.945200 0.577270 0.705420 -0.045256
N26   N     N_R   0.054800 0.422730 0.294580 -0.041265
N27   N     N_R   0.388930 0.921840 0.705470 -0.038120
N28   N     N_R   0.888930 0.578160 0.705470 -0.038149
N29   N     N_R   0.111070 0.421840 0.294530 -0.037266
N30   N     N_R   0.111070 0.578160 0.294530 -0.037256
N31   N     N_R   0.888930 0.421840 0.705470 -0.038044
N32   N     N_R   0.580500 0.077840 0.556650 -0.045540
Ni1   Ni    Ni4+2 0.382710 0.000000 0.629850 0.232551
Ni2   Ni    Ni4+2 0.617290 0.000000 0.370150 0.220795
Ni3   Ni    Ni4+2 0.882710 0.500000 0.629850 0.232153
Ni4   Ni    Ni4+2 0.117290 0.500000 0.370150 0.221228
Ni5   Ni    Ni4+2 0.513020 0.000000 0.629850 0.223098
Ni6   Ni    Ni4+2 0.486980 0.000000 0.370150 0.219308
Ni7   Ni    Ni4+2 0.013020 0.500000 0.629850 0.222982
Ni8   Ni    Ni4+2 0.986980 0.500000 0.370150 0.219206

loop_
_geom_bond_atom_site_label_1
_geom_bond_atom_site_label_2
_ccdc_geom_bond_type
C40   H22   S    
N32   Ni5   S    
C65   C79   A    
C32   H15   S    
N22   N30   A    
C13   H38   S    
C57   C80   S    
C74   C83   A    
N22   Ni8   S    
N7    N16   A    
C66   C85   A    
C91   H51   S    
C5    C94   S    
C64   C83   A    
C4    C46   S    
C21   C57   A    
C7    C96   S    
C31   N14   A    
C78   H71   S    
C94   H63   S    
C22   H5    S    
C33   N16   A    
C37   N19   A    
C31   C58   A    
C71   H27   S    
N4    Ni5   S    
N1    N20   A    
C26   C61   A    
C22   N5    A    
C28   N10   A    
N13   Ni2   S    
C41   N24   A    
C23   H23   S    
C75   C84   A    
N19   N27   A    
C63   C76   A    
C27   H9    S    
N8    N17   A    
C12   N12   A    
C30   C57   A    
C23   N23   A    
N24   Ni7   S    
N28   Ni3   S    
C36   C47   A    
C18   N32   A    
C27   N9    A    
C30   N13   A    
N1    Ni1   S    
C4    C13   D    
N31   Ni3   S    
N14   Ni4   S    
C78   N31   A    
C88   H44   S    
C18   C53   A    
C26   H8    S    
C6    C15   D    
C1    N1    A    
C21   N4    A    
N25   Ni7   S    
C56   N29   A    
N11   Ni1   S    
C28   H10   S    
N26   N29   A    
C70   C74   A    
C66   I5    S    
C69   C73   A    
C92   H57   S    
C25   C60   A    
C55   C81   S    
C88   H47   S    
C75   H31   S    
C72   C81   A    
C69   C87   A    
C4    C91   S    
C39   N21   A    
C36   H18   S    
C94   H62   S    
C72   H28   S    
N6    Ni8   S    
C47   C89   S    
N9    N32   A    
C8    C95   S    
N12   Ni2   S    
C43   N26   A    
C20   C55   A    
C52   C78   A    
C79   C87   A    
C71   C80   A    
C19   H2    S    
C20   N3    A    
C36   N18   A    
C63   C80   A    
C3    C44   S    
C23   C47   A    
N2    Ni6   S    
C65   I4    S    
C24   N6    A    
C95   H64   S    
C68   C84   A    
C93   H59   S    
C9    H37   S    
C7    C49   S    
N5    Ni7   S    
C10   C14   S    
C95   H66   S    
C1    H1    S    
C12   H12   S    
C21   H4    S    
C28   C54   A    
C25   H7    S    
N17   Ni4   S    
C51   C67   A    
C15   H40   S    
C29   C55   A    
N29   Ni4   S    
C2    C48   S    
C39   H21   S    
C50   C56   A    
C96   H68   S    
C32   N15   A    
C3    C92   S    
N16   Ni3   S    
C38   C44   A    
C11   H39   S    
C38   H20   S    
N5    N14   A    
C1    C44   A    
C66   C71   A    
C19   N2    A    
C14   H41   S    
C45   C49   A    
C34   N27   A    
C68   C72   A    
C6    C93   S    
C79   H35   S    
C92   H55   S    
C35   C61   A    
C33   H16   S    
C77   H33   S    
C70   C86   A    
C37   C48   A    
C2    C88   S    
C33   C60   A    
C43   H26   S    
C5    C14   D    
C17   H42   S    
C67   N30   A    
C45   H45   S    
C39   C46   A    
C19   C54   A    
C12   C46   A    
C7    C16   D    
C62   C81   A    
C77   C86   A    
C94   H61   S    
N4    N13   A    
C92   H54   S    
C76   H32   S    
N25   N28   A    
C96   H70   S    
C62   C75   A    
N10   Ni1   S    
C16   H43   S    
C56   H56   S    
N6    N15   A    
C9    C89   D    
C2    C10   D    
C8    C50   S    
C73   C82   A    
C54   C82   S    
C29   N11   A    
C91   H53   S    
C58   C87   S    
N7    Ni8   S    
C88   H46   S    
C62   I1    S    
C30   H13   S    
C11   C17   S    
C18   H72   S    
C41   C52   A    
C96   H69   S    
N27   Ni1   S    
C93   H60   S    
C5    C51   S    
N8    Ni7   S    
C63   I2    S    
C61   C84   S    
C93   H58   S    
C22   C58   A    
C91   H52   S    
C60   C85   S    
C27   C53   A    
C43   C50   A    
C37   H19   S    
C45   N28   A    
N24   N31   A    
C40   C51   A    
C34   C48   A    
C8    C17   D    
C53   C83   S    
N23   Ni2   S    
N26   Ni8   S    
C68   I6    S    
C95   H65   S    
C9    C15   S    
C59   C86   S    
C90   H50   S    
N20   Ni5   S    
C65   C82   A    
C74   H30   S    
C20   H3    S    
C40   N22   A    
N12   N21   A    
C64   I3    S    
C24   C59   A    
C73   H29   S    
N3    Ni6   S    
C31   H14   S    
C38   N20   A    
C35   H17   S    
C24   H6    S    
C41   H24   S    
C10   H36   S    
N19   Ni5   S    
C3    C11   D    
C35   N17   A    
C42   C49   A    
N2    N10   A    
N18   N23   A    
N30   Ni4   S    
N3    N11   A    
C67   H67   S    
C34   H34   S    
N18   Ni6   S    
C13   C16   S    
C90   H49   S    
C64   C77   A    
N9    Ni2   S    
C29   H11   S    
C42   N25   A    
C69   I7    S    
C32   C59   A    
C6    C52   S    
C89   C90   S    
C70   I8    S    
C76   C85   A    
C90   H48   S    
N21   Ni6   S    
C25   N7    A    
C42   H25   S    
N15   Ni3   S    
C26   N8    A    
