data_mof_unit_61970.cif
_audit_creation_date              2012-12-10T19:13:39-0500
_audit_creation_method            fapswitch 2.2
_symmetry_space_group_name_H-M    P1
_symmetry_Int_Tables_number       1
_space_group_crystal_system       triclinic
_cell_length_a                    10.848051
_cell_length_b                    16.010582
_cell_length_c                    14.765581
_cell_angle_alpha                 90.059615
_cell_angle_beta                  101.150272
_cell_angle_gamma                 89.931623
_cell_volume                      2516.12689048

loop_
_atom_site_label
_atom_site_type_symbol
_atom_type_description
_atom_site_fract_x
_atom_site_fract_y
_atom_site_fract_z
_atom_type_partial_charge
C1    C     C_R   0.500150 0.340904 0.499955 0.828197
C2    C     C_R   0.499864 0.659081 0.500032 0.837982
C3    C     C_R   0.614698 0.500231 0.968377 0.135194
C4    C     C_R   0.385898 0.500726 0.031657 0.098572
C5    C     C_R   0.500455 0.500398 0.902909 -0.106644
C6    C     C_R   0.500163 0.500400 0.097158 -0.125834
C7    C     C_R   0.386323 0.500770 0.935390 0.169721
C8    C     C_R   0.614566 0.500289 0.064370 0.173554
C9    C     C_1   0.500131 0.500189 0.802612 0.218697
C10   C     C_1   0.500078 0.500166 0.197420 0.155637
C11   C     C_R   0.261276 0.504442 0.464314 0.890141
C12   C     C_R   0.738711 0.504048 0.535730 0.896747
C13   C     C_2   0.124284 0.512108 0.448010 -0.068433
C14   C     C_2   0.875675 0.510862 0.552185 -0.066286
C15   C     C_2   0.068544 0.559681 0.505013 0.107445
C16   C     C_2   0.931765 0.559920 0.496967 0.085915
C17   C     C_R   0.386791 0.956423 0.497848 0.202500
C18   C     C_R   0.613219 0.043444 0.501034 0.200730
C19   C     C_R   0.499515 0.912557 0.499541 -0.066844
C20   C     C_R   0.500542 0.087321 0.499585 -0.059266
C21   C     C_R   0.612909 0.955938 0.501012 0.081759
C22   C     C_R   0.387121 0.043914 0.497934 0.081453
C23   C     C_1   0.499287 0.822931 0.499806 0.018688
C24   C     C_1   0.500810 0.176980 0.499751 0.012290
C25   C     C_1   0.500505 0.251937 0.499871 -0.138741
C26   C     C_1   0.499566 0.747999 0.500000 -0.105048
Cu1   Cu    Cu3+1 0.500030 0.500000 0.589230 1.016445
Cu2   Cu    Cu3+1 0.499970 0.500000 0.410770 1.010463
N1    N     N_1   0.500040 0.499980 0.276720 -0.141745
N2    N     N_1   0.499960 0.500020 0.723280 -0.144367
O1    O     O_R   0.500060 0.380310 0.575330 -0.570674
O2    O     O_R   0.499940 0.619690 0.424670 -0.562370
O3    O     O_R   0.500000 0.380310 0.424640 -0.568435
O4    O     O_R   0.500000 0.619690 0.575360 -0.562510
O5    O     O_R   0.320710 0.500010 0.547660 -0.571586
O6    O     O_R   0.679290 0.499990 0.452340 -0.574663
O7    O     O_R   0.320650 0.500010 0.396960 -0.557594
O8    O     O_R   0.679350 0.499990 0.603040 -0.562330
I1    I     I_    0.833836 0.648293 0.400856 -0.346306
I2    I     I_    0.166786 0.644343 0.605533 -0.281700
N3    N     N_3   0.947494 0.461452 0.625021 -0.582300
H1    H     H_    0.003562 0.501337 0.671796 0.258554
H2    H     H_    0.006114 0.421326 0.596693 0.233477
N4    N     N_3   0.051946 0.465301 0.373070 -0.584557
H3    H     H_    0.996440 0.506843 0.328023 0.260527
H4    H     H_    0.992724 0.424436 0.399620 0.231332
N5    N     N_3   0.271469 0.087951 0.496342 -0.519605
H5    H     H_    0.282039 0.126088 0.554858 0.236214
H6    H     H_    0.254198 0.126105 0.437817 0.235543
N6    N     N_3   0.728512 0.911862 0.502447 -0.506879
H7    H     H_    0.717753 0.873654 0.443974 0.252277
H8    H     H_    0.745960 0.873743 0.560998 0.243183
I3    I     I_    0.214101 0.891742 0.494940 -0.212825
I4    I     I_    0.785710 0.108161 0.503287 -0.275050
N7    N     N_3   0.732712 0.500273 0.127907 -0.528354
H9    H     H_    0.736571 0.447410 0.169885 0.223242
H10   H     H_    0.736523 0.553226 0.169861 0.238196
N8    N     N_3   0.269987 0.501212 0.869839 -0.561426
H11   H     H_    0.219208 0.554334 0.881673 0.253679
H12   H     H_    0.218362 0.448555 0.881537 0.244155
N9    N     N_3   0.732945 0.500015 0.938612 -0.528149
H13   H     H_    0.736936 0.552894 0.897788 0.226018
H14   H     H_    0.736728 0.447069 0.897724 0.224596
N10   N     N_3   0.267709 0.501023 0.061537 -0.579818
H15   H     H_    0.264091 0.553931 0.102511 0.240186
H16   H     H_    0.263580 0.448082 0.102235 0.237030

loop_
_geom_bond_atom_site_label_1
_geom_bond_atom_site_label_2
_ccdc_geom_bond_type
C6    C10   S    
N6    H8    S    
N7    H9    S    
C5    C9    S    
C11   O7    A    
C12   O6    A    
C18   C21   A    
N3    H2    S    
N3    H1    S    
C4    N10   S    
C7    N8    S    
C19   C23   S    
C17   C22   A    
C1    O1    A    
C3    C5    A    
Cu1   O5    S    
N10   H15   S    
C2    O4    A    
N7    H10   S    
C22   N5    S    
C1    O3    A    
C2    C26   S    
N4    H3    S    
Cu1   N2    S    
C1    C25   S    
C11   C13   S    
C10   N1    T    
C16   I1    S    
Cu2   O7    S    
C14   N3    S    
C2    O2    A    
C9    N2    T    
C8    N7    S    
N5    H6    S    
Cu2   N1    S    
C19   C21   A    
C12   C14   S    
Cu2   O3    S    
N6    H7    S    
C18   C20   A    
C13   C15   D    
Cu1   O4    S    
C12   O8    A    
N9    H13   S    
C14   C16   D    
C15   I2    S    
C4    C6    A    
C18   I4    S    
C3    N9    S    
Cu1   O1    S    
C15   C16   S    
C17   I3    S    
Cu2   O2    S    
C21   N6    S    
C24   C25   T    
Cu2   O6    S    
N9    H14   S    
C3    C8    A    
C23   C26   T    
Cu1   Cu2   S    
C5    C7    A    
C20   C24   S    
C17   C19   A    
C6    C8    A    
Cu1   O8    S    
C4    C7    A    
N8    H11   S    
N8    H12   S    
C11   O5    A    
C13   N4    S    
N5    H5    S    
C20   C22   A    
N4    H4    S    
N10   H16   S    
