data_mof_unit_34500.cif
_audit_creation_date              2012-12-11T14:41:04-0500
_audit_creation_method            fapswitch 2.2
_symmetry_space_group_name_H-M    P1
_symmetry_Int_Tables_number       1
_space_group_crystal_system       triclinic
_cell_length_a                    6.951823
_cell_length_b                    17.738247
_cell_length_c                    18.852899
_cell_angle_alpha                 90.0
_cell_angle_beta                  90.000024
_cell_angle_gamma                 89.999952
_cell_volume                      2324.81042782

loop_
_atom_site_label
_atom_site_type_symbol
_atom_type_description
_atom_site_fract_x
_atom_site_fract_y
_atom_site_fract_z
_atom_type_partial_charge
O1    O     O_R   0.377350 0.828520 0.186660 -0.538022
O2    O     O_R   0.622650 0.171480 0.813340 -0.538022
O3    O     O_R   0.122650 0.171480 0.686660 -0.538022
O4    O     O_R   0.877350 0.828520 0.313340 -0.538022
O5    O     O_R   0.877350 0.671480 0.313340 -0.538022
O6    O     O_R   0.122650 0.328520 0.686660 -0.538022
O7    O     O_R   0.622650 0.328520 0.813340 -0.538022
O8    O     O_R   0.377350 0.671480 0.186660 -0.538023
O9    O     O_R   0.707090 0.671930 0.178410 -0.540448
O10   O     O_R   0.292910 0.328070 0.821590 -0.540448
O11   O     O_R   0.792910 0.328070 0.678410 -0.540448
O12   O     O_R   0.207090 0.671930 0.321590 -0.540448
O13   O     O_R   0.207090 0.828070 0.321590 -0.540447
O14   O     O_R   0.792910 0.171930 0.678410 -0.540447
O15   O     O_R   0.292910 0.171930 0.821590 -0.540447
O16   O     O_R   0.707090 0.828070 0.178410 -0.540447
C1    C     C_R   0.539391 0.644314 0.162886 0.693266
C2    C     C_R   0.460609 0.355686 0.837114 0.693266
C3    C     C_R   0.960609 0.355686 0.662886 0.693265
C4    C     C_R   0.039391 0.644314 0.337114 0.693266
C5    C     C_R   0.039391 0.855686 0.337114 0.693267
C6    C     C_R   0.960609 0.144314 0.662886 0.693267
C7    C     C_R   0.460609 0.144314 0.837114 0.693267
C8    C     C_R   0.539391 0.855686 0.162886 0.693267
O17   O     O_3   0.543850 0.750000 0.294270 -0.365982
O18   O     O_3   0.456150 0.250000 0.705730 -0.365982
O19   O     O_3   0.956150 0.250000 0.794270 -0.365982
O20   O     O_3   0.043850 0.750000 0.205730 -0.365982
V1    V     V_3+5 0.818700 0.750000 0.241790 1.385288
V2    V     V_3+5 0.181300 0.250000 0.758210 1.385288
V3    V     V_3+5 0.681300 0.250000 0.741790 1.385288
V4    V     V_3+5 0.318700 0.750000 0.258210 1.385288
C9    C     C_R   0.962682 0.420049 0.611996 -0.104742
C10   C     C_R   0.037318 0.579951 0.388004 -0.104741
C11   C     C_R   0.537318 0.579951 0.111996 -0.104741
C12   C     C_R   0.462682 0.420049 0.888004 -0.104742
C13   C     C_R   0.462683 0.079951 0.888004 -0.104738
C14   C     C_R   0.537317 0.920049 0.111996 -0.104738
C15   C     C_R   0.037317 0.920049 0.388004 -0.104738
C16   C     C_R   0.962683 0.079951 0.611996 -0.104738
C17   C     C_R   0.185877 0.466315 0.437295 -0.176664
C18   C     C_R   0.814123 0.533685 0.562705 -0.176664
C19   C     C_R   0.314123 0.533685 0.937295 -0.176664
C20   C     C_R   0.685877 0.466315 0.062705 -0.176665
C21   C     C_R   0.685868 0.033687 0.062707 -0.176665
C22   C     C_R   0.314131 0.966313 0.937293 -0.176665
C23   C     C_R   0.814131 0.966313 0.562707 -0.176665
C24   C     C_R   0.185869 0.033687 0.437293 -0.176665
C25   C     C_R   0.168116 0.518540 0.381255 0.129350
C26   C     C_R   0.831884 0.481459 0.618745 0.129351
C27   C     C_R   0.331884 0.481459 0.881255 0.129351
C28   C     C_R   0.668116 0.518541 0.118745 0.129351
C29   C     C_R   0.668108 0.981461 0.118747 0.129351
C30   C     C_R   0.331892 0.018539 0.881253 0.129351
C31   C     C_R   0.831891 0.018539 0.618746 0.129351
C32   C     C_R   0.168108 0.981461 0.381253 0.129351
C33   C     C_R   0.916891 0.583245 0.447917 -0.257580
C34   C     C_R   0.083109 0.416755 0.552083 -0.257579
C35   C     C_R   0.583109 0.416755 0.947917 -0.257580
C36   C     C_R   0.416890 0.583245 0.052083 -0.257580
C37   C     C_R   0.416895 0.916754 0.052082 -0.257580
C38   C     C_R   0.583105 0.083246 0.947918 -0.257580
C39   C     C_R   0.083105 0.083246 0.552082 -0.257580
C40   C     C_R   0.916895 0.916754 0.447918 -0.257580
C41   C     C_R   0.931443 0.529133 0.502438 0.110708
C42   C     C_R   0.068557 0.470867 0.497562 0.110708
C43   C     C_R   0.568557 0.470868 0.002437 0.110709
C44   C     C_R   0.431443 0.529133 0.997562 0.110708
C45   C     C_R   0.431446 0.970866 0.997561 0.110709
C46   C     C_R   0.568554 0.029134 0.002439 0.110709
C47   C     C_R   0.068554 0.029134 0.497561 0.110709
C48   C     C_R   0.931446 0.970866 0.502439 0.110709
H1    H     H_    0.183582 0.370334 0.546727 0.123776
H2    H     H_    0.816418 0.629666 0.453273 0.123776
H3    H     H_    0.316418 0.629666 0.046727 0.123776
H4    H     H_    0.683582 0.370334 0.953272 0.123776
H5    H     H_    0.683572 0.129669 0.953275 0.123775
H6    H     H_    0.316427 0.870331 0.046725 0.123775
H7    H     H_    0.816427 0.870331 0.453275 0.123775
H8    H     H_    0.183572 0.129669 0.546725 0.123775
H9    H     H_    0.289714 0.420942 0.433257 0.127908
H10   H     H_    0.710286 0.579058 0.566743 0.127908
H11   H     H_    0.210286 0.579058 0.933257 0.127908
H12   H     H_    0.789714 0.420942 0.066743 0.127908
H13   H     H_    0.789700 0.079062 0.066747 0.127907
H14   H     H_    0.210300 0.920937 0.933253 0.127907
H15   H     H_    0.710300 0.920938 0.566747 0.127907
H16   H     H_    0.289700 0.079062 0.433253 0.127907
C49   C     C_3   0.712767 0.493890 0.685405 -0.327648
C50   C     C_3   0.735329 0.573891 0.714766 -0.788942
H17   H     H_    0.883185 0.595331 0.706375 0.237965
H18   H     H_    0.632761 0.612760 0.688277 0.220995
H19   H     H_    0.706174 0.574162 0.772648 0.222296
H20   H     H_    0.558638 0.483146 0.673428 0.179371
H21   H     H_    0.755827 0.454894 0.728489 0.178756
C51   C     C_3   0.287233 0.506110 0.314594 -0.327649
C52   C     C_3   0.264670 0.426109 0.285234 -0.788942
H22   H     H_    0.367237 0.387240 0.311723 0.220995
H23   H     H_    0.116813 0.404669 0.293625 0.237965
H24   H     H_    0.293825 0.425838 0.227352 0.222296
H25   H     H_    0.244173 0.545106 0.271511 0.178757
H26   H     H_    0.441361 0.516853 0.326571 0.179371
C53   C     C_3   0.787233 0.506110 0.185405 -0.327649
C54   C     C_3   0.764670 0.426109 0.214766 -0.788942
H27   H     H_    0.616813 0.404669 0.206375 0.237966
H28   H     H_    0.867237 0.387240 0.188277 0.220995
H29   H     H_    0.793826 0.425839 0.272648 0.222297
H30   H     H_    0.941362 0.516853 0.173428 0.179371
H31   H     H_    0.744174 0.545107 0.228489 0.178757
C55   C     C_3   0.212766 0.493890 0.814594 -0.327649
C56   C     C_3   0.235328 0.573891 0.785234 -0.788942
H32   H     H_    0.132762 0.612760 0.811723 0.220995
H33   H     H_    0.383186 0.595331 0.793625 0.237965
H34   H     H_    0.206173 0.574161 0.727352 0.222297
H35   H     H_    0.255826 0.454893 0.771511 0.178757
H36   H     H_    0.058638 0.483146 0.826572 0.179371
C57   C     C_3   0.212783 0.006106 0.814591 -0.327654
C58   C     C_3   0.235373 0.926107 0.785228 -0.788943
H37   H     H_    0.383235 0.904673 0.793622 0.237970
H38   H     H_    0.132813 0.887233 0.811714 0.220994
H39   H     H_    0.206228 0.925837 0.727345 0.222294
H40   H     H_    0.058650 0.016842 0.826567 0.179372
H41   H     H_    0.255833 0.045107 0.771510 0.178757
C59   C     C_3   0.787217 0.993894 0.185409 -0.327653
C60   C     C_3   0.764627 0.073893 0.214772 -0.788943
H42   H     H_    0.867187 0.112767 0.188286 0.220994
H43   H     H_    0.616765 0.095327 0.206378 0.237970
H44   H     H_    0.793772 0.074163 0.272655 0.222294
H45   H     H_    0.744167 0.954893 0.228490 0.178757
H46   H     H_    0.941350 0.983158 0.173433 0.179372
C61   C     C_3   0.287217 0.993894 0.314591 -0.327654
C62   C     C_3   0.264627 0.073893 0.285228 -0.788944
H47   H     H_    0.116765 0.095327 0.293622 0.237970
H48   H     H_    0.367187 0.112767 0.311714 0.220994
H49   H     H_    0.293772 0.074163 0.227345 0.222294
H50   H     H_    0.441350 0.983158 0.326567 0.179372
H51   H     H_    0.244167 0.954893 0.271510 0.178757
C63   C     C_3   0.712782 0.006106 0.685408 -0.327654
C64   C     C_3   0.735373 0.926107 0.714772 -0.788944
H52   H     H_    0.632813 0.887233 0.688286 0.220994
H53   H     H_    0.883235 0.904673 0.706378 0.237970
H54   H     H_    0.706228 0.925837 0.772655 0.222294
H55   H     H_    0.755832 0.045107 0.728490 0.178757
H56   H     H_    0.558649 0.016842 0.673432 0.179372

loop_
_geom_bond_atom_site_label_1
_geom_bond_atom_site_label_2
_ccdc_geom_bond_type
C28   C53   S    
C9    C34   A    
C51   H26   S    
C19   H11   S    
C38   H5    S    
C56   H32   S    
C18   H10   S    
O14   V3    S    
C12   C35   A    
C54   H28   S    
C52   H22   S    
O5    C4    A    
C15   C40   A    
O11   C3    A    
C31   C63   S    
C50   H19   S    
C61   H51   S    
O20   V1    S    
C63   H55   S    
C62   H49   S    
C64   H54   S    
C38   C46   A    
C49   H20   S    
C55   C56   S    
C22   C45   A    
O13   V4    S    
C35   C43   A    
C58   H37   S    
C34   C42   A    
C62   H47   S    
C18   C41   A    
C8    C14   S    
C24   H16   S    
C53   H30   S    
C53   C54   S    
O4    V1    S    
O9    V1    S    
C14   C37   A    
C4    C10   S    
C20   C28   A    
O17   V4    S    
O15   C7    A    
O11   V3    S    
O18   V3    S    
O16   C8    A    
C51   H25   S    
O12   V4    S    
O19   V2    S    
O12   C4    A    
C17   C25   A    
C54   H27   S    
C52   H23   S    
C13   C38   A    
O5    V1    S    
C39   H8    S    
O17   V1    S    
O7    V3    S    
C20   C43   A    
O19   V3    S    
C43   C44   A    
O8    V4    S    
O20   V4    S    
C61   H50   S    
C3    C9    S    
C6    C16   S    
C19   C44   A    
O16   V1    S    
C7    C13   S    
O1    V4    S    
O2    V3    S    
C58   H39   S    
C23   H15   S    
C33   H2    S    
C49   H21   S    
O3    V2    S    
C21   H13   S    
C57   H40   S    
O6    C3    A    
C60   H44   S    
O10   V2    S    
C26   C49   S    
C50   H18   S    
C15   C32   A    
C5    C15   S    
C37   H6    S    
O7    C2    A    
C17   H9    S    
C51   C52   S    
C22   C30   A    
C59   H46   S    
C56   H33   S    
C16   C39   A    
C12   C27   A    
C18   C26   A    
C13   C30   A    
O9    C1    A    
O6    V2    S    
C39   C47   A    
O18   V2    S    
C27   C55   S    
C60   H42   S    
C40   H7    S    
C24   C47   A    
C61   C62   S    
C55   H36   S    
C11   C28   A    
C52   H24   S    
O15   V2    S    
C23   C31   A    
C37   C45   A    
C24   C32   A    
C10   C25   A    
C21   C46   A    
C33   C41   A    
C20   H12   S    
C29   C59   S    
C16   C31   A    
C64   H52   S    
C17   C42   A    
C36   H3    S    
O8    C1    A    
C53   H31   S    
O14   C6    A    
C9    C26   A    
C47   C48   A    
C63   H56   S    
C57   C58   S    
O13   C5    A    
O4    C5    A    
C64   H53   S    
C19   C27   A    
C50   H17   S    
C14   C29   A    
O10   C2    A    
C10   C33   A    
C35   H4    S    
C59   H45   S    
C56   H34   S    
C40   C48   A    
C25   C51   S    
C57   H41   S    
C45   C46   A    
C58   H38   S    
C23   C48   A    
C32   C61   S    
C63   C64   S    
C21   C29   A    
C36   C44   A    
O1    C8    A    
C62   H48   S    
C41   C42   A    
C30   C57   S    
O2    C7    A    
C60   H43   S    
C11   C36   A    
O3    C6    A    
C1    C11   S    
C49   C50   S    
C2    C12   S    
C55   H35   S    
C54   H29   S    
C34   H1    S    
C59   C60   S    
C22   H14   S    
