data_mof_unit_38255.cif
_audit_creation_date              2012-12-10T20:34:53-0500
_audit_creation_method            fapswitch 2.2
_symmetry_space_group_name_H-M    P1
_symmetry_Int_Tables_number       1
_space_group_crystal_system       triclinic
_cell_length_a                    10.629713
_cell_length_b                    10.663736
_cell_length_c                    9.860165
_cell_angle_alpha                 90.23145
_cell_angle_beta                  89.891962
_cell_angle_gamma                 89.871336
_cell_volume                      1117.65994823

loop_
_atom_site_label
_atom_site_type_symbol
_atom_type_description
_atom_site_fract_x
_atom_site_fract_y
_atom_site_fract_z
_atom_type_partial_charge
C1    C     C_R   0.505711 0.260035 0.499772 0.962142
C2    C     C_3   0.878706 0.500794 0.500962 0.200299
C3    C     C_3   0.927493 0.617740 0.424414 -0.400602
C4    C     C_3   0.928251 0.380201 0.430777 -0.419485
C5    C     C_R   0.503167 0.064241 0.621489 -0.044193
C6    C     C_R   0.526305 0.128394 0.501340 -0.198109
C7    C     C_R   0.575430 0.063485 0.387908 0.521314
C8    C     C_R   0.569614 0.932832 0.388134 -0.331374
C9    C     C_R   0.523166 0.871064 0.502870 -0.137483
C10   C     C_R   0.503305 0.936803 0.622844 0.044138
C11   C     C_3   0.396919 0.930737 0.722110 -0.525964
C12   C     C_R   0.257612 0.500727 0.500301 0.848894
C13   C     C_3   0.396836 0.073476 0.720923 0.424594
C14   C     C_R   0.433899 0.587210 0.071869 0.222662
C15   C     C_R   0.574591 0.418254 0.071465 -0.116281
C16   C     C_R   0.574479 0.418115 0.927400 -0.152146
C17   C     C_R   0.433681 0.587063 0.929288 0.226953
C18   C     C_3   0.294963 0.607066 0.924768 -0.531591
C19   C     C_3   0.295476 0.608334 0.078562 -0.520315
C20   C     C_R   0.503297 0.739954 0.500369 0.906917
C21   C     C_R   0.742357 0.500370 0.500160 0.815048
C22   C     C_3   0.070941 0.505706 0.648946 -0.405808
C23   C     C_3   0.928228 0.504647 0.649086 -0.391396
C24   C     C_3   0.071952 0.617899 0.424326 -0.412821
C25   C     C_3   0.072635 0.380544 0.430525 -0.396549
C26   C     C_3   0.121184 0.501158 0.501018 0.186359
H1    H     H_    0.104051 0.592590 0.700567 0.172125
H2    H     H_    0.893543 0.374406 0.324466 0.177279
H3    H     H_    0.106503 0.617612 0.317752 0.176445
H4    H     H_    0.893088 0.617516 0.317833 0.177872
H5    H     H_    0.594486 0.881074 0.297161 0.176581
H6    H     H_    0.310862 0.887534 0.678160 0.207391
H7    H     H_    0.426941 0.891130 0.821035 0.162943
H8    H     H_    0.427157 0.118767 0.817734 0.077044
H9    H     H_    0.633223 0.352425 0.125452 0.179311
H10   H     H_    0.105858 0.423651 0.707407 0.173472
H11   H     H_    0.632808 0.351804 0.872579 0.141365
H12   H     H_    0.269445 0.699027 0.879757 0.193994
H13   H     H_    0.244481 0.524883 0.882124 0.212406
H14   H     H_    0.271593 0.701467 0.122729 0.197600
H15   H     H_    0.244085 0.527801 0.123456 0.214072
H16   H     H_    0.894693 0.421262 0.706406 0.168733
H17   H     H_    0.892922 0.590037 0.702534 0.177552
H18   H     H_    0.106948 0.705192 0.473640 0.157492
H19   H     H_    0.891860 0.704879 0.473985 0.154269
H20   H     H_    0.107229 0.375564 0.323977 0.173663
H21   H     H_    0.108322 0.296002 0.484094 0.187225
H22   H     H_    0.893552 0.295887 0.485415 0.149049
N1    N     N_R   0.499150 0.499140 0.142800 -0.111400
N2    N     N_R   0.499150 0.499180 0.857150 -0.107212
O1    O     O_R   0.500020 0.316790 0.614690 -0.623437
O2    O     O_R   0.500000 0.316760 0.385350 -0.568299
O3    O     O_R   0.314800 0.500000 0.614670 -0.622034
O4    O     O_R   0.314790 0.499960 0.385330 -0.631018
O5    O     O_R   0.500000 0.683240 0.614650 -0.613126
O6    O     O_R   0.499980 0.683210 0.385310 -0.627150
O7    O     O_R   0.685210 0.500040 0.614670 -0.637673
O8    O     O_R   0.685200 0.500000 0.385330 -0.630690
Zn1   Zn    Zn3+2 0.500010 0.500020 0.653130 0.937446
Zn2   Zn    Zn3+2 0.499990 0.499980 0.346870 0.953770
O9    O     O_3   0.613372 0.127068 0.272702 -0.593117
C27   C     C_3   0.742689 0.104829 0.250253 -0.375333
H23   H     H_    0.799486 0.122812 0.343140 0.151955
H24   H     H_    0.776362 0.170159 0.170888 0.178150
H25   H     H_    0.759334 0.007893 0.212350 0.168709
O10   O     O_3   0.287605 0.123635 0.659879 -0.584756
C28   C     C_3   0.198550 0.152003 0.761512 -0.355621
H26   H     H_    0.231440 0.231373 0.825786 0.167712
H27   H     H_    0.177413 0.068652 0.825214 0.161319
H28   H     H_    0.109565 0.181285 0.712209 0.178723

loop_
_geom_bond_atom_site_label_1
_geom_bond_atom_site_label_2
_ccdc_geom_bond_type
C17   N2    A    
C3    H4    S    
C2    C4    S    
C18   H13   S    
C21   O7    A    
C27   H23   S    
O5    Zn1   S    
C11   C13   S    
C9    C10   A    
C25   H21   S    
C9    C20   S    
C5    C13   S    
C12   O3    A    
C27   H24   S    
C16   H11   S    
C20   O6    A    
C28   H28   S    
C21   O8    A    
C2    C21   S    
C17   C18   S    
C18   H12   S    
C10   C11   S    
N1    Zn2   S    
C13   H8    S    
O4    Zn2   S    
C1    O1    A    
C14   C17   A    
C19   H15   S    
C3    C24   S    
C6    C7    A    
C23   H16   S    
C20   O5    A    
C5    C6    A    
N2    Zn1   S    
C14   C19   S    
C15   H9    S    
C4    H2    S    
C24   C26   S    
C11   H6    S    
O10   C28   S    
C2    C3    S    
C13   O10   S    
C15   N1    A    
O3    Zn1   S    
O9    C27   S    
C24   H18   S    
C1    O2    A    
O7    Zn1   S    
C14   N1    A    
O1    Zn1   S    
C19   H14   S    
O8    Zn2   S    
C28   H26   S    
C4    C25   S    
C11   H7    S    
C22   H10   S    
C18   C19   S    
C4    H22   S    
C12   C26   S    
C2    C23   S    
C22   H1    S    
C7    C8    A    
C22   C23   S    
C7    O9    S    
C22   C26   S    
O2    Zn2   S    
C27   H25   S    
C5    C10   A    
C25   C26   S    
C24   H3    S    
C23   H17   S    
C25   H20   S    
C3    H19   S    
C15   C16   A    
C12   O4    A    
C8    H5    S    
O6    Zn2   S    
C16   N2    A    
C8    C9    A    
C28   H27   S    
C1    C6    S    
