data_mof_unit_47106.cif
_audit_creation_date              2012-12-11T15:41:22-0500
_audit_creation_method            fapswitch 2.2
_symmetry_space_group_name_H-M    P1
_symmetry_Int_Tables_number       1
_space_group_crystal_system       triclinic
_cell_length_a                    8.325199
_cell_length_b                    18.901002
_cell_length_c                    19.058686
_cell_angle_alpha                 96.096874
_cell_angle_beta                  94.175687
_cell_angle_gamma                 93.235913
_cell_volume                      2967.85827307

loop_
_atom_site_label
_atom_site_type_symbol
_atom_type_description
_atom_site_fract_x
_atom_site_fract_y
_atom_site_fract_z
_atom_type_partial_charge
Ba1   Ba    Ba6+2 0.154050 0.534420 0.467300 1.618206
Ba2   Ba    Ba6+2 0.656120 0.465570 0.532650 1.626718
C1    C     C_3   0.447372 0.730354 0.223507 -0.007160
C2    C     C_3   0.574620 0.754612 0.489635 -0.008744
C3    C     C_2   0.632383 0.832934 0.488599 -0.013374
C4    C     C_3   0.982828 0.727365 0.326219 0.296440
C5    C     C_2   0.794165 0.852449 0.501843 -0.066713
C6    C     C_2   0.906104 0.795360 0.518373 -0.158885
C7    C     C_1   0.850103 0.727512 0.515405 0.086277
C8    C     C_R   0.968275 0.067920 0.501492 0.468554
C9    C     C_R   0.861460 0.927839 0.500291 0.448467
C10   C     C_R   0.921704 0.195919 0.473276 0.069262
C11   C     C_R   0.977466 0.269487 0.476958 0.058927
C12   C     C_3   0.503294 0.725519 0.301991 0.294280
C13   C     C_R   0.231422 0.242289 0.537354 0.021658
C14   C     C_R   0.173228 0.171263 0.537957 -0.210782
C15   C     C_R   0.021251 0.146086 0.503949 -0.047622
C16   C     C_3   0.035771 0.802677 0.309824 -0.110636
C17   C     C_R   0.139189 0.288831 0.501200 -0.222266
C18   C     C_R   0.610680 0.526842 0.297442 -0.260238
C19   C     C_R   0.464584 0.488906 0.274240 0.067166
C20   C     C_R   0.416852 0.477177 0.201685 -0.138121
C21   C     C_R   0.517784 0.502098 0.151978 -0.001778
C22   C     C_R   0.668410 0.537639 0.176270 -0.134485
C23   C     C_3   0.534259 0.681164 0.644269 0.307682
C24   C     C_R   0.715314 0.549085 0.249107 0.009668
C25   C     C_R   0.445237 0.551763 0.039176 -0.113756
C26   C     C_R   0.387713 0.545474 0.968036 -0.108844
C27   C     C_R   0.346195 0.478594 0.929834 0.048643
C28   C     C_3   0.837677 0.386609 0.312543 0.380876
C29   C     C_R   0.367357 0.416211 0.964695 0.079996
C30   C     C_R   0.429310 0.422697 0.037193 0.073840
C31   C     C_R   0.464794 0.491388 0.074888 0.046814
C32   C     C_R   0.133240 0.447295 0.826941 -0.147429
C33   C     C_R   0.084000 0.444537 0.754393 0.017871
C34   C     C_3   0.569296 0.759617 0.671324 -0.383780
C35   C     C_R   0.338610 0.504911 0.733917 0.052136
C36   C     C_R   0.389131 0.507303 0.806109 -0.113830
C37   C     C_R   0.289072 0.476564 0.853124 -0.002150
C38   C     C_R   0.189255 0.471335 0.708417 -0.233869
C39   C     C_3   0.913718 0.372443 0.241977 -0.103469
C40   C     C_3   0.024230 0.619284 0.682984 0.308186
C41   C     C_3   0.046146 0.638962 0.762798 -0.392421
C42   C     C_3   0.432054 0.312079 0.332638 0.260381
C43   C     C_3   0.455605 0.265720 0.263881 -0.131221
C44   C     C_3   0.309141 0.675194 0.197883 -0.298662
C45   C     C_3   0.899958 0.269277 0.675128 0.348265
C46   C     C_3   0.505966 0.887141 0.484542 -0.330410
C47   C     C_3   0.220597 0.355189 0.479440 -0.228343
C48   C     C_3   0.330900 0.342481 0.925762 -0.417493
C49   C     C_3   0.462093 0.356038 0.072504 -0.419529
C50   C     C_3   0.926213 0.194974 0.697667 -0.133663
C51   C     C_3   0.353940 0.247793 0.706131 0.463333
C52   C     C_3   0.398420 0.210771 0.771873 -0.376091
C53   C     C_2   0.709850 0.705888 0.482039 -0.283195
H1    H     H_    0.520721 0.668881 0.309663 -0.005029
H2    H     H_    0.542962 0.343513 0.351970 0.070946
H3    H     H_    0.335949 0.248656 0.234927 0.096763
H4    H     H_    0.525765 0.297550 0.229226 0.111740
H5    H     H_    0.620161 0.756584 0.315605 -0.000985
H6    H     H_    0.650039 0.658514 0.631384 0.030456
H7    H     H_    0.449861 0.676566 0.595828 0.037101
H8    H     H_    0.645387 0.764894 0.722230 0.134891
H9    H     H_    0.635400 0.787459 0.632741 0.065614
H10   H     H_    0.454410 0.785355 0.679684 0.122181
H11   H     H_    0.402048 0.784146 0.218829 0.117854
H12   H     H_    0.920835 0.422937 0.216770 0.075616
H13   H     H_    0.805170 0.265009 0.630760 0.097119
H14   H     H_    0.014484 0.289312 0.655446 -0.086528
H15   H     H_    0.978181 0.161984 0.654427 0.078066
H16   H     H_    0.013540 0.199700 0.745044 0.107189
H17   H     H_    0.252241 0.214912 0.675879 -0.025801
H18   H     H_    0.293493 0.206861 0.804395 0.074714
H19   H     H_    0.500529 0.241205 0.804724 0.122956
H20   H     H_    0.090727 0.705159 0.350267 0.128800
H21   H     H_    0.433588 0.155924 0.755714 0.114200
H22   H     H_    0.032682 0.810019 0.533464 0.119285
H23   H     H_    0.037904 0.355016 0.250943 0.129026
H24   H     H_    0.248963 0.135195 0.563453 0.092320
H25   H     H_    0.690454 0.652982 0.452510 0.061441
H26   H     H_    0.505353 0.533395 0.825684 0.077732
H27   H     H_    0.373845 0.593599 0.942578 0.079121
H28   H     H_    0.472926 0.604522 0.066952 0.106541
H29   H     H_    0.888751 0.730214 0.364668 -0.010872
H30   H     H_    0.302963 0.447926 0.183906 0.076672
H31   H     H_    0.052293 0.425718 0.862441 0.079461
H32   H     H_    0.748503 0.556160 0.138812 0.082482
H33   H     H_    0.151426 0.469158 0.652647 0.045753
H34   H     H_    0.140448 0.603790 0.663543 0.012287
H35   H     H_    0.647481 0.535568 0.353480 0.065051
H36   H     H_    0.117931 0.829165 0.354800 0.125536
H37   H     H_    0.104396 0.799650 0.261753 0.125074
H38   H     H_    0.714120 0.401723 0.300124 -0.091069
H39   H     H_    0.904082 0.432981 0.343781 0.065521
H40   H     H_    0.862099 0.317123 0.144456 0.167403
H41   H     H_    0.836346 0.268266 0.211723 0.212837
H42   H     H_    0.349087 0.620525 0.200271 0.124189
H43   H     H_    0.208195 0.682622 0.231596 0.156877
H44   H     H_    0.265577 0.681286 0.142454 0.115952
H45   H     H_    0.932089 0.573971 0.671177 0.058238
H46   H     H_    0.573069 0.177175 0.231484 0.189835
H47   H     H_    0.459025 0.167325 0.299759 0.178784
H48   H     H_    0.643703 0.768501 0.175795 0.178524
H49   H     H_    0.655422 0.683473 0.195232 0.199537
H50   H     H_    0.835196 0.849495 0.345262 0.186019
H51   H     H_    0.823053 0.823171 0.257173 0.193957
H52   H     H_    0.694766 0.153649 0.669046 0.208199
H53   H     H_    0.728305 0.189277 0.754834 0.225114
H54   H     H_    0.204784 0.314374 0.755768 0.122454
H55   H     H_    0.397395 0.348332 0.758223 0.196668
H56   H     H_    0.141623 0.682798 0.776022 0.135196
H57   H     H_    0.549697 0.940401 0.511195 0.119150
H58   H     H_    0.466539 0.891371 0.428315 0.139882
H59   H     H_    0.399879 0.870505 0.512384 0.122509
H60   H     H_    0.716616 0.207373 0.407649 0.221245
H61   H     H_    0.692329 0.153643 0.471933 0.204827
H62   H     H_    0.348372 0.348742 0.470349 0.126245
H63   H     H_    0.169966 0.365542 0.427135 0.121562
H64   H     H_    0.208137 0.401367 0.519269 0.137857
H65   H     H_    0.442496 0.313322 0.924161 0.119059
H66   H     H_    0.239877 0.312462 0.952578 0.118581
H67   H     H_    0.081639 0.592516 0.789757 0.058341
H68   H     H_    0.283029 0.342920 0.870858 0.114894
H69   H     H_    0.542318 0.322520 0.041147 0.123852
H70   H     H_    0.525073 0.367212 0.125985 0.128908
H71   H     H_    0.346764 0.325038 0.076982 0.109739
H72   H     H_    0.931130 0.656656 0.782703 0.122188
H73   H     H_    0.402335 0.276748 0.373537 0.043831
N1    N     N_R   0.854648 0.036385 0.451288 -0.214231
N2    N     N_3   0.304059 0.319436 0.726396 -0.505085
N3    N     N_3   0.770751 0.169577 0.435497 -0.469484
N4    N     N_R   0.802506 0.968260 0.450688 -0.243819
N5    N     N_R   0.979697 0.958213 0.549074 -0.243680
N6    N     N_R   0.031717 0.026643 0.549688 -0.253837
N7    N     N_3   0.817067 0.318077 0.194348 -0.517983
N8    N     N_3   0.541436 0.202742 0.279528 -0.490880
N9    N     N_3   0.577833 0.720001 0.176713 -0.513698
N10   N     N_3   0.899519 0.847002 0.299949 -0.485231
N11   N     N_3   0.776662 0.158448 0.713813 -0.481657
O1    O     O_2   0.126770 0.670950 0.539180 -0.457006
O2    O     O_2   0.744763 0.442101 0.747417 -0.472652
O3    O     O_3   0.853998 0.314622 0.732738 -0.592646
O4    O     O_3   0.874330 0.583580 0.538020 -0.491033
O5    O     O_3   0.434510 0.464950 0.415850 -0.492272
O6    O     O_2   0.630930 0.532620 0.670490 -0.460137
O7    O     O_3   0.464077 0.646806 0.697246 -0.644002
O8    O     O_2   0.563597 0.249109 0.537455 -0.509357
O9    O     O_3   0.488331 0.251577 0.666053 -0.578136
O10   O     O_3   0.360240 0.629040 0.412110 -0.466068
O11   O     O_2   0.244894 0.750734 0.458612 -0.509897
O12   O     O_3   0.301335 0.354038 0.321851 -0.667736
O13   O     O_3   0.974811 0.678938 0.651899 -0.633775
O14   O     O_3   0.388294 0.755695 0.344718 -0.631961
O15   O     O_2   0.179370 0.467330 0.329490 -0.464167
O16   O     O_3   0.943350 0.594040 0.376060 -0.496790
O17   O     O_2   0.054168 0.558804 0.250361 -0.496365
O18   O     O_3   0.925884 0.683353 0.264241 -0.643271
O19   O     O_2   0.683530 0.329010 0.460790 -0.479303
O20   O     O_3   0.935970 0.416420 0.461920 -0.507905
O21   O     O_3   0.450050 0.370950 0.587830 -0.452118
O22   O     O_3   0.832182 0.323971 0.346850 -0.634191
O23   O     O_3   0.375780 0.535040 0.584090 -0.483822
O24   O     O_3   0.866950 0.405950 0.623880 -0.484067
P1    P     P_3+3 0.954930 0.659850 0.559700 0.985203
P2    P     P_3+3 0.352180 0.446150 0.339620 0.948943
P3    P     P_3+3 0.910913 0.594433 0.284103 0.898041
P4    P     P_3+3 0.855360 0.340140 0.440240 0.967107
P5    P     P_3+3 0.886405 0.403488 0.715742 0.980251
P6    P     P_3+3 0.396982 0.721895 0.426961 0.919036
P7    P     P_3+3 0.451640 0.554633 0.673074 0.953992
P8    P     P_3+3 0.430032 0.277031 0.582617 0.969326

loop_
_geom_bond_atom_site_label_1
_geom_bond_atom_site_label_2
_ccdc_geom_bond_type
C12   H1    S    
C44   H44   S    
C43   H4    S    
C49   H69   S    
C10   N3    S    
Ba2   O5    S    
O4    P1    S    
C42   H73   S    
C9    N4    A    
Ba2   O23   S    
C5    C6    S    
C39   H12   S    
H60   N3    S    
C51   C52   S    
C25   C31   A    
Ba2   O6    S    
C13   C17   A    
C45   O3    S    
C35   P7    S    
O10   P6    S    
C16   H36   S    
C26   C27   A    
C22   C24   A    
C32   C33   A    
C35   C38   A    
C9    N5    A    
C36   C37   A    
C11   P4    S    
O11   P6    D    
C8    C15   S    
C13   C14   A    
C47   H64   S    
C50   N11   S    
C19   P2    S    
H49   N9    S    
Ba1   O16   S    
Ba1   Ba2   S    
C32   H31   S    
C20   H30   S    
C16   N10   S    
C45   H14   S    
H50   N10   S    
C52   H19   S    
C47   H62   S    
C47   H63   S    
Ba1   P1    S    
C6    C7    D    
C21   C31   S    
C10   C15   A    
C21   C22   A    
O15   P2    D    
Ba1   O10   S    
C23   O7    S    
C1    N9    S    
O17   P3    D    
C34   H8    S    
C40   O13   S    
H55   N2    S    
N1    N4    A    
C44   H43   S    
C19   C20   A    
Ba2   O4    S    
C48   H66   S    
C41   H56   S    
O8    P8    D    
O19   P4    D    
H41   N7    S    
C4    C16   S    
C3    C46   S    
C43   H3    S    
C42   O12   S    
C4    H29   S    
C2    P6    S    
C11   C17   A    
C26   H27   S    
C32   C37   A    
C49   H70   S    
C43   N8    S    
Ba1   O20   S    
C50   H15   S    
C41   H72   S    
C39   H23   S    
C3    C5    D    
C34   H10   S    
C14   C15   A    
O12   P2    S    
C18   H35   S    
C51   O9    S    
C2    C53   S    
Ba2   O24   S    
C7    P1    S    
C5    C9    S    
C30   C49   S    
C35   C36   A    
Ba1   O4    S    
C40   H45   S    
C52   H18   S    
C17   C47   S    
C29   C30   A    
O23   P7    S    
Ba1   P2    S    
C42   H2    S    
Ba2   O19   S    
C27   C37   S    
H40   N7    S    
C33   P5    S    
C13   P8    S    
C28   C39   S    
C23   H6    S    
C18   C19   A    
Ba1   O1    S    
C41   H67   S    
O22   P4    S    
C1    C12   S    
C7    C53   D    
Ba2   O21   S    
C46   H57   S    
C44   H42   S    
Ba1   O23   S    
C36   H26   S    
O7    P7    S    
C12   O14   S    
N5    N6    A    
C48   H65   S    
C52   H21   S    
C1    H11   S    
O1    P1    D    
C40   C41   S    
Ba2   O20   S    
C29   C48   S    
C45   H13   S    
C39   N7    S    
C4    O18   S    
C42   C43   S    
C46   H59   S    
H46   N8    S    
O6    P7    D    
C24   P3    S    
O2    P5    D    
C49   H71   S    
C48   H68   S    
C8    N6    A    
C2    C3    S    
O13   P1    S    
O18   P3    S    
H53   N11   S    
C45   C50   S    
C28   H38   S    
C12   H5    S    
C1    C44   S    
O5    P2    S    
C40   H34   S    
C16   H37   S    
C30   C31   A    
C14   H24   S    
H48   N9    S    
C33   C38   A    
C8    N1    A    
C28   H39   S    
Ba1   O5    S    
C53   H25   S    
C38   H33   S    
C6    H22   S    
H61   N3    S    
C18   C24   A    
O9    P8    S    
C25   H28   S    
O21   P8    S    
O20   P4    S    
O24   P5    S    
C23   H7    S    
H52   N11   S    
Ba1   O15   S    
C22   H32   S    
H47   N8    S    
H51   N10   S    
C23   C34   S    
O3    P5    S    
C10   C11   A    
C27   C29   A    
O14   P6    S    
H54   N2    S    
C50   H16   S    
C20   C21   A    
C51   N2    S    
O16   P3    S    
C28   O22   S    
C34   H9    S    
C51   H17   S    
Ba2   P4    S    
C46   H58   S    
C25   C26   A    
C4    H20   S    
