data_mof_unit_13157.cif
_audit_creation_date              2012-12-10T16:57:45-0500
_audit_creation_method            fapswitch 2.2
_symmetry_space_group_name_H-M    P1
_symmetry_Int_Tables_number       1
_space_group_crystal_system       triclinic
_cell_length_a                    7.884421
_cell_length_b                    8.58285
_cell_length_c                    19.189024
_cell_angle_alpha                 93.516076
_cell_angle_beta                  83.483112
_cell_angle_gamma                 93.196398
_cell_volume                      1286.15754839

loop_
_atom_site_label
_atom_site_type_symbol
_atom_type_description
_atom_site_fract_x
_atom_site_fract_y
_atom_site_fract_z
_atom_type_partial_charge
C1    C     C_R   0.544011 0.794039 0.500303 0.883490
C2    C     C_R   0.455750 0.206006 0.500225 0.863531
C3    C     C_2   0.560527 0.958029 0.511287 0.164897
C4    C     C_2   0.437882 0.042020 0.490190 0.194605
C5    C     C_R   0.499262 0.502494 0.634220 0.911976
C6    C     C_R   0.501876 0.500224 0.365862 0.898000
C7    C     C_R   0.394334 0.602922 0.754991 0.153135
C8    C     C_R   0.642173 0.567808 0.248072 0.158264
C9    C     C_R   0.387588 0.591559 0.827928 0.157384
C10   C     C_R   0.637868 0.564991 0.175321 0.144077
C11   C     C_R   0.496750 0.490625 0.854679 -0.057992
C12   C     C_R   0.498073 0.487715 0.145359 -0.060935
C13   C     C_R   0.608367 0.397735 0.809077 0.187930
C14   C     C_R   0.364776 0.411009 0.187600 0.219703
C15   C     C_R   0.605416 0.403386 0.737056 -0.258417
C16   C     C_R   0.368971 0.418699 0.259904 -0.294321
C17   C     C_R   0.498311 0.503155 0.709987 -0.145053
C18   C     C_R   0.505524 0.495812 0.290078 -0.152850
C19   C     C_R   0.492862 0.487320 0.070258 0.287096
C20   C     C_R   0.496959 0.488341 0.930229 0.305449
H1    H     H_    0.689966 0.331425 0.701813 0.197379
H2    H     H_    0.264060 0.364576 0.292906 0.184663
N1    N     N_R   0.485981 0.351096 0.962135 -0.183159
N2    N     N_R   0.502001 0.624263 0.038448 -0.184262
N3    N     N_R   0.484915 0.350564 0.031322 -0.167626
N4    N     N_R   0.504453 0.624751 0.969348 -0.148637
N5    N     N_2   0.950330 0.457950 0.481240 0.056636
N6    N     N_2   0.049670 0.542050 0.518760 0.020535
O1    O     O_R   0.389250 0.738570 0.504600 -0.565644
O2    O     O_R   0.610750 0.261430 0.495400 -0.571770
O3    O     O_R   0.678400 0.711620 0.492580 -0.639726
O4    O     O_R   0.321600 0.288380 0.507420 -0.670672
O5    O     O_R   0.355380 0.513500 0.607880 -0.603765
O6    O     O_R   0.644620 0.486500 0.392120 -0.605041
O7    O     O_R   0.644530 0.486550 0.595850 -0.598465
O8    O     O_R   0.355470 0.513450 0.404150 -0.642048
Zn1   Zn    Zn3+2 0.306930 0.517990 0.508030 0.974639
Zn2   Zn    Zn3+2 0.693070 0.482010 0.491970 0.997135
N7    N     N_2   0.303319 0.718377 0.726722 -0.315121
H3    H     H_    0.184303 0.738367 0.752838 0.231912
C21   C     C_3   0.403866 0.861024 0.711573 -0.812334
H4    H     H_    0.443029 0.919462 0.760851 0.237929
H5    H     H_    0.326741 0.941973 0.686764 0.245837
H6    H     H_    0.519355 0.835698 0.674681 0.244257
N8    N     N_2   0.776987 0.652571 0.279685 -0.292403
H7    H     H_    0.798856 0.765316 0.263847 0.223999
C22   C     C_3   0.933387 0.570794 0.277518 -0.648751
H8    H     H_    0.007278 0.576280 0.224912 0.243761
H9    H     H_    0.905911 0.446506 0.289729 0.247801
H10   H     H_    0.013029 0.627151 0.317030 0.243987
N9    N     N_2   0.274062 0.682889 0.874929 -0.292382
H11   H     H_    0.263365 0.796037 0.861462 0.233017
C23   C     C_3   0.111152 0.603919 0.896195 -0.797012
H12   H     H_    0.035031 0.679961 0.935390 0.245725
H13   H     H_    0.130175 0.493282 0.920824 0.254191
H14   H     H_    0.038579 0.577854 0.850128 0.234358
N10   N     N_2   0.775805 0.639872 0.133273 -0.307060
H15   H     H_    0.744153 0.735953 0.108720 0.240834
C24   C     C_3   0.888621 0.537395 0.089534 -0.785224
H16   H     H_    0.018026 0.595673 0.081436 0.243441
H17   H     H_    0.841769 0.512224 0.037406 0.244417
H18   H     H_    0.898282 0.425548 0.114766 0.253802
N11   N     N_2   0.733093 0.307559 0.834182 -0.302323
H19   H     H_    0.772764 0.345073 0.882028 0.232696
C25   C     C_3   0.703733 0.139952 0.825768 -0.756689
H20   H     H_    0.809620 0.081015 0.845218 0.237710
H21   H     H_    0.700076 0.102784 0.769486 0.242664
H22   H     H_    0.581491 0.102914 0.856359 0.247196
N12   N     N_2   0.219816 0.336279 0.158823 -0.312104
H23   H     H_    0.194535 0.365782 0.109976 0.232203
C26   C     C_3   0.174737 0.175342 0.174854 -0.773861
H24   H     H_    0.188125 0.099387 0.125744 0.248298
H25   H     H_    0.039792 0.166251 0.198674 0.235796
H26   H     H_    0.257426 0.131358 0.211812 0.243441
O9    O     O_3   0.685175 0.025693 0.550858 -0.795578
H27   H     H_    0.750873 0.942748 0.567381 0.330165
O10   O     O_3   0.310558 0.974125 0.452012 -0.785098
H28   H     H_    0.242923 0.056713 0.436349 0.329417
N13   N     N_2   0.026939 0.364606 0.426584 -0.243836
H29   H     H_    0.147109 0.334991 0.431073 0.270662
C27   C     C_3   0.926456 0.228584 0.404648 -0.727336
H30   H     H_    0.000579 0.163800 0.360482 0.185822
H31   H     H_    0.808198 0.261176 0.384920 0.268838
H32   H     H_    0.898162 0.149380 0.448491 0.280878
N14   N     N_2   0.971949 0.667200 0.554300 -0.197869
H33   H     H_    0.980476 0.763109 0.524023 0.242682
C28   C     C_3   0.029058 0.705427 0.621956 -0.670889
H34   H     H_    0.021098 0.599543 0.652946 0.246602
H35   H     H_    0.946017 0.793657 0.650954 0.192889
H36   H     H_    0.161670 0.755956 0.614971 0.268502

loop_
_geom_bond_atom_site_label_1
_geom_bond_atom_site_label_2
_ccdc_geom_bond_type
C28   H34   S    
N11   C25   S    
C21   H4    S    
C9    N9    S    
C27   H30   S    
C22   H9    S    
O10   H28   S    
O8    Zn1   S    
N2    N4    A    
N5    N13   S    
N14   H33   S    
N10   C24   S    
C5    C17   S    
N5    Zn2   S    
C1    O3    A    
O2    Zn2   S    
C2    O4    A    
N8    C22   S    
N12   C26   S    
C8    N8    S    
C7    C17   A    
C5    O5    A    
C3    O9    S    
C23   H13   S    
C24   H16   S    
C21   H5    S    
C27   H31   S    
C22   H10   S    
C7    C9    A    
N14   C28   S    
C6    C18   S    
C11   C20   S    
C24   H17   S    
N9    H11   S    
O7    Zn2   S    
N13   H29   S    
N7    C21   S    
N7    H3    S    
N13   C27   S    
C25   H21   S    
C23   H12   S    
C8    C18   A    
C6    O6    A    
C1    C3    S    
C2    C4    S    
O9    H27   S    
C22   H8    S    
C13   N11   S    
C20   N1    A    
C15   H1    S    
C25   H22   S    
C10   N10   S    
C1    O1    A    
O4    Zn1   S    
C9    C11   A    
C10   C12   A    
C16   C18   A    
C12   C14   A    
C13   C15   A    
C21   H6    S    
C14   C16   A    
C3    C4    D    
N6    N14   S    
C27   H32   S    
C26   H25   S    
C23   H14   S    
C15   C17   A    
C24   H18   S    
C16   H2    S    
O6    Zn2   S    
C26   H26   S    
O3    Zn2   S    
C2    O2    A    
C28   H35   S    
C19   N2    A    
C26   H24   S    
C11   C13   A    
N10   H15   S    
C20   N4    A    
N6    Zn1   S    
C5    O7    A    
C12   C19   S    
C14   N12   S    
C6    O8    A    
N1    N3    A    
N12   H23   S    
C19   N3    A    
O5    Zn1   S    
N11   H19   S    
N8    H7    S    
C4    O10   S    
C8    C10   A    
C25   H20   S    
C28   H36   S    
O1    Zn1   S    
N5    N6    D    
C7    N7    S    
N9    C23   S    
