data_mof_unit_43146.cif
_audit_creation_date              2012-10-26T20:03:18-0400
_audit_creation_method            fapswitch 2.2
_symmetry_space_group_name_H-M    P1
_symmetry_Int_Tables_number       1
_space_group_crystal_system       triclinic
_cell_length_a                    10.604836
_cell_length_b                    12.32922
_cell_length_c                    13.176933
_cell_angle_alpha                 116.657379
_cell_angle_beta                  77.714907
_cell_angle_gamma                 101.020945
_cell_volume                      1495.42155538

loop_
_atom_site_label
_atom_site_type_symbol
_atom_type_description
_atom_site_fract_x
_atom_site_fract_y
_atom_site_fract_z
_atom_type_partial_charge
C1    C     C_R   0.511778 0.854911 0.286550 0.520932
C2    C     C_R   0.502146 0.566314 0.009399 0.027891
C3    C     C_R   0.461537 0.650683 0.123144 0.015886
C4    C     C_R   0.740250 0.999157 0.499659 0.582001
C5    C     C_R   0.459099 0.440117 0.976117 0.023437
C6    C     C_R   0.367724 0.401806 0.052716 0.046450
C7    C     C_R   0.318028 0.488010 0.159142 -0.132847
C8    C     C_R   0.362518 0.610716 0.193189 -0.116399
C9    C     C_R   0.504596 0.350404 0.868982 -0.114088
C10   C     C_R   0.366758 0.191014 0.911683 -0.128620
C11   C     C_R   0.520773 0.773054 0.163380 -0.005845
C12   C     C_3   0.018095 0.012600 0.603040 -0.102117
C13   C     C_R   0.705457 0.343914 0.326191 -0.121109
C14   C     C_R   0.324652 0.759972 0.645623 0.084718
C15   C     C_R   0.286322 0.663268 0.676855 0.213639
C16   C     C_R   0.481134 0.145077 0.713408 0.569186
C17   C     C_R   0.352113 0.559359 0.621173 -0.093059
C18   C     C_R   0.457657 0.550944 0.533207 -0.063457
C19   C     C_R   0.493171 0.652474 0.504415 0.117642
C20   C     C_R   0.529530 0.446475 0.473511 -0.051470
C21   C     C_R   0.633893 0.445046 0.385242 0.053802
C22   C     C_R   0.665668 0.543986 0.356176 0.227337
C23   C     C_3   0.933609 0.905585 0.520671 -0.135651
C24   C     C_R   0.598320 0.646459 0.417460 -0.074747
C25   C     C_R   0.502874 0.342448 0.497506 0.048918
C26   C     C_R   0.674289 0.245272 0.354210 0.037856
C27   C     C_R   0.259737 0.000633 0.500083 0.552492
C28   C     C_3   0.982185 0.986958 0.396862 -0.160579
C29   C     C_3   0.041031 0.894241 0.417580 -0.130004
C30   C     C_3   0.123057 0.001304 0.499826 0.002356
C31   C     C_3   0.066750 0.094164 0.478969 -0.088445
C32   C     C_3   0.959844 0.103940 0.581056 0.249865
C33   C     C_3   0.725355 0.536709 0.176590 -0.111466
C34   C     C_3   0.876903 0.998274 0.499865 0.041152
C35   C     C_R   0.324313 0.277566 0.020722 -0.121953
C36   C     C_R   0.454534 0.228077 0.834672 0.009400
C37   C     C_R   0.601899 0.814257 0.085820 -0.125829
C38   C     C_R   0.630044 0.734701 0.971290 -0.114355
C39   C     C_R   0.583243 0.611798 0.933366 -0.096712
Cl1   Cl    Cl    0.155366 0.672329 0.786194 -0.595978
Cl2   Cl    Cl    0.902999 0.242834 0.689788 -0.578503
Cu1   Cu    Cu3+1 0.529830 0.098270 0.475420 0.967361
Cu2   Cu    Cu3+1 0.470170 0.901730 0.524580 0.925698
H1    H     H_    0.077881 0.808104 0.350295 0.141320
H2    H     H_    0.273502 0.840450 0.688964 0.149813
H3    H     H_    0.964248 0.976006 0.312605 0.125315
H4    H     H_    0.318505 0.487130 0.648491 0.146542
H5    H     H_    0.633133 0.720005 0.394134 0.190499
H6    H     H_    0.123362 0.171851 0.462742 0.144446
H7    H     H_    0.035862 0.024041 0.687518 0.136635
H8    H     H_    0.876616 0.828227 0.537243 0.150677
H9    H     H_    0.326792 0.096371 0.886001 0.135408
H10   H     H_    0.244108 0.460533 0.216435 0.120783
H11   H     H_    0.254400 0.247880 0.078767 0.116756
H12   H     H_    0.577854 0.373018 0.809033 0.149034
H13   H     H_    0.693899 0.625035 0.193898 0.124550
H14   H     H_    0.645427 0.461387 0.148285 0.128822
H15   H     H_    0.806536 0.516855 0.104338 0.176129
H16   H     H_    0.646767 0.907729 0.114288 0.130947
H17   H     H_    0.610269 0.555701 0.843481 0.124856
H18   H     H_    0.692103 0.767729 0.912045 0.141580
H19   H     H_    0.315610 0.673730 0.274110 0.154099
H20   H     H_    0.728971 0.167170 0.308625 0.120919
H21   H     H_    0.785154 0.340456 0.258356 0.153096
H22   H     H_    0.425465 0.335472 0.562710 0.125205
N1    N     N_R   0.575030 0.246270 0.438190 -0.231136
N2    N     N_R   0.425760 0.754330 0.561190 -0.266554
O1    O     O_R   0.537510 0.972500 0.318130 -0.507010
O2    O     O_R   0.487140 0.806530 0.359650 -0.538125
O3    O     O_R   0.708330 0.082950 0.479220 -0.473068
O4    O     O_R   0.657960 0.916980 0.520740 -0.524304
O5    O     O_R   0.512860 0.193470 0.640350 -0.494220
O6    O     O_R   0.462490 0.027500 0.681870 -0.504706
O7    O     O_R   0.342040 0.083020 0.479260 -0.506739
O8    O     O_R   0.291670 0.917050 0.520780 -0.512079
O9    O     O_3   0.770660 0.544378 0.273095 -0.584278

loop_
_geom_bond_atom_site_label_1
_geom_bond_atom_site_label_2
_ccdc_geom_bond_type
Cu2   O6    S    
C33   H15   S    
C1    C11   S    
C22   O9    S    
C10   H9    S    
C4    O3    A    
C7    C8    A    
C12   C23   S    
C28   H3    S    
C37   C38   A    
C23   C29   S    
C28   C29   S    
C30   C31   S    
C20   C25   A    
Cu1   O3    S    
C1    O1    A    
C6    C35   A    
C18   C19   A    
C11   C37   A    
C2    C39   A    
C16   O5    A    
C9    C36   A    
C33   H14   S    
C32   Cl2   S    
C19   N2    A    
C10   C35   A    
C9    H12   S    
C27   O7    A    
C38   H18   S    
C33   H13   S    
C28   C34   S    
Cu2   O2    S    
C21   C22   A    
C12   C32   S    
C27   C30   S    
Cu1   O1    S    
C31   H6    S    
C27   O8    A    
C14   H2    S    
Cu2   O8    S    
C38   C39   A    
C4    C34   S    
Cu1   O7    S    
C16   O6    A    
C24   H5    S    
C25   H22   S    
C3    C8    A    
C1    O2    A    
C26   N1    A    
C26   H20   S    
C5    C9    A    
C29   C30   S    
C33   O9    S    
C23   H8    S    
C31   C32   S    
C14   N2    A    
C23   C34   S    
Cu1   O5    S    
C17   C18   A    
C13   C21   A    
C37   H16   S    
C29   H1    S    
C22   C24   A    
C13   C26   A    
C2    C5    A    
Cu1   Cu2   S    
C7    H10   S    
C15   C17   A    
Cu2   O4    S    
C12   C30   S    
C28   C31   S    
C25   N1    A    
C17   H4    S    
C12   H7    S    
C6    C7    A    
C2    C3    A    
C16   C36   S    
C5    C6    A    
C13   H21   S    
C39   H17   S    
C19   C24   A    
C18   C20   A    
C15   Cl1   S    
C3    C11   A    
C20   C21   A    
Cu2   N2    S    
C8    H19   S    
Cu1   N1    S    
C14   C15   A    
C10   C36   A    
C4    O4    A    
C32   C34   S    
C35   H11   S    
