data_mof_unit_40066.cif
_audit_creation_date              2012-10-26T21:10:49-0400
_audit_creation_method            fapswitch 2.2
_symmetry_space_group_name_H-M    P1
_symmetry_Int_Tables_number       1
_space_group_crystal_system       triclinic
_cell_length_a                    10.830735
_cell_length_b                    14.676448
_cell_length_c                    14.750534
_cell_angle_alpha                 65.312206
_cell_angle_beta                  103.706165
_cell_angle_gamma                 102.972971
_cell_volume                      2048.68525433

loop_
_atom_site_label
_atom_site_type_symbol
_atom_type_description
_atom_site_fract_x
_atom_site_fract_y
_atom_site_fract_z
_atom_type_partial_charge
C1    C     C_R   0.477463 0.119571 0.312394 0.544742
C2    C     C_R   0.611909 0.785069 0.971658 0.266698
C3    C     C_R   0.421331 0.148493 0.129211 -0.123722
C4    C     C_R   0.589833 0.851245 0.870435 -0.122647
C5    C     C_R   0.490332 0.291410 0.179388 -0.156424
C6    C     C_R   0.504883 0.708956 0.820806 -0.158161
C7    C     C_R   0.482459 0.359933 0.078270 -0.009507
C8    C     C_R   0.527225 0.639830 0.921295 -0.010299
C9    C     C_R   0.437761 0.320010 0.001728 0.055595
C10   C     C_R   0.579371 0.679435 0.997532 0.054233
C11   C     C_R   0.516343 0.466721 0.051533 0.035967
C12   C     C_R   0.521560 0.880463 0.687620 0.543996
C13   C     C_R   0.498453 0.532839 0.947788 0.037212
C14   C     C_R   0.454795 0.489692 0.873932 -0.162850
C15   C     C_R   0.569658 0.509474 0.124963 -0.164367
C16   C     C_R   0.262823 0.998937 0.502575 0.546725
C17   C     C_R   0.737192 0.000990 0.497532 0.547596
C18   C     C_R   0.425629 0.385885 0.900536 -0.136819
C19   C     C_R   0.599965 0.613215 0.098353 -0.137638
C20   C     C_R   0.713332 0.283968 0.669739 -0.147502
C21   C     C_R   0.291254 0.718132 0.327092 -0.147325
C22   C     C_R   0.679519 0.202429 0.639790 0.021212
C23   C     C_R   0.870635 0.001338 0.495541 -0.000595
C24   C     C_R   0.322449 0.798453 0.358812 0.021466
C25   C     C_R   0.520041 0.285816 0.508383 0.049281
C26   C     C_R   0.480453 0.714405 0.491344 0.049323
C27   C     C_R   0.550020 0.372082 0.534625 -0.039923
C28   C     C_R   0.453539 0.629577 0.463012 -0.039150
C29   C     C_R   0.648796 0.369153 0.618035 0.049840
C30   C     C_R   0.356571 0.633348 0.378327 0.050131
C31   C     C_R   0.485262 0.459707 0.482078 -0.048758
C32   C     C_R   0.519618 0.542581 0.514692 -0.048917
C33   C     C_R   0.619247 0.536039 0.597592 -0.122848
C34   C     C_R   0.129405 0.998329 0.504912 -0.000490
C35   C     C_R   0.388109 0.467438 0.397441 -0.121270
C36   C     C_R   0.681388 0.450452 0.649776 0.272151
C37   C     C_R   0.326986 0.553468 0.344629 0.272602
C38   C     C_R   0.365284 0.083514 0.761861 -0.080530
C39   C     C_R   0.639313 0.918227 0.234955 -0.081424
C40   C     C_R   0.270851 0.036377 0.706250 -0.063032
C41   C     C_R   0.731183 0.964387 0.292866 -0.061847
C42   C     C_R   0.188181 0.093946 0.622859 0.043702
C43   C     C_R   0.812238 0.906145 0.377087 0.044518
C44   C     C_R   0.198015 0.198353 0.598762 -0.102937
C45   C     C_R   0.906182 0.953501 0.441785 -0.030686
C46   C     C_R   0.802733 0.801932 0.400293 -0.102777
C47   C     C_R   0.291641 0.244903 0.655318 -0.123674
C48   C     C_R   0.711442 0.756325 0.341645 -0.120497
C49   C     C_R   0.376397 0.187826 0.735792 -0.074413
C50   C     C_R   0.628836 0.814179 0.259817 -0.071385
C51   C     C_R   0.964528 0.047583 0.552514 -0.151418
C52   C     C_R   0.035524 0.951976 0.448080 -0.151072
C53   C     C_3   0.228593 0.147645 0.945083 -0.141461
C54   C     C_3   0.792521 0.852485 0.049820 -0.140867
C55   C     C_3   0.729575 0.430534 0.814915 -0.130440
C56   C     C_R   0.093889 0.046065 0.558778 -0.030481
C57   C     C_3   0.289217 0.577700 0.178524 -0.129501
C58   C     C_R   0.462929 0.186883 0.205144 -0.054266
C59   C     C_R   0.538185 0.813223 0.794879 -0.055054
C60   C     C_R   0.404785 0.214393 0.027634 0.267339
Cu1   Cu    Cu3+1 0.466270 0.918260 0.475690 0.933317
Cu2   Cu    Cu3+1 0.533730 0.081740 0.524310 0.933443
H1    H     H_    0.450594 0.224472 0.777992 0.142359
H2    H     H_    0.217097 0.723213 0.262055 0.141847
H3    H     H_    0.653016 0.596755 0.624056 0.108454
H4    H     H_    0.356895 0.408004 0.369028 0.107754
H5    H     H_    0.430367 0.039309 0.824757 0.121079
H6    H     H_    0.575922 0.963020 0.171026 0.119822
H7    H     H_    0.264127 0.955687 0.726436 0.100313
H8    H     H_    0.737774 0.044957 0.273290 0.101378
H9    H     H_    0.135046 0.243938 0.534961 0.118386
H10   H     H_    0.864541 0.755848 0.464692 0.118715
H11   H     H_    0.299944 0.325566 0.635703 0.117641
H12   H     H_    0.556781 0.778334 0.215657 0.141304
H13   H     H_    0.703579 0.675851 0.360410 0.117196
H14   H     H_    0.937096 0.082824 0.595021 0.127903
H15   H     H_    0.062973 0.916835 0.405487 0.128686
H16   H     H_    0.393157 0.357409 0.840619 0.147209
H17   H     H_    0.640409 0.641359 0.157949 0.149804
H18   H     H_    0.459854 0.683955 0.760462 0.135998
H19   H     H_    0.516203 0.317323 0.240386 0.132379
H20   H     H_    0.614083 0.932148 0.851276 0.127678
H21   H     H_    0.399584 0.067519 0.148291 0.127849
H22   H     H_    0.179579 0.214064 0.925604 0.121685
H23   H     H_    0.444701 0.533363 0.793836 0.100595
H24   H     H_    0.200815 0.085206 0.015500 0.107238
H25   H     H_    0.194216 0.119694 0.882961 0.147982
H26   H     H_    0.816352 0.916294 0.978960 0.107692
H27   H     H_    0.841332 0.787062 0.065365 0.120465
H28   H     H_    0.830693 0.878837 0.112834 0.146787
H29   H     H_    0.658214 0.360290 0.833643 0.117047
H30   H     H_    0.685993 0.496405 0.805202 0.124623
H31   H     H_    0.808638 0.419302 0.880314 0.149183
H32   H     H_    0.335443 0.512844 0.188921 0.124858
H33   H     H_    0.360035 0.648272 0.162929 0.116606
H34   H     H_    0.592162 0.465326 0.204502 0.105647
H35   H     H_    0.213452 0.589606 0.110884 0.148628
H36   H     H_    0.553568 0.719145 0.553371 0.122410
H37   H     H_    0.444675 0.279974 0.448031 0.122535
H38   H     H_    0.273422 0.864286 0.318296 0.117198
H39   H     H_    0.728446 0.136544 0.680327 0.117040
H40   H     H_    0.789022 0.279578 0.733710 0.142237
N1    N     N_R   0.584450 0.204570 0.560790 -0.226620
N2    N     N_R   0.415550 0.795430 0.439210 -0.226910
O1    O     O_R   0.455540 0.022090 0.338120 -0.511345
O2    O     O_3   0.658664 0.824084 0.045842 -0.593658
O3    O     O_3   0.781299 0.449303 0.728542 -0.577084
O4    O     O_3   0.231374 0.556590 0.262701 -0.577514
O5    O     O_R   0.544460 0.977910 0.661880 -0.511279
O6    O     O_R   0.512510 0.160150 0.379180 -0.509592
O7    O     O_R   0.487490 0.839850 0.620820 -0.509865
O8    O     O_R   0.291160 0.930970 0.479480 -0.509405
O9    O     O_R   0.708840 0.069030 0.520520 -0.508957
O10   O     O_R   0.348130 0.069020 0.520540 -0.490806
O11   O     O_R   0.651870 0.930980 0.479460 -0.490626
O12   O     O_3   0.363007 0.174981 0.953502 -0.594668

loop_
_geom_bond_atom_site_label_1
_geom_bond_atom_site_label_2
_ccdc_geom_bond_type
C54   H26   S    
C34   C56   A    
C8    C13   A    
C23   C45   A    
C27   C29   A    
C39   H6    S    
C14   C18   A    
C55   H31   S    
C17   O9    A    
C39   C41   A    
C38   C49   A    
C7    C11   A    
C29   C36   A    
C16   O8    A    
C17   C23   S    
C22   H39   S    
C5    C58   A    
C53   H22   S    
C49   H1    S    
C35   C37   A    
Cu2   O10   S    
C50   H12   S    
C20   H40   S    
C33   C36   A    
C44   H9    S    
C51   C56   A    
C21   H2    S    
C55   H29   S    
C26   N2    A    
C15   C19   A    
C12   C59   S    
C11   C15   A    
C25   H37   S    
Cu1   O11   S    
C53   H24   S    
Cu1   O1    S    
C33   H3    S    
C46   H10   S    
C44   C47   A    
C42   C56   S    
C3    C60   A    
C40   C42   A    
C13   C14   A    
C36   O3    S    
C41   C43   A    
C48   H13   S    
C42   C44   A    
C12   O5    A    
C20   C29   A    
C46   C48   A    
C40   H7    S    
C54   O2    S    
C27   C31   A    
C28   C32   A    
Cu1   N2    S    
C51   H14   S    
C47   H11   S    
C37   O4    S    
C47   C49   A    
C15   H34   S    
C5    C7    A    
C25   N1    A    
C6    C8    A    
C45   C52   A    
C2    O2    S    
C22   N1    A    
C30   C37   A    
C55   O3    S    
C24   N2    A    
C2    C4    A    
C55   H30   S    
C1    O6    A    
C5    H19   S    
C23   C51   A    
C31   C32   A    
Cu2   O6    S    
C10   C19   A    
C18   H16   S    
C57   H35   S    
C57   O4    S    
C53   H25   S    
C19   H17   S    
C43   C45   S    
C26   H36   S    
C20   C22   A    
C57   H32   S    
C16   C34   S    
C3    H21   S    
C6    H18   S    
C31   C35   A    
C60   O12   S    
C52   H15   S    
Cu1   O7    S    
C17   O11   A    
Cu2   N1    S    
C7    C9    A    
Cu2   O9    S    
C24   H38   S    
C34   C52   A    
C6    C59   A    
C14   H23   S    
C16   O10   A    
C53   O12   S    
C54   H28   S    
C25   C27   A    
C21   C30   A    
C26   C28   A    
C35   H4    S    
C9    C60   A    
C32   C33   A    
C28   C30   A    
C1    C58   S    
C38   C40   A    
C11   C13   A    
Cu2   O5    S    
C4    C59   A    
C48   C50   A    
C54   H27   S    
Cu1   Cu2   S    
C43   C46   A    
C3    C58   A    
C9    C18   A    
C39   C50   A    
C4    H20   S    
C38   H5    S    
C8    C10   A    
C57   H33   S    
C21   C24   A    
Cu1   O8    S    
C12   O7    A    
C1    O1    A    
C41   H8    S    
C2    C10   A    
