data_mof_unit_54754.cif
_audit_creation_date              2012-12-11T14:27:05-0500
_audit_creation_method            fapswitch 2.2
_symmetry_space_group_name_H-M    P1
_symmetry_Int_Tables_number       1
_space_group_crystal_system       triclinic
_cell_length_a                    15.000634
_cell_length_b                    14.927755
_cell_length_c                    14.929754
_cell_angle_alpha                 109.528492
_cell_angle_beta                  109.250563
_cell_angle_gamma                 109.324877
_cell_volume                      2583.3417481

loop_
_atom_site_label
_atom_site_type_symbol
_atom_type_description
_atom_site_fract_x
_atom_site_fract_y
_atom_site_fract_z
_atom_type_partial_charge
C1    C     C_R   0.955194 0.772655 0.050972 -0.132528
C2    C     C_R   0.199915 0.804504 0.293143 0.308893
C3    C     C_R   0.928420 0.406267 0.215851 -0.124476
C4    C     C_R   0.778735 0.220875 0.687500 -0.151767
C5    C     C_R   0.313315 0.591835 0.067578 -0.136353
C6    C     C_R   0.974012 0.496513 0.316251 0.151316
C7    C     C_R   0.325286 0.500416 0.052784 0.011997
C8    C     C_R   0.292328 0.869284 0.294896 0.037095
C9    C     C_R   0.931463 0.132766 0.928589 0.139476
C10   C     C_3   0.529497 0.490295 0.960685 -0.480860
C11   C     C_3   0.429688 0.495058 0.960004 -0.395042
C12   C     C_R   0.676334 0.184626 0.676452 0.134575
C13   C     C_3   0.534162 0.400049 0.077473 0.165099
C14   C     C_3   0.632182 0.608203 0.165698 -0.391920
C15   C     C_3   0.601265 0.499679 0.068926 0.355070
C16   C     C_R   0.030602 0.590911 0.777076 -0.154392
C17   C     C_3   0.426623 0.500256 0.064462 0.352935
C18   C     C_3   0.429299 0.399950 0.072563 -0.433208
C19   C     C_3   0.529375 0.605061 0.167390 -0.404918
C20   C     C_2   0.382439 0.032081 0.470417 -0.179701
C21   C     C_2   0.366678 0.987558 0.368088 0.295082
C22   C     C_2   0.486973 0.120626 0.563505 -0.123768
C23   C     C_R   0.955676 0.500333 0.675444 0.142796
C24   C     C_2   0.575556 0.112452 0.574522 -0.193530
C25   C     C_2   0.843285 0.418623 0.475982 0.369300
C26   C     C_2   0.909490 0.506478 0.576829 -0.233554
C27   C     C_2   0.859783 0.424226 0.385885 -0.162608
C28   C     C_R   0.698712 0.408807 0.000717 -0.159981
C29   C     C_2   0.956286 0.495194 0.404981 -0.258435
C30   C     C_2   0.930085 0.963877 0.840568 -0.119417
C31   C     C_2   0.885959 0.015926 0.885698 -0.198794
C32   C     C_2   0.943595 0.880805 0.864505 -0.116277
C33   C     C_2   0.956507 0.886387 0.959960 -0.199535
C34   C     C_R   0.696787 0.499929 0.061994 0.016393
C35   C     C_R   0.943376 0.409132 0.686209 -0.121245
C36   C     C_R   0.789014 0.591093 0.092533 -0.140578
C37   C     C_R   0.687002 0.229712 0.779144 -0.127498
C38   C     C_R   0.053922 0.779037 0.966336 -0.125529
C39   C     C_R   0.988314 0.816543 0.992357 0.132992
C40   C     C_3   0.136824 0.845987 0.338234 -1.102960
C41   C     C_3   0.599673 0.397020 0.179385 -1.045170
C42   C     C_3   0.433569 0.051689 0.331607 -0.988257
C43   C     C_3   0.755171 0.312985 0.450929 -1.032708
C44   C     C_R   0.019482 0.589487 0.309416 -0.145858
C45   C     C_R   0.223363 0.408641 0.976634 -0.142072
C46   C     C_R   0.294886 0.804075 0.205764 -0.216453
C47   C     C_R   0.905714 0.196943 0.993940 -0.149353
C48   C     C_R   0.996310 0.196659 0.902271 -0.127430
H1    H     H_    0.907595 0.789144 0.088295 0.093060
H2    H     H_    0.431275 0.568374 0.955113 0.166857
H3    H     H_    0.797930 0.190949 0.624023 0.092099
H4    H     H_    0.355716 0.421671 0.885059 0.159036
H5    H     H_    0.507945 0.322836 0.005122 0.100553
H6    H     H_    0.358572 0.322180 0.999975 0.125004
H7    H     H_    0.690741 0.623066 0.245103 0.163751
H8    H     H_    0.672202 0.678891 0.155895 0.148247
H9    H     H_    0.530641 0.680810 0.170662 0.147626
H10   H     H_    0.531195 0.606174 0.242878 0.161631
H11   H     H_    0.423166 0.401562 0.145344 0.176594
H12   H     H_    0.202597 0.323776 0.940401 0.095362
H13   H     H_    0.330801 0.987416 0.494046 0.127463
H14   H     H_    0.065653 0.674046 0.793891 0.089830
H15   H     H_    0.488432 0.180227 0.630959 0.127010
H16   H     H_    0.573684 0.050491 0.508615 0.149957
H17   H     H_    0.950173 0.587019 0.586409 0.101450
H18   H     H_    0.794613 0.363952 0.302636 0.139348
H19   H     H_    0.024374 0.554993 0.486677 0.135583
H20   H     H_    0.977695 0.996553 0.806706 0.115861
H21   H     H_    0.833036 0.978657 0.913119 0.131051
H22   H     H_    0.958038 0.824456 0.810855 0.121696
H23   H     H_    0.345971 0.832461 0.173282 0.125759
H24   H     H_    0.643560 0.324176 0.970587 0.087100
H25   H     H_    0.945407 0.943638 0.016622 0.133596
H26   H     H_    0.901835 0.326074 0.621560 0.111581
H27   H     H_    0.818318 0.675628 0.148053 0.084736
H28   H     H_    0.623671 0.213220 0.800739 0.088073
H29   H     H_    0.104266 0.809959 0.934468 0.086085
H30   H     H_    0.048979 0.672239 0.369531 0.115820
H31   H     H_    0.159070 0.853725 0.420080 0.239865
H32   H     H_    0.152519 0.926364 0.344026 0.259939
H33   H     H_    0.048170 0.788589 0.283574 0.259663
H34   H     H_    0.844299 0.168144 0.015828 0.089412
H35   H     H_    0.551222 0.319400 0.174893 0.254062
H36   H     H_    0.676055 0.400526 0.183683 0.252526
H37   H     H_    0.619929 0.466062 0.255661 0.267320
H38   H     H_    0.378465 0.039328 0.252073 0.242289
H39   H     H_    0.480722 0.140970 0.390710 0.268458
H40   H     H_    0.490755 0.022828 0.321324 0.234041
H41   H     H_    0.677840 0.287181 0.380226 0.251627
H42   H     H_    0.777267 0.247899 0.429264 0.241129
H43   H     H_    0.739771 0.322283 0.520450 0.261557
H44   H     H_    0.017030 0.168315 0.839483 0.081833
H45   H     H_    0.876394 0.321617 0.189133 0.092541
H46   H     H_    0.375335 0.676924 0.115926 0.093673
H47   H     H_    0.503257 0.411874 0.889523 0.158948
H48   H     H_    0.575888 0.557897 0.950076 0.179083
N1    N     N_R   0.993980 0.704500 0.053430 -0.038235
N2    N     N_R   0.053690 0.556380 0.849240 -0.041188
N3    N     N_R   0.790390 0.443640 0.997160 -0.031529
N4    N     N_R   0.998260 0.443670 0.792970 -0.047462
N5    N     N_R   0.845830 0.556350 0.053430 -0.033332
N6    N     N_R   0.792820 0.295510 0.849240 -0.041378
N7    N     N_R   0.051260 0.704510 0.997160 -0.039248
N8    N     N_R   0.001740 0.556330 0.207030 -0.040283
N9    N     N_R   0.154170 0.443650 0.946570 -0.039159
N10   N     N_R   0.207180 0.704490 0.150760 -0.051765
N11   N     N_R   0.948740 0.295490 0.002840 -0.039843
N12   N     N_R   0.006020 0.295500 0.946570 -0.041990
N13   N     N_R   0.149890 0.704480 0.207030 -0.050453
N14   N     N_R   0.946310 0.443620 0.150760 -0.043803
N15   N     N_R   0.209610 0.556360 0.002840 -0.037284
N16   N     N_R   0.850110 0.295520 0.792970 -0.038862
Ni1   Ni    Ni4+2 0.997880 0.629240 0.129060 0.210430
Ni2   Ni    Ni4+2 0.002120 0.370760 0.870940 0.205258
Ni3   Ni    Ni4+2 0.129260 0.629260 0.000000 0.206663
Ni4   Ni    Ni4+2 0.870740 0.370740 0.000000 0.206837

loop_
_geom_bond_atom_site_label_1
_geom_bond_atom_site_label_2
_ccdc_geom_bond_type
C14   H8    S    
C2    N13   A    
C27   C29   D    
N5    Ni1   S    
N6    N16   A    
C3    C6    A    
C25   C43   S    
C13   C41   S    
C5    H46   S    
C44   N8    A    
C35   H26   S    
C48   N12   A    
C19   H9    S    
C33   C39   S    
C13   C18   S    
C7    C45   A    
C18   H6    S    
C10   C15   S    
C30   C31   D    
C47   H34   S    
C3    N14   A    
C41   H35   S    
C20   H13   S    
C23   C26   S    
N12   Ni2   S    
C12   C37   A    
C45   H12   S    
C11   H4    S    
C22   H15   S    
C29   H19   S    
C7    C17   S    
N11   N12   A    
C40   H32   S    
C42   H38   S    
C4    C12   A    
C15   C34   S    
N13   Ni1   S    
C14   H7    S    
C4    N16   A    
C28   C34   A    
C24   H16   S    
C6    C44   A    
C28   H24   S    
C16   H14   S    
C40   H33   S    
N16   Ni2   S    
C45   N9    A    
C8    C21   S    
C13   H5    S    
C19   H10   S    
C43   H42   S    
C4    H3    S    
N9    Ni2   S    
N4    Ni2   S    
C1    N1    A    
N3    Ni4   S    
C5    C7    A    
C1    C39   A    
C32   H22   S    
C5    N15   A    
C25   C26   D    
C41   H36   S    
C43   H43   S    
C37   N6    A    
C21   C42   S    
C36   N5    A    
N7    Ni3   S    
C38   N7    A    
C36   H27   S    
C10   H48   S    
C17   C18   S    
C40   H31   S    
C3    H45   S    
C43   H41   S    
C46   H23   S    
N1    N7    A    
C28   N3    A    
C33   H25   S    
N3    N5    A    
C37   H28   S    
C20   C22   S    
C9    C47   A    
C16   C23   A    
C23   C35   A    
C13   C15   S    
C22   C24   D    
C42   H40   S    
N1    Ni1   S    
C35   N4    A    
N14   Ni4   S    
N8    N14   A    
C11   C17   S    
C26   H17   S    
C14   C19   S    
C2    C8    A    
C38   H29   S    
C25   C27   S    
C41   H37   S    
C12   C24   S    
C47   N11   A    
N10   Ni3   S    
C32   C33   D    
C44   H30   S    
C27   H18   S    
C30   C32   S    
C16   N2    A    
N2    Ni3   S    
C38   C39   A    
C10   H47   S    
C46   N10   A    
C17   C19   S    
C34   C36   A    
N9    N15   A    
N2    N4    A    
C8    C46   A    
N11   Ni4   S    
N6    Ni4   S    
C10   C11   S    
C9    C31   S    
N8    Ni1   S    
C2    C40   S    
C18   H11   S    
C31   H21   S    
C6    C29   S    
C20   C21   D    
C9    C48   A    
C48   H44   S    
C11   H2    S    
C14   C15   S    
N15   Ni3   S    
C42   H39   S    
C1    H1    S    
C30   H20   S    
N10   N13   A    
