data_mof_unit_34591.cif
_audit_creation_date              2012-12-10T17:03:57-0500
_audit_creation_method            fapswitch 2.2
_symmetry_space_group_name_H-M    P1
_symmetry_Int_Tables_number       1
_space_group_crystal_system       triclinic
_cell_length_a                    9.818913
_cell_length_b                    11.120788
_cell_length_c                    15.73442
_cell_angle_alpha                 94.330659
_cell_angle_beta                  79.547272
_cell_angle_gamma                 111.723079
_cell_volume                      1569.53831254

loop_
_atom_site_label
_atom_site_type_symbol
_atom_type_description
_atom_site_fract_x
_atom_site_fract_y
_atom_site_fract_z
_atom_type_partial_charge
C1    C     C_R   0.557389 0.744990 0.503580 0.849588
C2    C     C_R   0.443614 0.254854 0.494640 0.852554
C3    C     C_R   0.365440 0.319735 0.054245 0.449703
C4    C     C_R   0.692011 0.547687 0.917932 0.460126
C5    C     C_R   0.261561 0.275632 0.997894 0.342637
C6    C     C_R   0.792184 0.595582 0.976527 0.361259
C7    C     C_2   0.588805 0.882920 0.504939 -0.434714
C8    C     C_2   0.414913 0.116918 0.489246 -0.425781
C9    C     C_2   0.491617 0.931841 0.485353 0.369275
C10   C     C_2   0.515977 0.068845 0.503907 0.362093
C11   C     C_2   0.924925 0.494820 0.490197 0.125673
C12   C     C_2   0.075735 0.507561 0.507639 0.067148
C13   C     C_R   0.410911 0.482665 0.662725 0.882780
C14   C     C_R   0.588933 0.515031 0.336825 0.851295
C15   C     C_R   0.355132 0.444924 0.753409 -0.288531
C16   C     C_R   0.644092 0.527580 0.242961 -0.328064
C17   C     C_R   0.192894 0.283626 0.857882 -0.243441
C18   C     C_R   0.845033 0.610487 0.123067 -0.228721
C19   C     C_R   0.227260 0.335043 0.775387 0.484817
C20   C     C_R   0.796378 0.588319 0.211189 0.521368
C21   C     C_R   0.448099 0.502014 0.814540 0.564390
C22   C     C_R   0.543095 0.482672 0.184300 0.577136
C23   C     C_R   0.428724 0.438280 0.892616 -0.063528
C24   C     C_R   0.593920 0.489829 0.094381 -0.071016
C25   C     C_R   0.292953 0.333210 0.916794 -0.176472
C26   C     C_R   0.744366 0.565589 0.064431 -0.196126
C27   C     C_R   0.538494 0.476519 0.947676 -0.150105
C28   C     C_R   0.496653 0.430926 0.033803 -0.136261
Cu1   Cu    Cu3+1 0.362980 0.479380 0.485080 1.034497
Cu2   Cu    Cu3+1 0.637020 0.520620 0.514920 0.998066
H1    H     H_    0.091717 0.200102 0.873571 0.202993
H2    H     H_    0.961981 0.664026 0.101096 0.214220
H3    H     H_    0.310709 0.054118 0.469809 0.160864
H4    H     H_    0.691830 0.944983 0.525834 0.153581
H5    H     H_    0.118109 0.566536 0.561960 0.158874
H6    H     H_    0.883865 0.438632 0.434663 0.154744
N1    N     N_2   0.842890 0.551600 0.537350 -0.040321
N2    N     N_2   0.157110 0.448400 0.462650 -0.016473
O1    O     O_R   0.426810 0.668300 0.492040 -0.537444
O2    O     O_R   0.573190 0.331700 0.507960 -0.550314
O3    O     O_R   0.658240 0.703130 0.517240 -0.627085
O4    O     O_R   0.341760 0.296870 0.482760 -0.588437
O5    O     O_R   0.319390 0.472820 0.610170 -0.564446
O6    O     O_R   0.680610 0.527180 0.389830 -0.553527
O7    O     O_R   0.550820 0.507640 0.635370 -0.559791
O8    O     O_R   0.449180 0.492360 0.364630 -0.493913
O9    O     O_3   0.133430 0.168849 0.020444 -0.587940
C29   C     C_3   0.023731 0.211920 0.068564 0.111290
H7    H     H_    0.996502 0.276404 0.029030 0.138251
H8    H     H_    0.060972 0.264908 0.128138 0.184485
C30   C     C_3   0.882852 0.095492 0.095428 -0.832670
H9    H     H_    0.841235 0.041896 0.037230 0.239538
H10   H     H_    0.906090 0.029786 0.135737 0.256729
H11   H     H_    0.795760 0.128205 0.133494 0.203832
O10   O     O_3   0.939914 0.667197 0.946336 -0.578653
C31   C     C_3   0.956121 0.798073 0.940765 0.082293
H12   H     H_    0.923835 0.837002 0.005450 0.152959
H13   H     H_    0.887223 0.809506 0.895217 0.172836
C32   C     C_3   0.118157 0.877769 0.907578 -0.741955
H14   H     H_    0.155720 0.838284 0.844563 0.243233
H15   H     H_    0.131146 0.979690 0.898593 0.230882
H16   H     H_    0.188687 0.875296 0.954707 0.246041
F1    F     F_    0.394903 0.444862 0.214634 -0.610371
F2    F     F_    0.551109 0.622942 0.798596 -0.651831
F3    F     F_    0.897607 0.634330 0.265438 -0.664290
F4    F     F_    0.140222 0.272883 0.715782 -0.686722
O11   O     O_3   0.342464 0.245391 0.125910 -0.522791
C33   C     C_3   0.420080 0.159746 0.104949 0.094103
H17   H     H_    0.541189 0.213348 0.083644 0.118711
H18   H     H_    0.374503 0.090731 0.052981 0.152473
C34   C     C_3   0.402175 0.082349 0.184564 -0.810252
H19   H     H_    0.282662 0.026067 0.207143 0.260523
H20   H     H_    0.462253 0.014216 0.168664 0.196318
H21   H     H_    0.448906 0.148681 0.237144 0.236565
O12   O     O_3   0.750211 0.561931 0.830828 -0.519529
C35   C     C_3   0.775980 0.448925 0.797752 0.094905
H22   H     H_    0.744015 0.429436 0.732572 0.209775
H23   H     H_    0.708346 0.359707 0.836181 0.078019
C36   C     C_3   0.940644 0.470906 0.788907 -0.722900
H24   H     H_    0.971460 0.471811 0.853447 0.248880
H25   H     H_    0.964236 0.391682 0.750109 0.242304
H26   H     H_    0.009797 0.563873 0.755993 0.273298
O13   O     O_3   0.648089 0.147563 0.530712 -0.586496
C37   C     C_3   0.629190 0.145444 0.621935 0.043371
H27   H     H_    0.561000 0.047507 0.649287 0.132754
H28   H     H_    0.575050 0.214518 0.650405 0.162086
C38   C     C_3   0.781109 0.186368 0.648849 -0.761586
H29   H     H_    0.851245 0.285177 0.624887 0.252911
H30   H     H_    0.768316 0.185516 0.720377 0.205367
H31   H     H_    0.837065 0.118327 0.621413 0.248872
O14   O     O_3   0.363517 0.853850 0.454034 -0.576005
C39   C     C_3   0.395177 0.853938 0.362784 0.015672
H32   H     H_    0.479232 0.808643 0.339115 0.158905
H33   H     H_    0.437118 0.954135 0.337188 0.127014
C40   C     C_3   0.253541 0.776039 0.327290 -0.622877
H34   H     H_    0.167455 0.819062 0.349818 0.241153
H35   H     H_    0.276794 0.776606 0.255539 0.204949
H36   H     H_    0.210949 0.674387 0.349548 0.280966
O15   O     O_3   0.113388 0.389055 0.389006 -0.467138
C41   C     C_3   0.053650 0.254105 0.403485 0.148052
H37   H     H_    0.932035 0.218769 0.403280 0.140618
H38   H     H_    0.068862 0.225123 0.466478 0.154633
C42   C     C_3   0.123303 0.186337 0.330714 -0.669886
H39   H     H_    0.245475 0.221858 0.328307 0.279815
H40   H     H_    0.076607 0.080243 0.341633 0.163936
H41   H     H_    0.099534 0.205761 0.267905 0.270655
O16   O     O_3   0.888655 0.604652 0.612045 -0.530323
C43   C     C_3   0.885835 0.730589 0.618964 0.271285
H42   H     H_    0.773511 0.727265 0.649821 0.215028
H43   H     H_    0.918809 0.779351 0.555025 0.135034
C44   C     C_3   0.996464 0.812172 0.676063 -0.863436
H44   H     H_    0.110341 0.816915 0.647262 0.249965
H45   H     H_    0.995094 0.911886 0.682320 0.223713
H46   H     H_    0.966426 0.769108 0.741242 0.287480

loop_
_geom_bond_atom_site_label_1
_geom_bond_atom_site_label_2
_ccdc_geom_bond_type
C38   H29   S    
Cu1   O4    S    
Cu2   O7    S    
C40   H34   S    
C18   C26   A    
C37   C38   S    
C6    O10   S    
O10   C31   S    
C9    O14   S    
C40   H36   S    
C14   O8    A    
C31   H12   S    
C15   C19   A    
C5    O9    S    
C35   H23   S    
C3    C28   A    
C37   H28   S    
N1    O16   S    
C10   O13   S    
C43   H42   S    
C19   F4    S    
C11   N1    D    
C31   C32   S    
C39   H32   S    
C4    O12   S    
C22   F1    S    
C42   H40   S    
C29   C30   S    
O9    C29   S    
C31   H13   S    
C33   H17   S    
C21   F2    S    
Cu1   N2    S    
O16   C43   S    
C35   C36   S    
Cu2   O3    S    
C23   C27   A    
C44   H46   S    
C9    C10   S    
C18   C20   A    
C33   H18   S    
C29   H8    S    
C32   H14   S    
Cu1   O5    S    
Cu2   O6    S    
C41   H38   S    
C3    O11   S    
C32   H15   S    
O11   C33   S    
C20   F3    S    
C35   H22   S    
C4    C6    A    
O14   C39   S    
C36   H25   S    
C41   C42   S    
C30   H9    S    
Cu2   N1    S    
C30   H10   S    
O12   C35   S    
Cu1   Cu2   S    
C34   H21   S    
O13   C37   S    
C16   C20   A    
Cu1   O1    S    
C39   H33   S    
Cu2   O2    S    
C44   H45   S    
C37   H27   S    
C12   H5    S    
C5    C25   A    
C1    O3    A    
C29   H7    S    
C21   C23   A    
C17   H1    S    
C7    H4    S    
C14   C16   S    
C18   H2    S    
C13   O5    A    
C4    C27   A    
C14   O6    A    
C7    C9    D    
C11   H6    S    
C32   H16   S    
C16   C22   A    
C44   H44   S    
C1    C7    S    
C2    C8    S    
C24   C28   A    
C24   C26   A    
N2    O15   S    
C3    C5    A    
C36   H26   S    
C11   C12   S    
C40   H35   S    
C43   C44   S    
Cu1   O8    S    
C30   H11   S    
C17   C25   A    
C13   C15   S    
C34   H19   S    
O15   C41   S    
C13   O7    A    
C6    C26   A    
C2    O4    A    
C33   C34   S    
C41   H37   S    
C17   C19   A    
C43   H43   S    
C42   H41   S    
C22   C24   A    
C8    H3    S    
C39   C40   S    
C12   N2    D    
C1    O1    A    
C36   H24   S    
C2    O2    A    
C15   C21   A    
C23   C25   A    
C8    C10   D    
C38   H31   S    
C34   H20   S    
C42   H39   S    
C38   H30   S    
C27   C28   A    
