data_mof_unit_59360.cif
_audit_creation_date              2012-12-10T16:37:39-0500
_audit_creation_method            fapswitch 2.2
_symmetry_space_group_name_H-M    P1
_symmetry_Int_Tables_number       1
_space_group_crystal_system       triclinic
_cell_length_a                    10.879188
_cell_length_b                    10.83333
_cell_length_c                    15.514475
_cell_angle_alpha                 96.309022
_cell_angle_beta                  74.639766
_cell_angle_gamma                 98.623346
_cell_volume                      1738.52645301

loop_
_atom_site_label
_atom_site_type_symbol
_atom_type_description
_atom_site_fract_x
_atom_site_fract_y
_atom_site_fract_z
_atom_type_partial_charge
C1    C     C_R   0.159237 0.479463 0.519244 0.817718
C2    C     C_R   0.522877 0.497176 0.120222 -0.225877
C3    C     C_R   0.659271 0.335383 0.112388 0.412392
C4    C     C_R   0.842322 0.522113 0.480577 0.805040
C5    C     C_R   0.433242 0.587664 0.839014 -0.052640
C6    C     C_2   0.979751 0.533921 0.475504 0.208809
C7    C     C_2   0.023075 0.468960 0.528433 0.194988
C8    C     C_2   0.542656 0.969073 0.471439 0.291370
C9    C     C_2   0.456695 0.035252 0.527602 -0.359437
C10   C     C_R   0.466863 0.167889 0.521514 0.937493
C11   C     C_R   0.530206 0.834097 0.479944 0.747412
C12   C     C_R   0.288299 0.652836 0.978347 -0.216621
C13   C     C_R   0.556483 0.444172 0.258966 0.788731
C14   C     C_R   0.450771 0.558522 0.741304 0.836087
C15   C     C_R   0.688492 0.331707 0.019297 -0.123669
C16   C     C_R   0.579445 0.423103 0.162575 -0.137386
C17   C     C_R   0.326589 0.646991 0.885764 -0.283294
C18   C     C_3   0.734121 0.263564 0.770344 0.173649
C19   C     C_3   0.655328 0.146274 0.813793 -0.464778
C20   C     C_3   0.609481 0.052489 0.744368 -0.918200
C21   C     C_3   0.205307 0.484351 0.135761 0.056822
C22   C     C_3   0.072247 0.525144 0.177420 -0.333684
C23   C     C_R   0.351848 0.595506 0.027061 0.535330
C24   C     C_3   0.973713 0.414935 0.212984 -0.839250
C25   C     C_3   0.761063 0.673180 0.781545 0.113293
C26   C     C_3   0.851368 0.720321 0.694900 -0.310478
C27   C     C_3   0.916183 0.852985 0.710246 -1.001252
C28   C     C_3   0.069715 0.733510 0.446774 0.038525
C29   C     C_3   0.181437 0.811308 0.386147 -0.300635
C30   C     C_3   0.188333 0.949655 0.418892 -0.914388
C31   C     C_R   0.467703 0.543369 0.982519 -0.073491
C32   C     C_R   0.511475 0.545983 0.887550 -0.184635
C33   C     C_R   0.539101 0.483396 0.027166 0.012999
C34   C     C_R   0.633398 0.408134 0.976137 -0.119623
C35   C     C_R   0.676913 0.415969 0.883372 0.385170
C36   C     C_R   0.631620 0.503833 0.844036 0.375997
H1    H     H_    0.378410 0.992644 0.579135 0.106732
H2    H     H_    0.679351 0.304670 0.731668 0.205765
H3    H     H_    0.715444 0.101325 0.845942 0.234189
H4    H     H_    0.569870 0.172440 0.866235 0.225927
H5    H     H_    0.692278 0.026581 0.689419 0.264861
H6    H     H_    0.557932 0.966411 0.776758 0.264813
H7    H     H_    0.542766 0.093304 0.715542 0.274279
H8    H     H_    0.231537 0.432527 0.184906 0.186945
H9    H     H_    0.201458 0.417333 0.076027 0.124324
H10   H     H_    0.077390 0.597228 0.233526 0.270627
H11   H     H_    0.040179 0.567126 0.126190 0.206910
H12   H     H_    0.756470 0.270090 0.980963 0.195528
H13   H     H_    0.967274 0.341194 0.158106 0.279285
H14   H     H_    0.877961 0.447331 0.240742 0.276414
H15   H     H_    0.000953 0.374925 0.267213 0.262215
H16   H     H_    0.817026 0.678082 0.832845 0.142640
H17   H     H_    0.684085 0.735340 0.805323 0.125912
H18   H     H_    0.926638 0.657201 0.668808 0.239856
H19   H     H_    0.796003 0.719284 0.643946 0.195051
H20   H     H_    0.978296 0.854353 0.756875 0.274036
H21   H     H_    0.843041 0.917556 0.738918 0.274827
H22   H     H_    0.976757 0.886555 0.645528 0.259855
H23   H     H_    0.472333 0.569562 0.161485 0.208617
H24   H     H_    0.085028 0.744639 0.515670 0.146098
H25   H     H_    0.978452 0.769539 0.448373 0.163009
H26   H     H_    0.273071 0.776816 0.385236 0.222697
H27   H     H_    0.169415 0.800624 0.316655 0.234801
H28   H     H_    0.099717 0.987362 0.416897 0.265148
H29   H     H_    0.272280 0.003104 0.374919 0.286602
H30   H     H_    0.199365 0.962497 0.488576 0.255208
H31   H     H_    0.267833 0.683723 0.850602 0.189372
H32   H     H_    0.203067 0.695756 0.012626 0.158570
H33   H     H_    0.683168 0.264523 0.216497 0.335156
H34   H     H_    0.993228 0.354102 0.621624 0.315566
H35   H     H_    0.695602 0.967381 0.371528 0.352431
H36   H     H_    0.820462 0.233742 0.720876 0.180706
O1    O     O_3   0.500000 0.500000 0.500000 -0.492629
O2    O     O_R   0.463530 0.379110 0.309170 -0.626884
O3    O     O_R   0.388210 0.611730 0.699360 -0.659801
O4    O     O_R   0.624720 0.532760 0.292120 -0.638198
O5    O     O_R   0.523540 0.476390 0.699360 -0.612024
O6    O     O_3   0.715064 0.256269 0.150475 -0.779846
O7    O     O_3   0.941111 0.391631 0.590147 -0.757991
O8    O     O_3   0.640490 0.029303 0.407275 -0.761990
O9    O     O_3   0.777020 0.351503 0.834257 -0.641364
O10   O     O_3   0.297317 0.591767 0.118027 -0.677780
O11   O     O_3   0.708120 0.548537 0.764412 -0.590359
O12   O     O_R   0.537910 0.240570 0.564270 -0.640899
O13   O     O_3   0.066053 0.607082 0.412545 -0.667699
O14   O     O_R   0.438950 0.782540 0.540270 -0.651494
O15   O     O_R   0.222350 0.398740 0.468260 -0.636899
O16   O     O_R   0.800790 0.578160 0.427210 -0.650912
O17   O     O_R   0.212140 0.566330 0.564260 -0.659101
O18   O     O_R   0.764730 0.456770 0.540270 -0.564975
O19   O     O_R   0.412790 0.208310 0.468260 -0.637848
O20   O     O_R   0.610350 0.768590 0.427210 -0.649683
Zn1   Zn    Zn3+2 0.580150 0.419820 0.574680 1.007344
Zn2   Zn    Zn3+2 0.401380 0.373730 0.437510 0.990194
Zn3   Zn    Zn3+2 0.631680 0.593260 0.413140 0.969109
Zn4   Zn    Zn3+2 0.386790 0.613180 0.574670 0.954267

loop_
_geom_bond_atom_site_label_1
_geom_bond_atom_site_label_2
_ccdc_geom_bond_type
C1    O15   A    
C29   H27   S    
C23   O10   S    
C30   H28   S    
O2    Zn2   S    
C35   C36   A    
O1    Zn1   S    
C26   H19   S    
C20   H5    S    
C35   O9    S    
C12   H32   S    
C12   C23   A    
C26   C27   S    
C6    O13   S    
C32   C36   A    
C28   C29   S    
C25   H17   S    
C18   C19   S    
O1    Zn2   S    
O4    Zn3   S    
C5    C17   A    
C36   O11   S    
O15   Zn2   S    
C18   O9    S    
C34   C35   A    
C14   O5    A    
O5    Zn1   S    
C11   O20   A    
C19   C20   S    
C8    C9    D    
C12   C17   A    
C31   C33   A    
C2    C16   A    
C9    C10   S    
C15   C34   A    
C4    O18   A    
C5    C32   A    
C28   H25   S    
C24   H15   S    
C22   H11   S    
O16   Zn3   S    
C1    C7    S    
C21   C22   S    
C18   H36   S    
H33   O6    S    
C15   H12   S    
C26   H18   S    
H35   O8    S    
O3    Zn4   S    
C21   H9    S    
C28   H24   S    
C24   H14   S    
C17   H31   S    
C4    C6    S    
C27   H21   S    
C27   H20   S    
C25   C26   S    
O20   Zn3   S    
C23   C31   A    
C29   C30   S    
C21   H8    S    
C31   C32   A    
C13   O4    A    
C8    O8    S    
C9    H1    S    
C33   C34   A    
C21   O10   S    
C5    C14   S    
C30   H30   S    
O14   Zn4   S    
C2    C33   A    
C22   H10   S    
C10   O19   A    
C22   C24   S    
O1    Zn3   S    
C20   H7    S    
C3    C15   A    
O18   Zn1   S    
C7    O7    S    
C24   H13   S    
C29   H26   S    
C1    O17   A    
H34   O7    S    
C2    H23   S    
C27   H22   S    
C20   H6    S    
C6    C7    D    
C4    O16   A    
C14   O3    A    
O17   Zn4   S    
C18   H2    S    
C25   H16   S    
O19   Zn2   S    
C8    C11   S    
C10   O12   A    
O12   Zn1   S    
C30   H29   S    
C19   H4    S    
C13   O2    A    
C19   H3    S    
C13   C16   S    
C28   O13   S    
C25   O11   S    
C11   O14   A    
O1    Zn4   S    
C3    O6    S    
C3    C16   A    
