data_mof_unit_52919.cif
_audit_creation_date              2012-12-11T15:59:43-0500
_audit_creation_method            fapswitch 2.2
_symmetry_space_group_name_H-M    P1
_symmetry_Int_Tables_number       1
_space_group_crystal_system       triclinic
_cell_length_a                    10.69193
_cell_length_b                    10.74213
_cell_length_c                    17.016283
_cell_angle_alpha                 99.295072
_cell_angle_beta                  99.449087
_cell_angle_gamma                 60.882553
_cell_volume                      1676.66231176

loop_
_atom_site_label
_atom_site_type_symbol
_atom_type_description
_atom_site_fract_x
_atom_site_fract_y
_atom_site_fract_z
_atom_type_partial_charge
C1    C     C_R   0.356878 0.768736 0.397608 0.536549
C2    C     C_R   0.821436 0.349970 0.324330 0.004167
C3    C     C_R   0.357952 0.811207 0.155675 -0.000788
C4    C     C_R   0.369303 0.346478 0.357580 0.553711
C5    C     C_R   0.452882 0.842625 0.213717 0.020957
C6    C     C_R   0.438034 0.850385 0.295498 0.011384
C7    C     C_R   0.284528 0.736923 0.256518 -0.139220
C8    C     C_R   0.285208 0.746276 0.177114 -0.148364
C9    C     C_R   0.559355 0.869593 0.192945 -0.095184
C10   C     C_R   0.635437 0.920168 0.250927 -0.126908
C11   C     C_R   0.611661 0.940434 0.330711 -0.104514
C12   C     C_R   0.856814 0.203462 0.198014 0.030006
C13   C     C_R   0.512665 0.907401 0.353206 -0.098502
C14   C     C_R   0.350900 0.798175 0.316493 0.008683
C15   C     C_R   0.286951 0.254689 0.792525 -0.005000
C16   C     C_R   0.775445 0.378259 0.403352 0.535207
C17   C     C_R   0.391557 0.138979 0.743258 0.011696
C18   C     C_R   0.384136 0.161590 0.662382 -0.050327
C19   C     C_R   0.200684 0.408464 0.684401 -0.147814
C20   C     C_R   0.187073 0.382727 0.758942 -0.165543
C21   C     C_R   0.507131 0.004195 0.768112 0.360964
C22   C     C_R   0.604937 0.904772 0.715459 -0.052962
C23   C     C_R   0.868260 0.213870 0.282178 0.021988
C24   C     C_R   0.587542 0.926582 0.635481 0.120133
C25   C     C_R   0.467606 0.047247 0.608149 -0.061090
C26   C     C_R   0.306510 0.301903 0.638597 0.003325
C27   C     C_1   0.845969 0.329007 0.705421 -0.035701
C28   C     C_R   0.381075 0.714773 0.631532 0.561227
C29   C     C_1   0.892757 0.294280 0.772124 -0.038512
C30   C     C_1   0.358306 0.764679 0.713727 -0.037873
C31   C     C_1   0.326111 0.811718 0.780769 -0.013768
C32   C     C_R   0.890441 0.308563 0.086767 0.556142
C33   C     C_R   0.319435 0.299934 0.119935 0.556586
C34   C     C_R   0.778938 0.471122 0.284150 -0.143007
C35   C     C_R   0.299154 0.885290 0.083189 0.546345
C36   C     C_R   0.942815 0.273976 0.854525 0.533285
C37   C     C_R   0.277476 0.247629 0.877442 0.554287
C38   C     C_R   0.281200 0.880970 0.857810 0.541671
C39   C     C_R   0.363508 0.342686 0.579528 0.539273
C40   C     C_R   0.777589 0.378523 0.628980 0.546723
C41   C     C_1   0.342950 0.336636 0.274158 -0.030305
C42   C     C_1   0.331869 0.326677 0.203259 -0.036001
C43   C     C_R   0.828332 0.325555 0.160066 -0.003327
C44   C     C_3   0.764352 0.882715 0.547667 -0.307672
C45   C     C_R   0.782314 0.458931 0.203296 -0.157264
C46   C     C_R   0.877301 0.070906 0.155695 -0.061166
C47   C     C_R   0.930375 0.948826 0.195598 -0.135751
C48   C     C_R   0.955666 0.957484 0.278579 -0.135016
C49   C     C_R   0.924050 0.088849 0.321850 -0.092682
Cr1   Cr    Cr6+3 0.608100 0.610860 0.522250 1.013869
Cr2   Cr    Cr6+3 0.288890 0.599990 0.488420 0.999880
Cr3   Cr    Cr6+3 0.603040 0.289190 0.489390 0.987528
Cr4   Cr    Cr6+3 0.053960 0.052250 0.967380 1.027971
Cr5   Cr    Cr6+3 0.059890 0.373160 0.992710 1.019599
Cr6   Cr    Cr6+3 0.373370 0.061690 0.991710 1.077589
F1    F     F_    0.539659 0.962977 0.842515 -0.615484
H1    H     H_    0.738991 0.577980 0.314785 0.160243
H2    H     H_    0.756305 0.553422 0.175173 0.138665
H3    H     H_    0.948051 0.847835 0.162210 0.106539
H4    H     H_    0.994548 0.863200 0.309700 0.125137
H5    H     H_    0.944665 0.091522 0.386364 0.123442
H6    H     H_    0.228761 0.683256 0.270739 0.140376
H7    H     H_    0.588686 0.847802 0.132519 0.139911
H8    H     H_    0.219986 0.712200 0.132824 0.135178
H9    H     H_    0.759849 0.730102 0.604926 0.267255
H10   H     H_    0.834315 0.799894 0.503637 0.127509
H11   H     H_    0.832479 0.912423 0.595178 0.148852
H12   H     H_    0.711319 0.945642 0.233397 0.134568
H13   H     H_    0.687300 0.978066 0.516056 0.153853
H14   H     H_    0.671171 0.980811 0.375106 0.126967
H15   H     H_    0.495102 0.927741 0.415671 0.130757
H16   H     H_    0.135341 0.515189 0.665340 0.137366
H17   H     H_    0.105047 0.469347 0.793191 0.151313
H18   H     H_    0.695008 0.808467 0.737450 0.139194
H19   H     H_    0.447048 0.057406 0.544472 0.130605
H20   H     H_    0.848447 0.060043 0.092063 0.148506
N1    N     N_2   0.689485 0.826497 0.582350 -0.485483
O1    O     O_R   0.749810 0.499790 0.438040 -0.518275
O2    O     O_R   0.411730 0.181020 0.091530 -0.505966
O3    O     O_R   0.365010 0.944360 0.063320 -0.511293
O4    O     O_R   0.477660 0.726260 0.439290 -0.487723
O5    O     O_R   0.159380 0.906670 0.876210 -0.522357
O6    O     O_R   0.930820 0.177420 0.886730 -0.478066
O7    O     O_R   0.910360 0.395420 0.895720 -0.503991
O8    O     O_R   0.186010 0.361730 0.919870 -0.523310
O9    O     O_R   0.400000 0.173010 0.914630 -0.411756
O10   O     O_R   0.354140 0.936940 0.899340 -0.444723
O11   O     O_3   0.162410 0.162370 0.983930 -0.299206
O12   O     O_R   0.298970 0.468800 0.557390 -0.514145
O13   O     O_R   0.260150 0.743000 0.412270 -0.529979
O14   O     O_R   0.297740 0.466550 0.394720 -0.507230
O15   O     O_R   0.488080 0.253500 0.386430 -0.522297
O16   O     O_R   0.722670 0.303800 0.421940 -0.505484
O17   O     O_R   0.751130 0.502220 0.613520 -0.532795
O18   O     O_R   0.478890 0.728510 0.601960 -0.481479
O19   O     O_R   0.261470 0.745430 0.587750 -0.514298
O20   O     O_R   0.489400 0.255930 0.561910 -0.527813
O21   O     O_R   0.723890 0.306050 0.584610 -0.496184
O22   O     O_3   0.500010 0.500010 0.500020 -0.255576
O23   O     O_R   0.171100 0.914680 0.053100 -0.513698
O24   O     O_R   0.941680 0.184840 0.050710 -0.504598
O25   O     O_R   0.922080 0.403420 0.072610 -0.511613
O26   O     O_R   0.196880 0.369150 0.083850 -0.497897

loop_
_geom_bond_atom_site_label_1
_geom_bond_atom_site_label_2
_ccdc_geom_bond_type
C1    O13   A    
C27   C29   T    
C41   C42   T    
C35   O3    A    
C44   H10   S    
C19   C20   A    
C18   C26   A    
C46   H20   S    
C11   H14   S    
C7    C8    A    
C29   C36   S    
C16   O16   A    
C28   O18   A    
C33   C42   S    
C37   O8    A    
C44   N1    S    
C12   C43   A    
Cr2   O13   S    
C40   O21   A    
C30   C31   T    
C26   C39   S    
C23   C49   A    
C4    C41   S    
C36   O6    A    
C1    O4    A    
Cr3   O20   S    
Cr6   O11   S    
C19   C26   A    
C15   C37   S    
Cr2   O14   S    
C7    C14   A    
Cr4   O24   S    
C34   H1    S    
C2    C16   S    
C9    C10   A    
C16   O1    A    
Cr2   O19   S    
C4    O14   A    
C2    C34   A    
C9    H7    S    
C21   C22   A    
C38   O5    A    
C19   H16   S    
C18   C25   A    
Cr1   O1    S    
Cr5   O7    S    
C48   H4    S    
Cr4   O23   S    
Cr2   O22   S    
C15   C20   A    
C45   H2    S    
H9    N1    S    
Cr5   O26   S    
C44   H13   S    
C49   H5    S    
C24   C25   A    
C12   C46   A    
C3    C8    A    
Cr1   O17   S    
C13   H15   S    
C17   C21   A    
Cr4   O5    S    
C25   H19   S    
C7    H6    S    
C5    C9    A    
C6    C14   A    
Cr6   O2    S    
C37   O9    A    
C47   C48   A    
C12   C23   A    
C3    C35   S    
C27   C40   S    
C17   C18   A    
Cr1   O22   S    
Cr3   O16   S    
C34   C45   A    
C43   C45   A    
C8    H8    S    
C48   C49   A    
Cr5   O8    S    
C32   O25   A    
Cr3   O15   S    
C22   H18   S    
C35   O23   A    
C15   C17   A    
C46   C47   A    
C33   O26   A    
Cr5   O25   S    
C33   O2    A    
C40   O17   A    
C3    C5    A    
C21   F1    S    
C10   H12   S    
Cr3   O22   S    
C31   C38   S    
Cr4   O6    S    
C38   O10   A    
C28   O19   A    
Cr6   O9    S    
C28   C30   S    
Cr2   O12   S    
C6    C13   A    
Cr5   O11   S    
Cr6   O3    S    
C11   C13   A    
C5    C6    A    
C36   O7    A    
Cr3   O21   S    
C32   C43   S    
C20   H17   S    
Cr4   O11   S    
C22   C24   A    
Cr6   O10   S    
Cr1   O18   S    
C39   O20   A    
C10   C11   A    
C47   H3    S    
C24   N1    S    
C2    C23   A    
C32   O24   A    
C44   H11   S    
C1    C14   S    
C39   O12   A    
Cr1   O4    S    
C4    O15   A    
