data_mof_unit_61706.cif
_audit_creation_date              2012-12-10T21:33:32-0500
_audit_creation_method            fapswitch 2.2
_symmetry_space_group_name_H-M    P1
_symmetry_Int_Tables_number       1
_space_group_crystal_system       triclinic
_cell_length_a                    14.160032
_cell_length_b                    16.167335
_cell_length_c                    16.644599
_cell_angle_alpha                 87.231834
_cell_angle_beta                  90.379879
_cell_angle_gamma                 91.843933
_cell_volume                      3803.98142152

loop_
_atom_site_label
_atom_site_type_symbol
_atom_type_description
_atom_site_fract_x
_atom_site_fract_y
_atom_site_fract_z
_atom_type_partial_charge
C1    C     C_R   0.496603 0.488611 0.653391 0.901435
C2    C     C_R   0.541216 0.149755 0.542152 -0.066881
C3    C     C_R   0.520939 0.890579 0.512043 0.261784
C4    C     C_R   0.479127 0.109421 0.487926 0.261776
C5    C     C_R   0.577390 0.840803 0.563464 0.048954
C6    C     C_R   0.422665 0.159193 0.436507 0.048962
C7    C     C_R   0.570952 0.754273 0.561372 -0.083322
C8    C     C_R   0.429073 0.245723 0.438611 -0.083316
C9    C     C_R   0.670910 0.499618 0.500084 0.894383
C10   C     C_R   0.329090 0.500381 0.499916 0.894346
C11   C     C_1   0.772314 0.498996 0.500046 -0.185377
C12   C     C_R   0.503368 0.511390 0.346607 0.901442
C13   C     C_1   0.227686 0.501004 0.499956 -0.185323
C14   C     C_1   0.857527 0.499102 0.500026 0.012475
C15   C     C_1   0.142473 0.500897 0.499978 0.012486
C16   C     C_1   0.957386 0.499690 0.500009 0.031767
C17   C     C_1   0.042614 0.500309 0.499995 0.031767
C18   C     C_R   0.481811 0.480998 0.739837 -0.118900
C19   C     C_R   0.517968 0.519012 0.260142 -0.118912
C20   C     C_R   0.448632 0.548713 0.779258 -0.239537
C21   C     C_R   0.551087 0.451325 0.220646 -0.239566
C22   C     C_R   0.434537 0.542996 0.861623 0.168362
C23   C     C_R   0.479124 0.399058 0.865201 0.165348
C24   C     C_R   0.564947 0.457046 0.138252 0.168364
C25   C     C_R   0.459472 0.470533 0.906055 0.216861
C26   C     C_R   0.539837 0.529483 0.093882 0.216872
C27   C     C_R   0.520204 0.600927 0.134789 0.165348
C28   C     C_R   0.491956 0.404916 0.782299 -0.246138
C29   C     C_R   0.507612 0.595065 0.217714 -0.246154
C30   C     C_R   0.454539 0.762354 0.458614 0.190362
C31   C     C_R   0.545463 0.237652 0.541393 0.190369
C32   C     C_R   0.458827 0.850249 0.457835 -0.066835
H1    H     H_    0.568456 0.394549 0.253938 0.193864
H2    H     H_    0.322898 0.735782 0.416928 0.174480
H3    H     H_    0.668222 0.118439 0.589776 0.207263
H4    H     H_    0.578287 0.117203 0.657112 0.209170
H5    H     H_    0.331823 0.881653 0.410280 0.207298
H6    H     H_    0.421658 0.882731 0.342877 0.209171
H7    H     H_    0.431396 0.605511 0.745924 0.193880
H8    H     H_    0.510307 0.350298 0.751420 0.182308
H9    H     H_    0.489277 0.649655 0.248642 0.182258
H10   H     H_    0.614870 0.716531 0.600808 0.175303
H11   H     H_    0.385154 0.283462 0.399172 0.175302
H12   H     H_    0.591092 0.261579 0.653841 0.168096
H13   H     H_    0.677141 0.264354 0.582972 0.174489
H14   H     H_    0.408982 0.738301 0.346209 0.168150
I1    I     I_    0.637096 0.360179 0.087045 -0.235941
I2    I     I_    0.362316 0.639921 0.912665 -0.235840
I3    I     I_    0.484873 0.280212 0.923515 -0.231173
I4    I     I_    0.514137 0.719745 0.076528 -0.231249
I5    I     I_    0.674032 0.893629 0.645614 -0.279917
I6    I     I_    0.326051 0.106362 0.354340 -0.279899
N1    N     N_2   0.472679 0.470800 0.990083 -0.123549
N2    N     N_3   0.403176 0.897473 0.401021 -0.399220
N3    N     N_2   0.526568 0.529245 0.009860 -0.123570
N4    N     N_R   0.510540 0.716920 0.509720 -0.099883
N5    N     N_R   0.489460 0.283080 0.490280 -0.099895
N6    N     N_2   0.532612 0.979114 0.515200 -0.093203
N7    N     N_2   0.467465 0.020885 0.484766 -0.093231
N8    N     N_3   0.607784 0.280397 0.594547 -0.388598
N9    N     N_3   0.392192 0.719617 0.405474 -0.388740
N10   N     N_3   0.596873 0.102531 0.598971 -0.399199
O1    O     O_R   0.496230 0.422540 0.612660 -0.594456
O2    O     O_R   0.503770 0.577460 0.387340 -0.594506
O3    O     O_R   0.503000 0.561840 0.618900 -0.615243
O4    O     O_R   0.497000 0.438160 0.381100 -0.615217
O5    O     O_R   0.622900 0.430330 0.496880 -0.578297
O6    O     O_R   0.377100 0.569670 0.503120 -0.578254
O7    O     O_R   0.629670 0.569640 0.503120 -0.594679
O8    O     O_R   0.370330 0.430360 0.496880 -0.594696
Zn1   Zn    Zn3+2 0.495480 0.406980 0.495830 0.972110
Zn2   Zn    Zn3+2 0.504520 0.593020 0.504170 0.972111

loop_
_geom_bond_atom_site_label_1
_geom_bond_atom_site_label_2
_ccdc_geom_bond_type
C31   N8    S    
O7    Zn2   S    
C2    C4    A    
C9    O5    A    
H13   N8    S    
C12   O2    A    
O8    Zn1   S    
C10   O6    A    
C8    N5    A    
C27   C29   A    
O3    Zn2   S    
C5    C7    A    
C1    O3    A    
O4    Zn1   S    
H6    N2    S    
C27   I4    S    
O6    Zn2   S    
C6    I6    S    
C26   N3    S    
C31   N5    A    
N1    N3    D    
C1    C18   S    
C3    C5    A    
C7    H10   S    
C23   C28   A    
N5    Zn1   S    
C30   C32   A    
C9    C11   S    
C24   C26   A    
C26   C27   A    
C16   C17   T    
C30   N4    A    
C7    N4    A    
H12   N8    S    
H4    N10   S    
H5    N2    S    
C1    O1    A    
C12   C19   S    
C32   N2    S    
C19   C21   A    
C20   C22   A    
C22   I2    S    
H3    N10   S    
C18   C20   A    
O2    Zn2   S    
C13   C15   T    
C3    C32   A    
C9    O7    A    
C11   C14   T    
C14   C16   S    
C23   I3    S    
O5    Zn1   S    
C21   H1    S    
C28   H8    S    
H14   N9    S    
C19   C29   A    
C3    N6    S    
C10   O8    A    
C23   C25   A    
C18   C28   A    
C8    H11   S    
C4    N7    S    
C4    C6    A    
C21   C24   A    
C15   C17   S    
C20   H7    S    
C30   N9    S    
C5    I5    S    
C6    C8    A    
C29   H9    S    
N6    N7    D    
C24   I1    S    
C12   O4    A    
C22   C25   A    
H2    N9    S    
C25   N1    S    
C2    N10   S    
O1    Zn1   S    
C2    C31   A    
N4    Zn2   S    
C10   C13   S    
