data_mof_unit_52236.cif
_audit_creation_date              2012-12-11T14:21:11-0500
_audit_creation_method            fapswitch 2.2
_symmetry_space_group_name_H-M    P1
_symmetry_Int_Tables_number       1
_space_group_crystal_system       triclinic
_cell_length_a                    11.771958
_cell_length_b                    11.682758
_cell_length_c                    19.469403
_cell_angle_alpha                 92.062801
_cell_angle_beta                  90.48561
_cell_angle_gamma                 60.021093
_cell_volume                      2317.72487458

loop_
_atom_site_label
_atom_site_type_symbol
_atom_type_description
_atom_site_fract_x
_atom_site_fract_y
_atom_site_fract_z
_atom_type_partial_charge
C1    C     C_R   0.639851 0.118178 0.598799 0.561901
C2    C     C_1   0.640327 0.706055 0.667889 0.015097
C3    C     C_1   0.126590 0.196200 0.859409 0.022532
C4    C     C_1   0.171101 0.172041 0.727406 -0.023995
C5    C     C_1   0.149958 0.181087 0.798781 -0.023943
C6    C     C_1   0.195095 0.163974 0.667013 0.017734
C7    C     C_1   0.680752 0.188103 0.861192 0.018927
C8    C     C_1   0.657872 0.168228 0.729082 -0.024126
C9    C     C_1   0.666768 0.179035 0.800573 -0.024968
C10   C     C_1   0.651459 0.151983 0.668353 0.017894
C11   C     C_R   0.640426 0.664823 0.198546 0.012998
C12   C     C_R   0.611157 0.748467 0.598622 0.555218
C13   C     C_R   0.556751 0.630261 0.238700 -0.056569
C14   C     C_R   0.586578 0.606099 0.309552 0.045376
C15   C     C_R   0.761425 0.645604 0.298023 0.260577
C16   C     C_R   0.723246 0.699247 0.234112 -0.154828
C17   C     C_R   0.448470 0.614725 0.214161 0.043729
C18   C     C_R   0.404028 0.546152 0.253726 0.367258
C19   C     C_R   0.448242 0.510013 0.319926 0.017047
C20   C     C_R   0.536067 0.542646 0.348620 0.377024
C21   C     C_R   0.666062 0.649514 0.340337 0.106003
C22   C     C_R   0.151500 0.215892 0.192352 0.063673
C23   C     C_R   0.241696 0.146111 0.597908 0.550515
C24   C     C_R   0.105689 0.318571 0.244056 -0.002731
C25   C     C_R   0.101240 0.286265 0.313019 -0.014702
C26   C     C_R   0.261975 0.057915 0.279393 -0.044038
C27   C     C_R   0.253259 0.092944 0.210025 -0.015660
C28   C     C_R   0.093364 0.443779 0.232693 0.462149
C29   C     C_R   0.070886 0.532268 0.287934 0.545946
C30   C     C_R   0.045459 0.506190 0.353843 0.371484
C31   C     C_R   0.044261 0.389382 0.364445 0.071577
C32   C     C_R   0.186286 0.155007 0.331767 0.017576
C33   C     C_R   0.682365 0.200746 0.197805 0.021254
C34   C     C_R   0.641214 0.101370 0.398942 0.554707
C35   C     C_R   0.787276 0.151762 0.244638 -0.034253
C36   C     C_R   0.788079 0.077882 0.299231 -0.138773
C37   C     C_R   0.551815 0.182668 0.283709 -0.049247
C38   C     C_R   0.564225 0.209812 0.215749 -0.040188
C39   C     C_R   0.901533 0.151904 0.229589 0.367789
C40   C     C_R   0.017951 0.032517 0.234103 0.400284
C41   C     C_R   0.025260 0.942399 0.279927 0.438537
C42   C     C_R   0.913888 0.968066 0.317804 -0.053209
C43   C     C_R   0.662070 0.120461 0.327252 -0.020601
C44   C     C_R   0.081503 0.230299 0.928888 0.555288
C45   C     C_R   0.617950 0.735788 0.402801 0.529624
C46   C     C_R   0.684792 0.601753 0.929453 0.546812
C47   C     C_R   0.709544 0.205637 0.930526 0.557224
C48   C     C_R   0.086478 0.238498 0.124224 0.716913
C49   C     C_R   0.679077 0.611576 0.126811 0.599362
C50   C     C_R   0.710899 0.215097 0.127608 0.649177
C51   C     C_R   0.244164 0.137938 0.401346 0.549544
C52   C     C_1   0.670657 0.644179 0.860212 0.018358
C53   C     C_1   0.654091 0.684612 0.728345 -0.022855
C54   C     C_1   0.663229 0.665616 0.799788 -0.022736
Cr1   Cr    Cr6+3 0.404720 0.198220 0.499960 1.099414
Cr2   Cr    Cr6+3 0.698290 0.897110 0.500380 1.096827
Cr3   Cr    Cr6+3 0.396970 0.904720 0.499610 1.143653
Cr4   Cr    Cr6+3 0.926180 0.151990 0.028120 1.152046
Cr5   Cr    Cr6+3 0.921330 0.451820 0.027470 1.134818
Cr6   Cr    Cr6+3 0.626260 0.446870 0.028710 1.101875
H1    H     H_    0.793393 0.712982 0.205031 0.162194
H2    H     H_    0.409881 0.461812 0.350752 0.216771
O1    O     O_R   0.267740 0.231960 0.575440 -0.503092
O2    O     O_R   0.685970 0.784660 0.430010 -0.514016
O3    O     O_R   0.502530 0.767000 0.423990 -0.428903
O4    O     O_R   0.288330 0.026350 0.429250 -0.453961
O5    O     O_3   0.499990 0.000020 0.499980 -0.321132
O6    O     O_R   0.821500 0.119340 0.952830 -0.507179
O7    O     O_R   0.037130 0.162530 0.957360 -0.499803
O8    O     O_R   0.056440 0.344740 0.951340 -0.499326
O9    O     O_R   0.797900 0.560360 0.957470 -0.505012
O10   O     O_R   0.596130 0.579390 0.952730 -0.494767
O11   O     O_R   0.639060 0.321160 0.958670 -0.489891
O12   O     O_R   0.527280 0.186640 0.570530 -0.486014
O13   O     O_R   0.821240 0.124200 0.104370 -0.482693
O14   O     O_R   0.036890 0.167040 0.097840 -0.376225
O15   O     O_R   0.056180 0.349610 0.102880 -0.442791
O16   O     O_R   0.797660 0.564870 0.097950 -0.461926
O17   O     O_R   0.595880 0.584250 0.104270 -0.506906
O18   O     O_R   0.638830 0.325670 0.099150 -0.468201
O19   O     O_3   0.824590 0.350230 0.028100 -0.303731
O20   O     O_R   0.728090 0.003450 0.576380 -0.482801
O21   O     O_R   0.682970 0.789190 0.570490 -0.490034
O22   O     O_R   0.499290 0.771880 0.575530 -0.479844
O23   O     O_R   0.285330 0.030870 0.569730 -0.489020
O24   O     O_R   0.270980 0.227080 0.423890 -0.501721
O25   O     O_R   0.530280 0.182120 0.430050 -0.466030
O26   O     O_R   0.731330 0.998570 0.424830 -0.532003
F1    F     F_    0.847626 0.517408 0.284357 -0.667246
F2    F     F_    0.069706 0.645481 0.275796 -0.529227
F3    F     F_    0.014213 0.596310 0.406317 -0.624792
C55   C     C_2   0.984121 0.376870 0.428554 0.322287
H3    H     H_    0.958839 0.448764 0.470876 0.158179
O27   O     O_2   0.958194 0.288524 0.433772 -0.476971
C56   C     C_2   0.428223 0.201246 0.306679 0.205746
H4    H     H_    0.428238 0.116640 0.326166 0.066226
O28   O     O_2   0.332642 0.311251 0.310009 -0.527208
F4    F     F_    0.891255 0.258439 0.199167 -0.623494
C57   C     C_2   0.457750 0.239558 0.164764 0.285427
H5    H     H_    0.357789 0.278464 0.181784 0.205295
O29   O     O_2   0.480825 0.215257 0.103314 -0.471028
F5    F     F_    0.109268 0.987763 0.183657 -0.579437
F6    F     F_    0.136854 0.823253 0.281359 -0.485904
C58   C     C_2   0.935223 0.858119 0.359968 0.468980
H6    H     H_    0.874281 0.813268 0.352666 0.145264
O30   O     O_2   0.020707 0.817590 0.403494 -0.343236
C59   C     C_2   0.362964 0.682633 0.154848 0.414139
H7    H     H_    0.296696 0.651072 0.134170 0.193242
O31   O     O_2   0.362227 0.776200 0.129087 -0.459692
F7    F     F_    0.311983 0.519212 0.228988 -0.561676
F8    F     F_    0.576472 0.507258 0.413969 -0.592312
C60   C     C_2   0.359578 0.923549 0.297640 0.282691
H8    H     H_    0.462259 0.886869 0.287073 -0.007300
O32   O     O_2   0.324927 0.854062 0.325323 -0.389730
F9    F     F_    0.126132 0.473850 0.172094 -0.557449
C61   C     C_2   0.356811 0.009731 0.158145 0.312990
H9    H     H_    0.447682 0.925412 0.173606 0.105058
O33   O     O_2   0.344697 0.036756 0.097536 -0.449081

loop_
_geom_bond_atom_site_label_1
_geom_bond_atom_site_label_2
_ccdc_geom_bond_type
C25   C31   A    
C22   C48   S    
Cr6   O17   S    
C26   C32   A    
C41   C42   A    
C48   O14   A    
C36   C42   A    
C56   H4    S    
Cr3   O4    S    
C2    C12   S    
Cr5   O15   S    
C60   O32   D    
Cr4   O14   S    
C53   C54   S    
C61   H9    S    
C37   C56   S    
C26   C27   A    
C29   C30   A    
C1    O12   A    
C38   C57   S    
C14   C21   A    
Cr5   O19   S    
C28   C29   A    
C17   C59   S    
C30   C31   A    
Cr2   O26   S    
Cr6   O10   S    
C19   H2    S    
C15   C16   A    
C46   C52   S    
Cr6   O11   S    
C49   O16   A    
C12   O22   A    
C18   C19   A    
C11   C16   A    
C60   H8    S    
Cr1   O12   S    
C51   O24   A    
C19   C20   A    
C61   O33   D    
C8    C9    S    
Cr1   O1    S    
C59   H7    S    
Cr2   O2    S    
C44   O8    A    
C46   O10   A    
C27   C61   S    
C25   C32   A    
C23   O1    A    
C13   C14   A    
C59   O31   D    
Cr3   O5    S    
Cr5   O16   S    
C58   O30   D    
C29   F2    S    
C52   C54   T    
Cr4   O13   S    
C21   C45   S    
C3    C44   S    
C34   C43   S    
C14   C20   A    
C24   C25   A    
C47   O11   A    
C4    C6    T    
Cr4   O19   S    
C39   C40   A    
C4    C5    S    
C39   F4    S    
C1    O20   A    
C41   F6    S    
C12   O21   A    
C50   O18   A    
C51   O4    A    
C7    C47   S    
C48   O15   A    
C37   C43   A    
C35   C39   A    
C32   C51   S    
C37   C38   A    
C11   C49   S    
C28   F9    S    
C15   F1    S    
C20   F8    S    
Cr6   O19   S    
C57   H5    S    
C55   O27   D    
C17   C18   A    
Cr3   O22   S    
C44   O7    A    
C34   O26   A    
C46   O9    A    
Cr4   O6    S    
C40   C41   A    
C57   O29   D    
C22   C27   A    
C45   O3    A    
C22   C24   A    
C16   H1    S    
C26   C60   S    
C47   O6    A    
Cr2   O21   S    
C7    C9    T    
Cr6   O18   S    
C8    C10   T    
C1    C10   S    
C24   C28   A    
Cr3   O3    S    
C30   F3    S    
C3    C5    T    
C2    C53   T    
C42   C58   S    
C58   H6    S    
Cr1   O5    S    
C56   O28   D    
Cr4   O7    S    
Cr2   O20   S    
Cr2   O5    S    
C45   O2    A    
C33   C38   A    
C13   C17   A    
Cr1   O24   S    
C33   C50   S    
C50   O13   A    
C11   C13   A    
C6    C23   S    
C55   H3    S    
C33   C35   A    
Cr3   O23   S    
C34   O25   A    
Cr1   O25   S    
Cr5   O8    S    
C40   F5    S    
C49   O17   A    
C15   C21   A    
C18   F7    S    
C31   C55   S    
C23   O23   A    
C36   C43   A    
C35   C36   A    
Cr5   O9    S    
