data_mof_unit_56403.cif
_audit_creation_date              2012-12-11T20:37:40-0500
_audit_creation_method            fapswitch 2.2
_symmetry_space_group_name_H-M    P1
_symmetry_Int_Tables_number       1
_space_group_crystal_system       triclinic
_cell_length_a                    8.25286
_cell_length_b                    18.837533
_cell_length_c                    22.860778
_cell_angle_alpha                 97.04356
_cell_angle_beta                  89.790916
_cell_angle_gamma                 93.244332
_cell_volume                      3521.52311587

loop_
_atom_site_label
_atom_site_type_symbol
_atom_type_description
_atom_site_fract_x
_atom_site_fract_y
_atom_site_fract_z
_atom_type_partial_charge
Ba1   Ba    Ba6+2 0.849480 0.533290 0.473010 1.658569
Ba2   Ba    Ba6+2 0.340340 0.466770 0.527000 1.678721
C1    C     C_3   0.623945 0.794130 0.316758 -0.364906
C2    C     C_R   0.088927 0.559660 0.940837 -0.027336
C3    C     C_R   0.044418 0.555083 0.880461 0.590676
C4    C     C_3   0.077021 0.708548 0.318232 0.353666
C5    C     C_R   0.986287 0.428165 0.877360 0.581128
C6    C     C_R   0.027144 0.431212 0.937684 -0.019444
C7    C     C_R   0.078886 0.497326 0.969578 -0.052882
C8    C     C_R   0.142326 0.625240 0.973376 -0.072463
C9    C     C_R   0.183767 0.628878 0.033083 -0.074663
C10   C     C_R   0.173289 0.567068 0.062411 -0.022029
C11   C     C_R   0.120948 0.501028 0.030429 -0.052556
C12   C     C_3   0.605094 0.720661 0.337955 0.353572
C13   C     C_R   0.017387 0.369305 0.966847 -0.077486
C14   C     C_R   0.058396 0.372950 0.026458 -0.074414
C15   C     C_R   0.110838 0.438599 0.059012 -0.025811
C16   C     C_3   0.050720 0.748041 0.265135 -0.362660
C17   C     C_R   0.154243 0.442998 0.119309 0.588002
C18   C     C_R   0.213872 0.569896 0.122893 0.585288
C19   C     C_2   0.803379 0.449573 0.767682 -0.089015
C20   C     C_3   0.774731 0.428842 0.702326 -0.088326
C21   C     C_1   0.004578 0.512323 0.685708 0.034720
C22   C     C_2   0.051610 0.516638 0.741956 -0.085482
C23   C     C_3   0.508387 0.363108 0.347413 0.292641
C24   C     C_2   0.944137 0.485360 0.786999 0.216839
C25   C     C_R   0.402271 0.543567 0.233159 -0.098780
C26   C     C_R   0.445605 0.547956 0.292859 -0.029046
C27   C     C_R   0.190312 0.486859 0.314410 0.034530
C28   C     C_3   0.193337 0.682970 0.597955 0.304045
C29   C     C_R   0.145102 0.482621 0.254526 -0.088347
C30   C     C_R   0.249817 0.511976 0.213161 0.211717
C31   C     C_2   0.872486 0.475013 0.664518 -0.267689
C32   C     C_2   0.406558 0.697984 0.474444 -0.253714
C33   C     C_3   0.320798 0.744092 0.436421 -0.049087
C34   C     C_3   0.500397 0.344043 0.280867 -0.359277
C35   C     C_2   0.360432 0.823317 0.452039 -0.123606
C36   C     C_2   0.488314 0.847051 0.487448 -0.069901
C37   C     C_2   0.577775 0.793653 0.516410 -0.132441
C38   C     C_1   0.529341 0.724810 0.508859 0.057369
C39   C     C_R   0.657607 0.064217 0.504597 0.475209
C40   C     C_3   0.207596 0.764067 0.612328 -0.351615
C41   C     C_R   0.544661 0.924200 0.494928 0.472169
C42   C     C_R   0.622347 0.190231 0.484644 -0.083704
C43   C     C_R   0.668960 0.263225 0.489891 0.058057
C44   C     C_R   0.912281 0.241805 0.542128 -0.050853
C45   C     C_3   0.013445 0.279047 0.679162 0.313149
C46   C     C_R   0.867308 0.167823 0.537512 -0.122930
C47   C     C_R   0.717538 0.141381 0.509605 -0.050599
C48   C     C_R   0.808899 0.288782 0.520924 -0.248408
C49   C     C_3   0.001931 0.315038 0.399992 0.309643
C50   C     C_3   0.991497 0.234213 0.383105 -0.376369
C51   C     C_3   0.687445 0.622888 0.650615 0.300226
C52   C     C_3   0.687639 0.640444 0.717347 -0.340449
C53   C     C_1   0.977687 0.120533 0.559864 0.340034
C54   C     C_3   0.038726 0.257891 0.740258 -0.288114
C55   C     C_3   0.547582 0.289488 0.714867 0.516150
C56   C     C_3   0.510262 0.267777 0.775625 -0.315795
C57   C     C_R   0.337995 0.521366 0.333052 -0.301866
H1    H     H_    0.650390 0.725424 0.384101 0.063942
H2    H     H_    0.812027 0.612028 0.635839 0.003341
H3    H     H_    0.605376 0.574648 0.638451 0.080086
H4    H     H_    0.750638 0.816676 0.323719 0.141167
H5    H     H_    0.772514 0.687453 0.730839 0.133851
H6    H     H_    0.726849 0.594127 0.738243 0.073709
H7    H     H_    0.563504 0.652743 0.732965 0.136526
H8    H     H_    0.474433 0.703681 0.336029 -0.058019
H9    H     H_    0.541396 0.831133 0.342027 0.077272
H10   H     H_    0.385331 0.376061 0.363499 0.020466
H11   H     H_    0.593656 0.410797 0.357466 0.059936
H12   H     H_    0.297158 0.779710 0.648408 0.126080
H13   H     H_    0.413740 0.297167 0.269319 0.140406
H14   H     H_    0.458916 0.389968 0.259925 0.070947
H15   H     H_    0.622448 0.330912 0.263538 0.130167
H16   H     H_    0.592586 0.790042 0.269174 0.128856
H17   H     H_    0.113442 0.721261 0.226206 0.138790
H18   H     H_    0.998582 0.337325 0.683340 0.011037
H19   H     H_    0.902235 0.249168 0.660382 -0.021555
H20   H     H_    0.133849 0.294188 0.763913 0.149872
H21   H     H_    0.923909 0.262003 0.765501 0.114808
H22   H     H_    0.075708 0.201823 0.737087 0.128461
H23   H     H_    0.248135 0.789029 0.572928 0.078306
H24   H     H_    0.678746 0.304497 0.713997 -0.105384
H25   H     H_    0.597227 0.228410 0.786583 0.098319
H26   H     H_    0.385530 0.243053 0.776826 0.125075
H27   H     H_    0.019532 0.653459 0.309793 0.085928
H28   H     H_    0.521768 0.315494 0.809258 0.098379
H29   H     H_    0.048683 0.323958 0.047021 0.124864
H30   H     H_    0.977381 0.317601 0.943643 0.121431
H31   H     H_    0.224253 0.680513 0.056270 0.121701
H32   H     H_    0.487412 0.564009 0.202304 0.107071
H33   H     H_    0.152236 0.674184 0.952742 0.125124
H34   H     H_    0.087774 0.784244 0.626223 0.140338
H35   H     H_    0.169556 0.541622 0.755408 0.119946
H36   H     H_    0.720595 0.427231 0.798531 0.092583
H37   H     H_    0.029683 0.456220 0.240149 0.120343
H38   H     H_    0.373337 0.524159 0.378842 0.079396
H39   H     H_    0.209820 0.704740 0.322466 -0.068007
H40   H     H_    0.848085 0.466227 0.617499 0.075198
H41   H     H_    0.294036 0.860127 0.429519 0.101533
H42   H     H_    0.683157 0.811571 0.543742 0.111246
H43   H     H_    0.511831 0.171868 0.460715 0.097413
H44   H     H_    0.379634 0.640593 0.466201 0.072358
H45   H     H_    0.880451 0.333097 0.412429 -0.001461
H46   H     H_    0.843955 0.345382 0.524572 0.048409
H47   H     H_    0.919866 0.747936 0.254586 0.147946
H48   H     H_    0.101151 0.804250 0.274200 0.112227
H49   H     H_    0.314172 0.663507 0.586220 0.000082
H50   H     H_    0.109467 0.668964 0.560003 0.084941
H51   H     H_    0.086381 0.328268 0.437871 0.063084
H52   H     H_    0.902684 0.219457 0.346644 0.134522
H53   H     H_    0.952175 0.206566 0.421171 0.052852
H54   H     H_    0.112385 0.215815 0.368622 0.129997
I1    I     I_    0.510564 0.198160 0.650247 -0.409056
N1    N     N_R   0.992614 0.489792 0.849179 -0.423806
N2    N     N_R   0.204189 0.508276 0.150998 -0.424296
N3    N     N_R   0.532174 0.039655 0.467825 -0.241069
N4    N     N_R   0.477209 0.971296 0.463008 -0.242353
N5    N     N_R   0.668998 0.948675 0.532112 -0.230111
N6    N     N_R   0.723581 0.017152 0.536989 -0.224661
N7    N     N_1   0.066606 0.082967 0.577841 -0.227193
O1    O     O_2   0.898140 0.461210 0.359840 -0.458398
O2    O     O_2   0.251006 0.248833 0.536277 -0.446129
O3    O     O_3   0.148970 0.262331 0.644237 -0.529476
O4    O     O_3   0.138540 0.461940 0.430900 -0.493040
O5    O     O_3   0.557600 0.585010 0.531050 -0.494396
O6    O     O_2   0.379790 0.327560 0.468300 -0.457695
O7    O     O_3   0.562277 0.304510 0.372876 -0.642461
O8    O     O_2   0.467239 0.482679 0.706198 -0.492412
O9    O     O_3   0.444317 0.343592 0.703205 -0.553710
O10   O     O_2   0.049749 0.609478 0.856105 -0.593646
O11   O     O_2   0.946305 0.370147 0.849762 -0.627627
O12   O     O_3   0.634860 0.681685 0.625519 -0.631518
O13   O     O_2   0.149942 0.388356 0.143316 -0.595747
O14   O     O_2   0.256846 0.627493 0.150629 -0.614672
O15   O     O_3   0.654260 0.589640 0.397760 -0.484335
O16   O     O_2   0.782113 0.540430 0.293654 -0.488256
O17   O     O_3   0.057121 0.347108 0.351184 -0.627599
O18   O     O_3   0.694111 0.671654 0.301625 -0.593487
O19   O     O_2   0.809910 0.672460 0.531740 -0.458374
O20   O     O_3   0.065030 0.625960 0.427320 -0.485815
O21   O     O_2   0.005688 0.754591 0.484353 -0.476975
O22   O     O_3   0.008492 0.745829 0.368775 -0.585182
O23   O     O_2   0.291560 0.538810 0.640200 -0.450577
O24   O     O_3   0.051160 0.538120 0.569110 -0.499549
O25   O     O_3   0.535440 0.410410 0.602240 -0.446124
O26   O     O_3   0.134968 0.653131 0.647557 -0.626184
O27   O     O_3   0.632100 0.415050 0.468960 -0.481547
O28   O     O_3   0.124670 0.374100 0.572690 -0.476648
P1    P     P_3+3 0.069200 0.440380 0.368230 0.996161
P2    P     P_3+3 0.634560 0.662100 0.548650 0.985687
P3    P     P_3+3 0.099009 0.718784 0.430877 0.959591
P4    P     P_3+3 0.120500 0.559680 0.631780 0.996214
P5    P     P_3+3 0.109010 0.280972 0.572873 1.016762
P6    P     P_3+3 0.644486 0.586035 0.320792 0.958322
P7    P     P_3+3 0.562723 0.325535 0.449614 0.955677
P8    P     P_3+3 0.556613 0.416621 0.679203 0.985756

loop_
_geom_bond_atom_site_label_1
_geom_bond_atom_site_label_2
_ccdc_geom_bond_type
C42   C47   A    
C46   C53   S    
C19   C24   D    
C53   N7    T    
O3    P5    S    
C40   H34   S    
Ba2   O23   S    
Ba1   O24   S    
C1    H9    S    
O12   P2    S    
C56   H28   S    
O8    P8    D    
C45   O3    S    
C28   O26   S    
O25   P8    S    
C50   H54   S    
O17   P1    S    
Ba2   O24   S    
C54   H20   S    
O9    P8    S    
C32   C38   D    
O1    P1    D    
Ba2   P4    S    
C33   C35   S    
C23   O7    S    
Ba1   O4    S    
C32   C33   S    
C56   H25   S    
C36   C37   S    
C50   H53   S    
C5    N1    Am   
C29   H37   S    
O16   P6    D    
Ba1   Ba2   S    
C51   H3    S    
O21   P3    D    
O23   P4    D    
C7    C11   A    
C24   N1    S    
C27   P1    S    
Ba1   O1    S    
C51   H2    S    
C27   C57   A    
C6    C7    A    
C21   C31   D    
C40   H23   S    
C48   H46   S    
C12   H8    S    
C55   H24   S    
C25   H32   S    
Ba1   O15   S    
C1    H16   S    
O24   P4    S    
Ba2   O6    S    
Ba2   O28   S    
C8    H33   S    
C39   N6    A    
C19   C20   S    
C3    N1    Am   
C4    C16   S    
C39   C47   S    
C37   H42   S    
C44   P5    S    
C44   C46   A    
C28   H50   S    
C49   C50   S    
C55   O9    S    
C5    C6    A    
C51   O12   S    
Ba1   O5    S    
C8    C9    A    
C37   C38   D    
C52   H6    S    
O15   P6    S    
C42   H43   S    
C14   C15   A    
C19   H36   S    
C50   H52   S    
C49   H45   S    
C51   C52   S    
C30   N2    S    
C38   P2    S    
C17   N2    Am   
C31   H40   S    
O28   P5    S    
C16   H47   S    
C35   C36   D    
C22   H35   S    
C13   H30   S    
O5    P2    S    
C29   C30   A    
O18   P6    S    
C21   C22   D    
C10   C18   A    
Ba1   P1    S    
C43   P7    S    
C16   H48   S    
Ba1   O19   S    
O19   P2    D    
C5    O11   D    
C1    C12   S    
C34   H15   S    
Ba2   O4    S    
Ba2   O5    S    
O22   P3    S    
C6    C13   A    
C21   P4    S    
C57   H38   S    
Ba2   O25   S    
C33   P3    S    
C45   H18   S    
C2    C8    A    
C56   H26   S    
C4    H39   S    
C25   C26   A    
C42   C43   A    
C18   N2    Am   
C26   C57   A    
C20   C31   S    
C46   C47   A    
C16   H17   S    
C28   H49   S    
C25   C30   A    
C22   C24   S    
C2    C3    A    
C54   H21   S    
O6    P7    D    
N5    N6    A    
C55   I1    S    
C52   H7    S    
C20   P8    S    
C1    H4    S    
C49   H51   S    
C12   H1    S    
C44   C48   A    
C32   H44   S    
C4    H27   S    
C11   C15   A    
C4    O22   S    
C36   C41   S    
C27   C29   A    
C26   P6    S    
N3    N4    A    
C9    H31   S    
C55   C56   S    
C52   H5    S    
C43   C48   A    
C40   H12   S    
C15   C17   A    
C54   H22   S    
Ba1   P2    S    
C17   O13   D    
C18   O14   D    
O26   P4    S    
C12   O18   S    
Ba1   O20   S    
C34   H14   S    
O7    P7    S    
C23   C34   S    
C49   O17   S    
C34   H13   S    
C3    O10   D    
C23   H10   S    
C10   C11   A    
O20   P3    S    
C41   N4    A    
O4    P1    S    
C14   H29   S    
C28   C40   S    
Ba1   O27   S    
C23   H11   S    
O27   P7    S    
C45   H19   S    
C39   N3    A    
C2    C7    A    
Ba2   O27   S    
C35   H41   S    
C13   C14   A    
C9    C10   A    
C41   N5    A    
C45   C54   S    
O2    P5    D    
