data_mof_unit_8149.cif
_audit_creation_date              2012-12-11T17:01:31-0500
_audit_creation_method            fapswitch 2.2
_symmetry_space_group_name_H-M    P1
_symmetry_Int_Tables_number       1
_space_group_crystal_system       triclinic
_cell_length_a                    14.974557
_cell_length_b                    14.887764
_cell_length_c                    14.855858
_cell_angle_alpha                 109.418754
_cell_angle_beta                  109.13969
_cell_angle_gamma                 109.937922
_cell_volume                      2546.8240789

loop_
_atom_site_label
_atom_site_type_symbol
_atom_type_description
_atom_site_fract_x
_atom_site_fract_y
_atom_site_fract_z
_atom_type_partial_charge
C1    C     C_R   0.003031 0.803586 0.096289 -0.128145
C2    C     C_R   0.223306 0.751133 0.315477 -0.126887
C3    C     C_R   0.904352 0.409302 0.209685 -0.147850
C4    C     C_R   0.792504 0.195724 0.700532 -0.159444
C5    C     C_R   0.299797 0.591606 0.994641 -0.155493
C6    C     C_R   0.933708 0.501454 0.302715 0.083966
C7    C     C_R   0.300576 0.500114 0.931921 0.000130
C8    C     C_R   0.325951 0.776362 0.325344 0.073061
C9    C     C_R   0.052115 0.228275 0.055054 0.070706
C10   C     C_3   0.470057 0.396468 0.829192 -0.397620
C11   C     C_3   0.365994 0.396602 0.824742 -0.404531
C12   C     C_R   0.698087 0.131809 0.696744 0.079078
C13   C     C_3   0.565604 0.499782 0.037559 -0.393033
C14   C     C_3   0.573867 0.603487 0.932615 -0.386618
C15   C     C_3   0.572957 0.499857 0.935826 0.383992
C16   C     C_R   0.024729 0.592750 0.778761 -0.145647
C17   C     C_3   0.397303 0.500155 0.928262 0.397425
C18   C     C_3   0.462687 0.499704 0.032936 -0.392004
C19   C     C_3   0.470230 0.604073 0.928999 -0.409383
C20   C     C_R   0.623471 0.965018 0.520216 0.163680
C21   C     C_R   0.620317 0.014937 0.616355 0.032305
C22   C     C_R   0.530161 0.954790 0.624143 -0.202855
C23   C     C_R   0.950913 0.501603 0.674776 0.071121
C24   C     C_R   0.435145 0.863064 0.528931 -0.201999
C25   C     C_R   0.430544 0.832548 0.426411 0.032492
C26   C     C_R   0.529680 0.875302 0.426202 0.161775
C27   C     C_3   0.559559 0.915282 0.354266 -0.525800
C28   C     C_R   0.685383 0.407494 0.932945 -0.137232
C29   C     C_3   0.662187 0.012715 0.457070 -0.523950
C30   C     C_R   0.943180 0.604357 0.478759 0.159616
C31   C     C_R   0.897039 0.504583 0.382944 0.029001
C32   C     C_R   0.829427 0.406598 0.375777 -0.207633
C33   C     C_R   0.833185 0.407080 0.471374 -0.201376
C34   C     C_R   0.674588 0.499812 0.948723 -0.002698
C35   C     C_R   0.905278 0.505298 0.573614 0.033042
C36   C     C_R   0.947778 0.604820 0.573159 0.168443
C37   C     C_3   0.059009 0.706771 0.644674 -0.525008
C38   C     C_3   0.053409 0.706414 0.541537 -0.526116
C39   C     C_R   0.038371 0.025153 0.145760 0.081082
C40   C     C_R   0.935920 0.408396 0.684627 -0.126523
C41   C     C_R   0.093018 0.981931 0.101063 0.036727
C42   C     C_R   0.167724 0.047964 0.080660 -0.194133
C43   C     C_R   0.167636 0.142299 0.081520 -0.204709
C44   C     C_R   0.093031 0.170039 0.103031 0.055185
C45   C     C_R   0.994566 0.592039 0.299124 -0.161991
C46   C     C_R   0.041034 0.119820 0.150292 0.136462
C47   C     C_3   0.926377 0.078707 0.132235 -0.581023
C48   C     C_3   0.923126 0.974100 0.125604 -0.161259
C49   C     C_R   0.777446 0.592233 0.025386 -0.131641
C50   C     C_R   0.699142 0.195474 0.789835 -0.134703
C51   C     C_R   0.092778 0.804817 0.003417 -0.145352
C52   C     C_R   0.061728 0.867037 0.064668 0.078539
C53   C     C_1   0.841875 0.877563 0.014675 0.106282
C54   C     C_R   0.208890 0.408494 0.904041 -0.150795
C55   C     C_R   0.313312 0.746041 0.221388 -0.148637
C56   C     C_R   0.978533 0.257977 0.071149 -0.147177
C57   C     C_R   0.067037 0.251265 0.975773 -0.127270
H1    H     H_    0.983299 0.831922 0.160124 0.082390
H2    H     H_    0.474154 0.395806 0.755550 0.159093
H3    H     H_    0.318480 0.395764 0.748752 0.156785
H4    H     H_    0.828049 0.167164 0.652923 0.101676
H5    H     H_    0.314262 0.319445 0.820369 0.146124
H6    H     H_    0.564358 0.425791 0.041021 0.156325
H7    H     H_    0.411746 0.425402 0.033594 0.155130
H8    H     H_    0.645881 0.680790 0.006671 0.150006
H9    H     H_    0.577976 0.603843 0.859300 0.165761
H10   H     H_    0.423765 0.606021 0.854549 0.157758
H11   H     H_    0.496326 0.680842 0.002397 0.147866
H12   H     H_    0.178686 0.323122 0.848625 0.085570
H13   H     H_    0.638455 0.573824 0.114875 0.155337
H14   H     H_    0.486065 0.573583 0.108037 0.155433
H15   H     H_    0.527028 0.985281 0.699362 0.124380
H16   H     H_    0.051315 0.677973 0.803133 0.111682
H17   H     H_    0.362498 0.826430 0.534395 0.126104
H18   H     H_    0.576257 0.859553 0.299619 0.186851
H19   H     H_    0.503869 0.940283 0.313055 0.200849
H20   H     H_    0.737825 0.012590 0.461926 0.187795
H21   H     H_    0.664115 0.092081 0.473368 0.199285
H22   H     H_    0.784927 0.327946 0.300859 0.125083
H23   H     H_    0.373893 0.748201 0.197221 0.108464
H24   H     H_    0.791342 0.328832 0.466426 0.126531
H25   H     H_    0.058001 0.778423 0.699029 0.192141
H26   H     H_    0.124938 0.692175 0.686074 0.198678
H27   H     H_    0.048427 0.777446 0.536185 0.188348
H28   H     H_    0.621736 0.321891 0.884563 0.092079
H29   H     H_    0.116132 0.691882 0.525452 0.199515
H30   H     H_    0.216829 0.021111 0.052303 0.121579
H31   H     H_    0.215420 0.184229 0.052232 0.122162
H32   H     H_    0.924998 0.128290 0.206121 0.181910
H33   H     H_    0.866801 0.065746 0.053907 0.202560
H34   H     H_    0.953037 0.257433 0.130815 0.115896
H35   H     H_    0.916737 0.961610 0.193445 0.116109
H36   H     H_    0.883134 0.323010 0.620328 0.092468
H37   H     H_    0.799360 0.677740 0.062936 0.093748
H38   H     H_    0.646910 0.166928 0.821729 0.082660
H39   H     H_    0.152911 0.834509 0.979802 0.085352
H40   H     H_    0.013721 0.675612 0.346107 0.100560
H41   H     H_    0.119617 0.238936 0.943823 0.090967
H42   H     H_    0.202511 0.762644 0.379920 0.092844
H43   H     H_    0.843255 0.325149 0.177419 0.085427
H44   H     H_    0.354381 0.676821 0.023039 0.086511
H45   H     H_    0.464334 0.319155 0.826370 0.146950
N1    N     N_R   0.995640 0.706130 0.053910 -0.038114
N2    N     N_R   0.054010 0.556790 0.847890 -0.039222
N3    N     N_R   0.789940 0.443190 0.997130 -0.036313
N4    N     N_R   0.997630 0.443170 0.791110 -0.038825
N5    N     N_R   0.846320 0.556810 0.053910 -0.037310
N6    N     N_R   0.791080 0.293860 0.847890 -0.036837
N7    N     N_R   0.052880 0.706130 0.997130 -0.038322
N8    N     N_R   0.002370 0.556830 0.208890 -0.037139
N9    N     N_1   0.778328 0.802020 0.927605 -0.104363
N10   N     N_R   0.153680 0.443190 0.946090 -0.032028
N11   N     N_R   0.208920 0.706140 0.152110 -0.040214
N12   N     N_R   0.947120 0.293870 0.002870 -0.040900
N13   N     N_R   0.004360 0.293870 0.946090 -0.039852
N14   N     N_R   0.151690 0.706140 0.208890 -0.040738
N15   N     N_R   0.945990 0.443210 0.152110 -0.038322
N16   N     N_R   0.210060 0.556810 0.002870 -0.032456
N17   N     N_R   0.848310 0.293860 0.791110 -0.037492
Ni1   Ni    Ni4+2 0.999010 0.630300 0.130220 0.205639
Ni2   Ni    Ni4+2 0.000990 0.369700 0.869780 0.209799
Ni3   Ni    Ni4+2 0.130280 0.630280 0.000000 0.208061
Ni4   Ni    Ni4+2 0.869720 0.369720 0.000000 0.206627

loop_
_geom_bond_atom_site_label_1
_geom_bond_atom_site_label_2
_ccdc_geom_bond_type
N13   Ni2   S    
C6    C45   A    
C27   C29   S    
C41   C42   A    
N1    Ni1   S    
C40   H36   S    
C3    C6    A    
C18   H7    S    
N2    N4    A    
N12   N13   A    
C39   C41   A    
N3    N5    A    
N3    Ni4   S    
C26   C27   S    
C13   C18   S    
C38   H29   S    
C43   H31   S    
C36   C37   S    
C10   C15   S    
C30   C31   A    
N7    Ni3   S    
N2    Ni3   S    
C13   H13   S    
C23   C40   A    
C30   C38   S    
N16   Ni3   S    
C3    N15   A    
C17   C19   S    
C2    N14   A    
C3    H43   S    
C16   N2    A    
C56   H34   S    
N11   Ni3   S    
C35   C36   A    
C7    C17   S    
C4    N17   A    
C19   H10   S    
C49   H37   S    
C49   N5    A    
C1    N1    A    
C15   C34   S    
C51   H39   S    
N11   N14   A    
C53   N9    T    
C6    C31   S    
C28   C34   A    
C51   N7    A    
C21   C22   A    
C50   N6    A    
C8    C25   S    
C47   H32   S    
N6    N17   A    
C27   H18   S    
C8    C55   A    
C22   H15   S    
C44   C46   A    
C20   C29   S    
N17   Ni2   S    
C48   C53   S    
C5    H44   S    
C29   H21   S    
C51   C52   A    
C10   H45   S    
C24   C25   A    
C57   N13   A    
N8    Ni1   S    
C5    C7    A    
C45   N8    A    
C55   N11   A    
C25   C26   A    
C12   C21   S    
C16   H16   S    
C43   C44   A    
C37   C38   S    
C47   C48   S    
C13   H6    S    
C28   N3    A    
C17   C18   S    
C14   H9    S    
C54   N10   A    
C19   H11   S    
C9    C56   A    
C39   C46   A    
N12   Ni4   S    
C2    H42   S    
C16   C23   A    
C23   C35   S    
C13   C15   S    
C47   H33   S    
C22   C24   A    
C37   H25   S    
C4    C12   A    
C42   C43   A    
N6    Ni4   S    
C11   H3    S    
N5    Ni1   S    
C40   N4    A    
C18   H14   S    
C46   C47   S    
C11   C17   S    
C9    C44   S    
C41   C52   S    
C38   H27   S    
C14   C19   S    
C31   C32   A    
C2    C8    A    
C12   C50   A    
C11   H5    S    
C30   C36   A    
C5    N16   A    
N1    N7    A    
C32   C33   A    
C10   H2    S    
N15   Ni4   S    
N10   Ni2   S    
C45   H40   S    
C1    H1    S    
C32   H22   S    
N10   N16   A    
C55   H23   S    
C24   H17   S    
C54   H12   S    
C20   C26   A    
N8    N15   A    
C57   H41   S    
C4    H4    S    
N4    Ni2   S    
C33   C35   A    
C14   H8    S    
C9    C57   A    
C50   H38   S    
C1    C52   A    
C10   C11   S    
N14   Ni1   S    
C29   H20   S    
C20   C21   A    
C34   C49   A    
C48   H35   S    
C28   H28   S    
C56   N12   A    
C14   C15   S    
C37   H26   S    
C42   H30   S    
C7    C54   A    
C33   H24   S    
C27   H19   S    
C39   C48   S    
