data_mof_unit_58031.cif
_audit_creation_date              2012-12-10T17:22:12-0500
_audit_creation_method            fapswitch 2.2
_symmetry_space_group_name_H-M    P1
_symmetry_Int_Tables_number       1
_space_group_crystal_system       triclinic
_cell_length_a                    15.862896
_cell_length_b                    10.745248
_cell_length_c                    9.639297
_cell_angle_alpha                 90.404657
_cell_angle_beta                  89.251112
_cell_angle_gamma                 92.750467
_cell_volume                      1640.95839732

loop_
_atom_site_label
_atom_site_type_symbol
_atom_type_description
_atom_site_fract_x
_atom_site_fract_y
_atom_site_fract_z
_atom_type_partial_charge
C1    C     C_R   0.498194 0.262753 0.499705 0.780481
C2    C     C_3   0.949152 0.529253 0.655415 0.059409
C3    C     C_3   0.916964 0.497884 0.505245 0.223482
C4    C     C_3   0.954954 0.599470 0.406655 -0.450284
C5    C     C_3   0.052261 0.599606 0.407677 -0.407631
C6    C     C_1   0.824702 0.497690 0.499927 -0.071774
C7    C     C_1   0.175342 0.498822 0.504323 -0.074603
C8    C     C_1   0.250882 0.499070 0.502357 -0.182378
C9    C     C_R   0.352782 0.118617 0.391660 -0.201859
C10   C     C_R   0.283730 0.048119 0.340589 -0.144821
C11   C     C_R   0.283342 0.918569 0.342262 -0.150153
C12   C     C_R   0.340468 0.499310 0.500768 0.800223
C13   C     C_R   0.352112 0.858747 0.394650 -0.186621
C14   C     C_R   0.423045 0.928335 0.445959 0.103179
C15   C     C_R   0.423306 0.059846 0.444692 0.085264
C16   C     C_R   0.493599 0.128565 0.499332 -0.091946
C17   C     C_R   0.560864 0.068904 0.557047 -0.195562
C18   C     C_R   0.560903 0.940491 0.557209 -0.210229
C19   C     C_R   0.493298 0.870419 0.501045 -0.054982
C20   C     C_R   0.580171 0.709322 0.135732 0.192553
C21   C     C_R   0.578335 0.820127 0.058742 0.220191
C22   C     C_R   0.594310 0.809943 0.917092 -0.298640
C23   C     C_R   0.498290 0.736992 0.500380 0.752474
C24   C     C_R   0.586425 0.693420 0.854535 -0.183625
C25   C     C_R   0.542679 0.595191 0.924372 0.185168
C26   C     C_R   0.541162 0.598706 0.073360 0.131812
C27   C     C_R   0.460462 0.407479 0.073981 -0.066721
C28   C     C_R   0.459810 0.408173 0.926465 -0.054507
C29   C     C_R   0.659510 0.498693 0.499303 0.803883
C30   C     C_3   0.047806 0.512607 0.664941 0.387968
C31   C     C_3   0.046054 0.373294 0.446321 -0.465366
C32   C     C_3   0.948309 0.369901 0.455006 -0.403512
C33   C     C_1   0.749148 0.497930 0.498250 -0.187946
C34   C     C_3   0.083030 0.498360 0.508808 0.244344
Cu1   Cu    Cu3+1 0.499990 0.499990 0.640660 0.936966
Cu2   Cu    Cu3+1 0.500010 0.500010 0.359340 0.929551
H1    H     H_    0.938287 0.629942 0.673029 0.137155
H2    H     H_    0.932360 0.581955 0.299054 0.182751
H3    H     H_    0.614286 0.122238 0.599788 0.138405
H4    H     H_    0.349858 0.218959 0.390516 0.135203
H5    H     H_    0.230029 0.094221 0.300531 0.129173
H6    H     H_    0.229325 0.864154 0.303600 0.130058
H7    H     H_    0.348701 0.758085 0.395728 0.144637
H8    H     H_    0.614649 0.895393 0.598877 0.117865
H9    H     H_    0.427665 0.331716 0.128738 0.135843
H10   H     H_    0.616134 0.890574 0.857659 0.160780
H11   H     H_    0.612673 0.684078 0.752370 0.195653
H12   H     H_    0.426309 0.333039 0.872025 0.137017
H13   H     H_    0.066112 0.364227 0.335663 0.186752
H14   H     H_    0.070536 0.290534 0.497893 0.156218
H15   H     H_    0.925155 0.294094 0.525510 0.152078
H16   H     H_    0.922404 0.346811 0.350661 0.181036
H17   H     H_    0.079059 0.694489 0.427076 0.168607
H18   H     H_    0.074851 0.578821 0.300440 0.174486
H19   H     H_    0.934001 0.692950 0.438603 0.158076
N1    N     N_R   0.500800 0.501210 0.147910 -0.187622
N2    N     N_R   0.500820 0.501290 0.852040 -0.183291
O1    O     O_R   0.499990 0.319640 0.618810 -0.578713
O2    O     O_R   0.500000 0.319660 0.381240 -0.588164
O3    O     O_R   0.379430 0.499990 0.618840 -0.559345
O4    O     O_R   0.379440 0.500020 0.381260 -0.582319
O5    O     O_R   0.500000 0.680340 0.618760 -0.581873
O6    O     O_R   0.500010 0.680360 0.381190 -0.587670
O7    O     O_R   0.620560 0.499980 0.618740 -0.593828
O8    O     O_R   0.620570 0.500010 0.381160 -0.566864
N3    N     N_2   0.901348 0.457487 0.760984 -0.426615
H20   H     H_    0.878865 0.369307 0.733427 0.259474
C35   C     C_3   0.845177 0.524602 0.850543 -0.748176
H21   H     H_    0.818526 0.461061 0.932007 0.237146
H22   H     H_    0.792586 0.560393 0.789868 0.241829
H23   H     H_    0.880365 0.603443 0.902319 0.225346
N4    N     N_2   0.087425 0.618648 0.742466 -0.412275
H24   H     H_    0.060094 0.630852 0.839017 0.263591
C36   C     C_3   0.108448 0.738819 0.680964 -0.745645
H25   H     H_    0.131528 0.804680 0.762974 0.227815
H26   H     H_    0.051883 0.778393 0.635116 0.209731
H27   H     H_    0.161255 0.732415 0.605319 0.249437
C37   C     C_3   0.068154 0.390590 0.747861 -0.336873
C38   C     C_3   0.068022 0.400603 0.907088 -0.854114
H28   H     H_    0.123081 0.459617 0.942590 0.252823
H29   H     H_    0.009255 0.439221 0.948622 0.274014
H30   H     H_    0.073620 0.306433 0.951814 0.230460
H31   H     H_    0.023566 0.311975 0.719931 0.183417
H32   H     H_    0.131993 0.360517 0.718288 0.192765
C39   C     C_3   0.661955 0.706274 0.217538 -0.308179
C40   C     C_3   0.722525 0.611906 0.158381 -0.865318
H33   H     H_    0.693333 0.516115 0.154760 0.275432
H34   H     H_    0.741421 0.639325 0.051247 0.238330
H35   H     H_    0.780117 0.611931 0.222438 0.237456
H36   H     H_    0.698716 0.796999 0.211496 0.173702
H37   H     H_    0.650843 0.700297 0.329968 0.207419
N5    N     N_2   0.589018 0.938051 0.125711 -0.439341
H38   H     H_    0.644199 0.986382 0.096949 0.242417
C41   C     C_3   0.516696 0.014025 0.114480 -0.652593
H39   H     H_    0.507890 0.041390 0.004791 0.216817
H40   H     H_    0.526694 0.099763 0.178283 0.234463
H41   H     H_    0.458782 0.962287 0.152642 0.249352

loop_
_geom_bond_atom_site_label_1
_geom_bond_atom_site_label_2
_ccdc_geom_bond_type
N3    C35   S    
C11   C13   A    
Cu1   Cu2   S    
Cu2   O2    S    
C27   N1    A    
C39   H37   S    
C7    C8    T    
C28   N2    A    
C36   H26   S    
Cu1   O1    S    
C5    H17   S    
C1    O2    A    
C40   H34   S    
C15   C16   A    
C29   C33   S    
C11   H6    S    
C18   C19   A    
C17   H3    S    
C32   H16   S    
C37   H31   S    
C23   O5    A    
C35   H21   S    
C36   H27   S    
Cu1   O7    S    
Cu2   O6    S    
C9    C10   A    
C3    C6    S    
C23   O6    A    
N3    H20   S    
C29   O7    A    
C13   C14   A    
C5    C34   S    
C10   H5    S    
C3    C32   S    
C25   N2    A    
C31   H13   S    
C36   H25   S    
C30   C34   S    
C5    H18   S    
C24   C25   A    
N4    C36   S    
C38   H29   S    
Cu2   O8    S    
C16   C17   A    
C41   H41   S    
C25   C26   A    
C39   C40   S    
C9    H4    S    
Cu1   O3    S    
C30   C37   S    
C19   C23   S    
C32   H15   S    
Cu2   N1    S    
C18   H8    S    
C31   C32   S    
C8    C12   S    
C20   C39   S    
N5    C41   S    
C17   C18   A    
C31   C34   S    
C1    C16   S    
C41   H40   S    
C29   O8    A    
C22   H10   S    
C4    H2    S    
C4    H19   S    
C7    C34   S    
C22   C24   A    
C31   H14   S    
C3    C4    S    
C13   H7    S    
C28   H12   S    
C40   H33   S    
C24   H11   S    
C14   C19   A    
N4    H24   S    
C2    N3    S    
C40   H35   S    
C26   N1    A    
C38   H30   S    
C30   N4    S    
C39   H36   S    
C6    C33   T    
C2    C30   S    
Cu1   N2    S    
C2    C3    S    
C9    C15   A    
C1    O1    A    
C12   O4    A    
C37   C38   S    
C2    H1    S    
C27   H9    S    
C20   C26   A    
C35   H23   S    
N5    H38   S    
Cu1   O5    S    
C41   H39   S    
C10   C11   A    
C38   H28   S    
C12   O3    A    
C37   H32   S    
C4    C5    S    
C20   C21   A    
C35   H22   S    
C27   C28   A    
C14   C15   A    
C21   C22   A    
Cu2   O4    S    
C21   N5    S    
