data_mof_unit_21017.cif
_audit_creation_date              2012-12-10T19:25:47-0500
_audit_creation_method            fapswitch 2.2
_symmetry_space_group_name_H-M    P1
_symmetry_Int_Tables_number       1
_space_group_crystal_system       triclinic
_cell_length_a                    9.861213
_cell_length_b                    10.53754
_cell_length_c                    16.970089
_cell_angle_alpha                 89.92663
_cell_angle_beta                  86.555269
_cell_angle_gamma                 91.508566
_cell_volume                      1759.60818498

loop_
_atom_site_label
_atom_site_type_symbol
_atom_type_description
_atom_site_fract_x
_atom_site_fract_y
_atom_site_fract_z
_atom_type_partial_charge
C1    C     C_R   0.501691 0.741633 0.496907 0.908421
C2    C     C_R   0.498091 0.258200 0.503911 0.938312
C3    C     C_3   0.412573 0.958958 0.448696 0.528145
C4    C     C_3   0.585771 0.039500 0.552276 0.505762
C5    C     C_3   0.534329 0.051005 0.427696 -0.536688
C6    C     C_3   0.463366 0.948672 0.573164 -0.531495
C7    C     C_3   0.495711 0.123236 0.504233 -0.263065
C8    C     C_3   0.503045 0.876097 0.496892 -0.279167
C9    C     C_3   0.374435 0.032850 0.523972 0.555973
C10   C     C_3   0.624412 0.966754 0.476900 0.522800
C11   C     C_3   0.954268 0.611434 0.514696 0.450676
C12   C     C_3   0.045400 0.387531 0.485750 0.390628
C13   C     C_3   0.054153 0.576130 0.447290 -0.135108
C14   C     C_3   0.944569 0.423806 0.552854 -0.154813
C15   C     C_3   0.041302 0.534673 0.567645 0.469793
C16   C     C_3   0.957659 0.464484 0.432395 0.434522
C17   C     C_R   0.482605 0.498230 0.651723 0.932801
C18   C     C_R   0.517943 0.507703 0.347221 0.882776
C19   C     C_R   0.475075 0.493288 0.736699 -0.115689
C20   C     C_R   0.526457 0.541616 0.262149 -0.159493
C21   C     C_R   0.543964 0.398208 0.774815 -0.024284
C22   C     C_R   0.405672 0.544186 0.221231 0.054335
C23   C     C_R   0.548726 0.401173 0.857059 0.018430
C24   C     C_R   0.408187 0.595507 0.145378 0.021844
C25   C     C_R   0.475071 0.492938 0.900130 -0.077626
C26   C     C_R   0.532919 0.616236 0.103487 -0.092374
C27   C     C_R   0.397153 0.582129 0.861750 0.483711
C28   C     C_R   0.655039 0.609700 0.141041 0.454834
C29   C     C_R   0.405148 0.587235 0.779372 -0.028289
C30   C     C_R   0.651292 0.583851 0.222675 -0.037929
C31   C     C_2   0.486914 0.500882 0.985845 0.452081
C32   C     C_2   0.533582 0.610725 0.016856 0.522673
H1    H     H_    0.561352 0.096942 0.369745 0.180095
H2    H     H_    0.435390 0.903360 0.631106 0.179518
N1    N     N_3   0.136700 0.499970 0.500060 -0.167785
N2    N     N_3   0.863300 0.500030 0.499940 -0.160037
O1    O     O_R   0.383390 0.686040 0.500000 -0.597505
O2    O     O_R   0.616610 0.313960 0.500000 -0.609740
O3    O     O_R   0.616650 0.686050 0.499970 -0.558966
O4    O     O_R   0.383350 0.313950 0.500030 -0.551751
O5    O     O_R   0.369590 0.500020 0.615820 -0.571474
O6    O     O_R   0.630410 0.499980 0.384180 -0.554869
O7    O     O_R   0.602840 0.500020 0.615790 -0.604055
O8    O     O_R   0.397160 0.499980 0.384210 -0.618387
Zn1   Zn    Zn3+2 0.344250 0.499990 0.500020 1.031101
Zn2   Zn    Zn3+2 0.655750 0.500010 0.499980 1.033777
N3    N     N_3   0.608783 0.299709 0.729349 -0.416364
H3    H     H_    0.563703 0.212645 0.747128 0.185861
H4    H     H_    0.711401 0.299174 0.741336 0.205985
N4    N     N_3   0.282428 0.485430 0.253835 -0.439725
H5    H     H_    0.203812 0.549330 0.250960 0.157537
H6    H     H_    0.259891 0.407030 0.218772 0.184137
O9    O     O_3   0.898423 0.730585 0.532784 -0.581630
C33   C     C_3   0.003579 0.823389 0.537836 -0.132661
H7    H     H_    0.090303 0.790719 0.570828 0.177725
H8    H     H_    0.962398 0.906707 0.569905 0.171366
H9    H     H_    0.040286 0.856499 0.478080 0.217812
O10   O     O_3   0.102144 0.268299 0.469096 -0.558251
C34   C     C_3   0.998569 0.173318 0.467744 -0.167519
H10   H     H_    0.903173 0.205991 0.443340 0.155979
H11   H     H_    0.975351 0.134683 0.527942 0.185204
H12   H     H_    0.036227 0.094306 0.430021 0.204049
O11   O     O_3   0.092679 0.574791 0.639657 -0.588713
C35   C     C_3   0.985198 0.585437 0.697938 -0.309364
H13   H     H_    0.964399 0.492547 0.727742 0.179061
H14   H     H_    0.890113 0.621507 0.674812 0.195862
H15   H     H_    0.016311 0.654050 0.743245 0.158790
O12   O     O_3   0.900584 0.431359 0.360738 -0.564152
C36   C     C_3   0.991298 0.362812 0.310765 -0.325197
H16   H     H_    0.096410 0.359187 0.330484 0.201541
H17   H     H_    0.995860 0.406601 0.251185 0.165019
H18   H     H_    0.951073 0.264171 0.305061 0.172975
N5    N     N_3   0.772841 0.599090 0.264926 -0.358511
H19   H     H_    0.757485 0.673121 0.304953 0.183376
H20   H     H_    0.856539 0.627900 0.228037 0.210093
N6    N     N_3   0.352055 0.692876 0.738722 -0.424475
H21   H     H_    0.248229 0.697965 0.753340 0.226224
H22   H     H_    0.399003 0.775968 0.758621 0.189101
O13   O     O_3   0.585970 0.708555 0.967422 -0.607916
C37   C     C_3   0.569490 0.828469 0.003108 -0.232008
H23   H     H_    0.641145 0.842940 0.050563 0.174351
H24   H     H_    0.462707 0.841571 0.026268 0.166966
H25   H     H_    0.593555 0.902830 0.957713 0.173810
O14   O     O_3   0.467532 0.393985 0.034730 -0.624070
C38   C     C_3   0.356228 0.316695 0.013850 -0.329663
H26   H     H_    0.264001 0.372289 0.006455 0.132189
H27   H     H_    0.331300 0.247988 0.062471 0.186623
H28   H     H_    0.381439 0.260769 0.959906 0.180475
O15   O     O_3   0.327748 0.674665 0.904214 -0.595806
C39   C     C_3   0.191337 0.633246 0.918649 -0.362373
H29   H     H_    0.183296 0.554549 0.962030 0.156464
H30   H     H_    0.142959 0.603130 0.863932 0.149003
H31   H     H_    0.132659 0.713093 0.944420 0.210928
O16   O     O_3   0.777002 0.633902 0.098240 -0.617468
C40   C     C_3   0.834300 0.517088 0.075762 -0.319855
H32   H     H_    0.768773 0.463556 0.035522 0.189523
H33   H     H_    0.853708 0.457497 0.127874 0.162903
H34   H     H_    0.933542 0.536732 0.043166 0.173030
N7    N     N_3   0.284499 0.617087 0.107290 -0.458566
H35   H     H_    0.226547 0.532764 0.106523 0.181435
H36   H     H_    0.229201 0.684348 0.139985 0.174508
N8    N     N_3   0.632244 0.315366 0.897154 -0.431422
H37   H     H_    0.602934 0.222131 0.883974 0.174242
H38   H     H_    0.733355 0.330842 0.876554 0.171393
O17   O     O_3   0.313717 0.913548 0.398112 -0.578871
C41   C     C_3   0.378255 0.871258 0.326945 -0.319882
H39   H     H_    0.300191 0.828517 0.289953 0.182920
H40   H     H_    0.427714 0.951760 0.292888 0.163082
H41   H     H_    0.453125 0.796923 0.337424 0.131766
O18   O     O_3   0.679321 0.089145 0.604450 -0.623512
C42   C     C_3   0.712487 0.994380 0.658127 -0.345191
H42   H     H_    0.734482 0.902231 0.628654 0.222134
H43   H     H_    0.629221 0.980984 0.704703 0.162737
H44   H     H_    0.805095 0.026145 0.687340 0.170745
O19   O     O_3   0.240879 0.069979 0.544834 -0.565578
C43   C     C_3   0.230758 0.105391 0.625002 -0.278322
H45   H     H_    0.311053 0.176455 0.639405 0.163795
H46   H     H_    0.233708 0.020557 0.663756 0.141216
H47   H     H_    0.131329 0.149493 0.637917 0.174189
O20   O     O_3   0.758145 0.927460 0.458448 -0.560068
C44   C     C_3   0.784491 0.925809 0.376038 -0.313470
H48   H     H_    0.799832 0.024182 0.352913 0.152038
H49   H     H_    0.701897 0.875845 0.345514 0.136902
H50   H     H_    0.879791 0.874482 0.362417 0.193235
N9    N     N_3   0.114906 0.668223 0.390902 -0.419680
H51   H     H_    0.056354 0.667864 0.341610 0.178158
H52   H     H_    0.211617 0.639185 0.373028 0.251546
N10   N     N_3   0.877585 0.343425 0.613637 -0.424893
H53   H     H_    0.952212 0.291983 0.639570 0.168855
H54   H     H_    0.815884 0.279034 0.585218 0.273905

loop_
_geom_bond_atom_site_label_1
_geom_bond_atom_site_label_2
_ccdc_geom_bond_type
C25   C31   S    
C26   C32   S    
C27   C29   A    
C1    C8    S    
N5    H19   S    
C40   H32   S    
N10   H53   S    
C6    C9    S    
C40   H34   S    
N3    H4    S    
C29   N6    S    
C20   C30   A    
O9    C33   S    
C3    O17   S    
C11   N2    S    
C19   C21   A    
N6    H22   S    
C13   N1    S    
C18   O6    A    
C14   N2    S    
C23   N8    S    
C41   H39   S    
O19   C43   S    
C24   N7    S    
C14   N10   S    
C43   H45   S    
C28   O16   S    
O6    Zn2   S    
C36   H17   S    
O18   C42   S    
C44   H50   S    
C2    C7    S    
C11   C15   S    
C12   C16   S    
O12   C36   S    
C5    H1    S    
N3    H3    S    
N4    H6    S    
N2    Zn2   S    
C16   O12   S    
C11   O9    S    
C1    O1    A    
C22   N4    S    
C13   N9    S    
C34   H10   S    
N5    H20   S    
C36   H16   S    
C4    C7    S    
C15   N1    S    
C38   H27   S    
O4    Zn1   S    
C33   H8    S    
C34   H11   S    
O2    Zn2   S    
O11   C35   S    
N8    H37   S    
C9    O19   S    
C35   H15   S    
N6    H21   S    
C37   H24   S    
C3    C8    S    
C5    C7    S    
C30   N5    S    
C6    C8    S    
O10   C34   S    
C38   H26   S    
C31   O14   S    
C6    H2    S    
C35   H14   S    
C36   H18   S    
C17   O7    A    
C3    C9    S    
C18   O8    A    
C2    O2    A    
C39   H30   S    
N7    H35   S    
N4    H5    S    
C42   H43   S    
O14   C38   S    
C12   N1    S    
N8    H38   S    
C44   H48   S    
O3    Zn2   S    
C4    C6    S    
N7    H36   S    
C12   C14   S    
C21   C23   A    
N9    H51   S    
C22   C24   A    
C20   C22   A    
O1    Zn1   S    
C19   C29   A    
O20   C44   S    
C39   H31   S    
C37   H25   S    
C38   H28   S    
C7    C9    S    
C4    O18   S    
C33   H7    S    
C34   H12   S    
C15   O11   S    
C42   H42   S    
C31   C32   D    
O8    Zn1   S    
C24   C26   A    
C37   H23   S    
C3    C5    S    
N10   H54   S    
C40   H33   S    
C25   C27   A    
O17   C41   S    
C26   C28   A    
C43   H47   S    
C35   H13   S    
C28   C30   A    
C12   O10   S    
C5    C10   S    
C16   N2    S    
C32   O13   S    
C11   C13   S    
C39   H29   S    
C41   H40   S    
C17   C19   S    
C43   H46   S    
C27   O15   S    
C42   H44   S    
C18   C20   S    
C23   C25   A    
O16   C40   S    
O7    Zn2   S    
C17   O5    A    
C44   H49   S    
C10   O20   S    
C1    O3    A    
O13   C37   S    
C2    O4    A    
C8    C10   S    
C13   C16   S    
N9    H52   S    
O5    Zn1   S    
C14   C15   S    
O15   C39   S    
C4    C10   S    
C33   H9    S    
C21   N3    S    
C41   H41   S    
N1    Zn1   S    
