data_mof_unit_17420.cif
_audit_creation_date              2012-12-11T14:54:36-0500
_audit_creation_method            fapswitch 2.2
_symmetry_space_group_name_H-M    P1
_symmetry_Int_Tables_number       1
_space_group_crystal_system       triclinic
_cell_length_a                    18.872127
_cell_length_b                    10.922193
_cell_length_c                    18.73114
_cell_angle_alpha                 90.148887
_cell_angle_beta                  90.425397
_cell_angle_gamma                 89.809579
_cell_volume                      3860.81595574

loop_
_atom_site_label
_atom_site_type_symbol
_atom_type_description
_atom_site_fract_x
_atom_site_fract_y
_atom_site_fract_z
_atom_type_partial_charge
Br1   Br    Br    0.855389 0.135630 0.103326 -0.388063
Br2   Br    Br    0.145743 0.137999 0.896379 -0.383381
Br3   Br    Br    0.355339 0.635685 0.103360 -0.384235
Br4   Br    Br    0.645684 0.637937 0.896424 -0.387240
Br5   Br    Br    0.791107 0.692185 0.614955 -0.418262
Br6   Br    Br    0.380580 0.778319 0.419594 -0.329679
Br7   Br    Br    0.285598 0.247428 0.622535 -0.403287
Br8   Br    Br    0.881967 0.276690 0.416538 -0.328633
C1    C     C_R   0.715027 0.340938 0.637768 0.541447
C2    C     C_R   0.305456 0.868391 0.464967 0.160890
C3    C     C_R   0.045946 0.553345 0.444644 0.272505
C4    C     C_R   0.257031 0.362030 0.549995 0.213638
C5    C     C_R   0.798284 0.346796 0.458462 0.180668
C6    C     C_R   0.770703 0.800304 0.476928 -0.125285
C7    C     C_R   0.302236 0.861342 0.538829 -0.150129
C8    C     C_R   0.262217 0.327896 0.478933 -0.125077
C9    C     C_R   0.788323 0.326034 0.530567 -0.130902
C10   C     C_R   0.756435 0.895810 0.428701 0.052055
C11   C     C_R   0.248151 0.921733 0.576007 0.011180
C12   C     C_R   0.250652 0.414203 0.424859 0.053352
C13   C     C_R   0.269256 0.378326 0.353316 0.602878
C14   C     C_R   0.729457 0.376289 0.565273 0.008022
C15   C     C_R   0.734738 0.010431 0.452251 0.246526
C16   C     C_R   0.199636 0.997417 0.538973 0.227656
C17   C     C_R   0.230876 0.534445 0.441333 0.256907
C18   C     C_R   0.679548 0.447257 0.526890 0.222304
C19   C     C_R   0.730049 0.030950 0.525003 -0.104889
C20   C     C_R   0.200105 0.997820 0.466142 -0.137596
C21   C     C_R   0.223292 0.567811 0.512626 -0.148461
C22   C     C_R   0.684694 0.453518 0.454706 -0.106638
C23   C     C_R   0.746878 0.937398 0.573598 0.045611
C24   C     C_R   0.230555 0.879566 0.646840 0.568678
C25   C     C_R   0.252892 0.936011 0.427968 0.009783
C26   C     C_R   0.235696 0.481675 0.566626 0.031047
C27   C     C_R   0.745823 0.412643 0.420316 0.028298
C28   C     C_R   0.499372 0.056396 0.962944 -0.194653
C29   C     C_R   0.497197 0.055743 0.035717 -0.194016
C30   C     C_R   0.999385 0.556400 0.962951 -0.194456
C31   C     C_R   0.997209 0.555740 0.035724 -0.193992
C32   C     C_R   0.494743 0.165673 0.074099 -0.004654
C33   C     C_R   0.504630 0.166783 0.925701 -0.006173
C34   C     C_R   0.994765 0.665667 0.074110 -0.004195
C35   C     C_R   0.770699 0.874120 0.354822 0.614435
C36   C     C_R   0.004653 0.666789 0.925712 -0.006334
C37   C     C_R   0.499800 0.278683 0.037834 0.246674
C38   C     C_R   0.501858 0.279359 0.963098 0.245515
C39   C     C_R   0.999846 0.778677 0.037852 0.247070
C40   C     C_R   0.001907 0.779363 0.963116 0.245258
C41   C     C_R   0.564099 0.149595 0.639024 0.542899
C42   C     C_R   0.470948 0.154945 0.351787 0.563890
C43   C     C_R   0.064135 0.649733 0.638976 0.540056
C44   C     C_R   0.971028 0.654960 0.351835 0.566480
C45   C     C_R   0.779465 0.063830 0.979806 -0.084358
C46   C     C_3   0.454012 0.354965 0.470454 -0.238358
C47   C     C_R   0.220948 0.065035 0.020246 -0.083012
C48   C     C_R   0.279457 0.563844 0.979815 -0.084518
C49   C     C_R   0.720937 0.565015 0.020256 -0.082874
C50   C     C_R   0.786655 0.038689 0.052061 0.186088
C51   C     C_R   0.213800 0.039848 0.947917 0.187655
C52   C     C_R   0.286638 0.538712 0.052072 0.187047
C53   C     C_R   0.713780 0.539822 0.947932 0.186683
C54   C     C_R   0.744919 0.945129 0.083121 0.030353
C55   C     C_R   0.255205 0.945271 0.916833 0.029540
C56   C     C_R   0.244909 0.445140 0.083127 0.031234
C57   C     C_3   0.470981 0.346210 0.549190 -0.218970
C58   C     C_R   0.755196 0.445263 0.916838 0.028983
C59   C     C_R   0.687425 0.898087 0.044152 -0.168108
C60   C     C_R   0.312407 0.896896 0.955811 -0.169831
C61   C     C_R   0.187420 0.398091 0.044156 -0.167741
C62   C     C_R   0.812403 0.396896 0.955812 -0.169910
C63   C     C_R   0.678501 0.929065 0.972476 -0.123752
C64   C     C_R   0.321252 0.927651 0.027561 -0.124419
C65   C     C_R   0.178499 0.429068 0.972478 -0.123992
C66   C     C_R   0.821250 0.427649 0.027563 -0.124709
C67   C     C_R   0.728367 0.004001 0.938619 -0.013073
C68   C     C_3   0.967281 0.868476 0.467319 -0.237502
C69   C     C_R   0.271703 0.003990 0.061410 -0.012725
C70   C     C_R   0.228365 0.504004 0.938622 -0.014791
C71   C     C_R   0.771701 0.503984 0.061414 -0.012416
C72   C     C_R   0.741837 0.967963 0.647944 0.597163
C73   C     C_R   0.259222 0.970326 0.353523 0.609862
C74   C     C_R   0.227658 0.519537 0.639893 0.547109
C75   C     C_R   0.757951 0.465879 0.351125 0.589594
C76   C     C_R   0.731341 0.383893 0.850876 0.568967
C77   C     C_R   0.268684 0.383653 0.149070 0.563082
C78   C     C_R   0.231341 0.883889 0.850879 0.560519
C79   C     C_3   0.986336 0.862952 0.545960 -0.225963
C80   C     C_R   0.768687 0.883647 0.149067 0.562153
C81   C     C_R   0.531396 0.157730 0.853157 0.567843
C82   C     C_R   0.468527 0.157290 0.146812 0.562990
C83   C     C_R   0.031403 0.657731 0.853162 0.568176
C84   C     C_R   0.968533 0.657289 0.146817 0.564611
C85   C     C_R   0.726583 0.024351 0.861259 0.557879
C86   C     C_R   0.273426 0.024427 0.138769 0.553940
C87   C     C_R   0.226583 0.524351 0.861259 0.560466
C88   C     C_R   0.773426 0.524427 0.138770 0.552993
C89   C     C_R   0.515301 0.162306 0.415872 0.011122
C90   C     C_R   0.766611 0.821050 0.549931 0.162230
C91   C     C_R   0.549784 0.152526 0.562229 -0.045307
C92   C     C_R   0.016700 0.661793 0.415211 0.016297
C93   C     C_R   0.051124 0.652874 0.561743 -0.041420
C94   C     C_R   0.513924 0.268059 0.458043 -0.024299
C95   C     C_R   0.531126 0.263078 0.529898 -0.014267
C96   C     C_R   0.020430 0.768917 0.456045 -0.021301
C97   C     C_R   0.038605 0.764698 0.527644 -0.027856
C98   C     C_R   0.558895 0.047208 0.518485 0.205906
C99   C     C_R   0.546415 0.054873 0.444698 0.283767
C100  C     C_R   0.057490 0.545967 0.518641 0.202669
Cl1   Cl    Cl    0.576763 0.900133 0.554336 -0.432353
Cl2   Cl    Cl    0.497879 0.421619 0.918081 -0.441767
Cl3   Cl    Cl    0.006832 0.919549 0.084386 -0.441893
Cl4   Cl    Cl    0.997966 0.921637 0.918112 -0.442691
Cl5   Cl    Cl    0.566116 0.925467 0.390547 -0.421281
Cl6   Cl    Cl    0.072455 0.398452 0.555026 -0.421663
Cl7   Cl    Cl    0.064941 0.423127 0.390975 -0.436220
Cl8   Cl    Cl    0.709816 0.125205 0.391223 -0.582428
Cl9   Cl    Cl    0.135185 0.093221 0.579139 -0.460745
Cl10  Cl    Cl    0.212503 0.641880 0.373749 -0.554179
Cl11  Cl    Cl    0.613926 0.544156 0.563997 -0.483313
Cl12  Cl    Cl    0.506758 0.419570 0.084357 -0.443668
Cr1   Cr    Cr6+3 0.771950 0.169480 0.750100 1.069302
Cr2   Cr    Cr6+3 0.383410 0.010620 0.249390 1.144724
Cr3   Cr    Cr6+3 0.116590 0.510620 0.750610 1.144442
Cr4   Cr    Cr6+3 0.883410 0.510620 0.249390 1.142279
Cr5   Cr    Cr6+3 0.228050 0.169480 0.249900 1.102681
Cr6   Cr    Cr6+3 0.271950 0.669480 0.750100 1.066326
Cr7   Cr    Cr6+3 0.728050 0.669480 0.249900 1.104216
Cr8   Cr    Cr6+3 0.614930 0.323340 0.749170 1.157101
Cr9   Cr    Cr6+3 0.385070 0.323340 0.250830 1.136362
Cr10  Cr    Cr6+3 0.114930 0.823340 0.749170 1.145801
Cr11  Cr    Cr6+3 0.885070 0.823340 0.250830 1.136027
Cr12  Cr    Cr6+3 0.616590 0.010620 0.750610 1.127872
H1    H     H_    0.815030 0.128550 0.955415 0.159469
H2    H     H_    0.364720 0.887188 0.057161 0.185389
H3    H     H_    0.134667 0.389869 0.942929 0.185797
H4    H     H_    0.864721 0.387188 0.057161 0.185639
H5    H     H_    0.912250 0.838851 0.455795 0.144981
H6    H     H_    0.012189 0.947549 0.565856 0.219239
H7    H     H_    0.401965 0.315039 0.456099 0.136482
H8    H     H_    0.487746 0.434326 0.573078 0.225172
H9    H     H_    0.464476 0.447030 0.447736 0.205191
H10   H     H_    0.429586 0.298104 0.580009 0.186007
H11   H     H_    0.983265 0.955633 0.441596 0.199354
H12   H     H_    0.185624 0.130677 0.044714 0.158506
H13   H     H_    0.942313 0.829138 0.579705 0.180346
H14   H     H_    0.787836 0.711346 0.457699 0.126432
H15   H     H_    0.339718 0.802807 0.566661 0.185561
H16   H     H_    0.279605 0.235891 0.465820 0.116051
H17   H     H_    0.826460 0.270014 0.559247 0.181990
H18   H     H_    0.711481 0.118783 0.544030 0.089351
H19   H     H_    0.160294 0.053818 0.439810 0.203926
H20   H     H_    0.206805 0.660075 0.525990 0.100297
H21   H     H_    0.643435 0.503999 0.426820 0.200726
H22   H     H_    0.500483 0.968274 0.936241 0.173858
H23   H     H_    0.315020 0.628569 0.955426 0.159156
H24   H     H_    0.494053 0.967250 0.061502 0.174400
H25   H     H_    0.000483 0.468280 0.936245 0.174182
H26   H     H_    0.994051 0.467245 0.061505 0.174481
H27   H     H_    0.685610 0.630647 0.044729 0.158852
H28   H     H_    0.651645 0.832798 0.067855 0.152027
H29   H     H_    0.347932 0.830612 0.932073 0.150161
H30   H     H_    0.151641 0.332799 0.067857 0.151999
H31   H     H_    0.847931 0.330619 0.932072 0.150621
H32   H     H_    0.634668 0.889867 0.942928 0.186283
O1    O     O_R   0.787510 0.042610 0.670410 -0.518948
O2    O     O_R   0.454250 0.051070 0.169440 -0.527985
O3    O     O_R   0.045750 0.551070 0.830560 -0.531022
O4    O     O_R   0.954250 0.551070 0.169440 -0.527478
O5    O     O_R   0.681210 0.959150 0.825320 -0.466415
O6    O     O_R   0.318790 0.959150 0.174680 -0.466453
O7    O     O_R   0.181210 0.459150 0.825320 -0.459031
O8    O     O_R   0.818790 0.459150 0.174680 -0.469194
O9    O     O_3   0.667820 0.167810 0.749960 -0.361921
O10   O     O_3   0.332180 0.167810 0.250040 -0.334195
O11   O     O_3   0.167820 0.667810 0.749960 -0.367028
O12   O     O_R   0.212490 0.042610 0.329590 -0.514305
O13   O     O_3   0.832180 0.667810 0.250040 -0.333732
O14   O     O_R   0.765670 0.292090 0.675090 -0.499136
O15   O     O_R   0.234330 0.292090 0.324910 -0.475808
O16   O     O_R   0.265670 0.792090 0.675090 -0.539711
O17   O     O_R   0.734330 0.792090 0.324910 -0.468954
O18   O     O_R   0.670220 0.409020 0.668560 -0.411157
O19   O     O_R   0.329780 0.409020 0.331440 -0.486096
O20   O     O_R   0.170220 0.909020 0.668560 -0.443376
O21   O     O_R   0.829780 0.909020 0.331440 -0.487162
O22   O     O_R   0.556580 0.251590 0.674980 -0.494275
O23   O     O_R   0.287510 0.542610 0.670410 -0.473220
O24   O     O_R   0.443420 0.251590 0.325020 -0.511602
O25   O     O_R   0.056580 0.751590 0.674980 -0.489294
O26   O     O_R   0.943420 0.751590 0.325020 -0.513461
O27   O     O_R   0.545890 0.049670 0.670030 -0.434390
O28   O     O_R   0.454110 0.049670 0.329970 -0.436331
O29   O     O_R   0.045890 0.549670 0.670030 -0.432770
O30   O     O_R   0.954110 0.549670 0.329970 -0.432718
O31   O     O_R   0.681340 0.957860 0.676500 -0.445231
O32   O     O_R   0.318660 0.957860 0.323500 -0.440001
O33   O     O_R   0.181340 0.457860 0.676500 -0.407184
O34   O     O_R   0.712490 0.542610 0.329590 -0.517332
O35   O     O_R   0.818660 0.457860 0.323500 -0.445111
O36   O     O_R   0.787380 0.044010 0.830940 -0.470442
O37   O     O_R   0.212620 0.044010 0.169060 -0.468207
O38   O     O_R   0.287380 0.544010 0.830940 -0.462591
O39   O     O_R   0.712620 0.544010 0.169060 -0.471308
O40   O     O_R   0.765540 0.293390 0.823910 -0.529580
O41   O     O_R   0.234460 0.293390 0.176090 -0.532772
O42   O     O_R   0.265540 0.793390 0.823910 -0.535374
O43   O     O_R   0.734460 0.793390 0.176090 -0.532393
O44   O     O_R   0.670090 0.410410 0.829090 -0.424778
O45   O     O_R   0.556450 0.252890 0.823790 -0.440918
O46   O     O_R   0.329910 0.410410 0.170910 -0.427853
O47   O     O_R   0.170090 0.910410 0.829090 -0.425108
O48   O     O_R   0.829910 0.910410 0.170910 -0.428597
O49   O     O_R   0.443550 0.252890 0.176210 -0.445594
O50   O     O_R   0.056450 0.752890 0.823790 -0.439945
O51   O     O_R   0.943550 0.752890 0.176210 -0.445141
O52   O     O_R   0.545750 0.051070 0.830560 -0.531167

loop_
_geom_bond_atom_site_label_1
_geom_bond_atom_site_label_2
_ccdc_geom_bond_type
C50   C54   A    
C33   C81   S    
C68   C96   S    
Br8   C5    S    
Cr2   O2    S    
C47   C51   A    
C6    C10   A    
C91   C95   A    
C42   O24   A    
C77   O46   A    
C78   O42   A    
Cr11  O13   S    
C28   H22   S    
C23   C72   S    
C46   C57   S    
C68   H5    S    
Cr6   O38   S    
C87   O38   A    
C7    C11   A    
Cr4   O35   S    
Cr5   O37   S    
C16   Cl9   S    
C54   C59   A    
Cr8   O22   S    
C83   O3    A    
Cr6   O23   S    
C5    C27   A    
C83   O50   A    
C2    C7    A    
C87   O7    A    
C30   C31   A    
C47   C69   A    
C1    C14   S    
C12   C17   A    
C35   O21   A    
C69   C86   S    
C92   C96   A    
C48   C70   A    
C84   O51   A    
C23   C90   A    
C100  Cl6   S    
C49   C53   A    
C72   O31   A    
C49   C71   A    
Cr5   O15   S    
C99   Cl5   S    
Cr7   O43   S    
C1    O18   A    
C15   Cl8   S    
Cr4   O4    S    
C57   H8    S    
C53   C58   A    
C22   H21   S    
Cr1   O9    S    
C41   O22   A    
C4    C8    A    
Cr3   O11   S    
Cr2   O6    S    
C66   H4    S    
C62   C66   A    
Cr12  O31   S    
C33   C38   A    
Cr6   O16   S    
C59   H28   S    
Cr12  O52   S    
C15   C19   A    
C42   O28   A    
C59   C63   A    
C89   C94   A    
C43   O25   A    
Cr10  O25   S    
C8    C12   A    
Cr12  O9    S    
Cr3   O3    S    
Br3   C52   S    
C76   O40   A    
C93   C100  A    
Cr9   O19   S    
C88   O8    A    
C82   O2    A    
C17   C21   A    
C29   H24   S    
Cr10  O47   S    
C45   C67   A    
C48   H23   S    
Cr5   O10   S    
C96   C97   A    
C24   O20   A    
C6    C90   A    
C31   C34   A    
C93   C97   A    
C32   C37   A    
C63   C67   A    
C63   H32   S    
C77   O41   A    
C10   C15   A    
Cr7   O13   S    
C73   O12   A    
C65   H3    S    
C85   O36   A    
C44   O30   A    
C78   O47   A    
C30   H25   S    
C74   O33   A    
C56   C77   S    
C43   O29   A    
C27   C75   S    
Br2   C51   S    
C81   O45   A    
Cr4   O30   S    
C37   C38   A    
C65   C70   A    
C19   C23   A    
C21   C26   A    
C35   O17   A    
C48   C52   A    
C3    C92   A    
Cr11  O51   S    
C18   Cl11  S    
Cr1   O36   S    
C30   C36   A    
C64   C69   A    
Cr3   O33   S    
Cr8   O45   S    
C41   C91   S    
C76   O44   A    
C64   H2    S    
C46   H7    S    
C79   C97   S    
C60   H29   S    
C70   C87   S    
C60   C64   A    
C85   O5    A    
C12   C13   S    
Cr8   O9    S    
C45   H1    S    
C86   O37   A    
C44   O26   A    
C56   C61   A    
C61   H30   S    
C75   O34   A    
C61   C65   A    
Cr12  O27   S    
Cr4   O13   S    
C36   C83   S    
C81   O52   A    
Cr11  O21   S    
C37   Cl12  S    
C40   Cl4   S    
C25   C73   S    
C20   C25   A    
C18   C22   A    
C19   H18   S    
C66   C71   A    
C38   Cl2   S    
C31   H26   S    
C14   C18   A    
Cr7   O17   S    
Br7   C4    S    
Cr12  O5    S    
C57   C95   S    
C79   H6    S    
C75   O35   A    
C29   C32   A    
Cr7   O34   S    
C72   O1    A    
Cr11  O48   S    
C3    Cl7   S    
C49   H27   S    
C67   C85   S    
C88   O39   A    
Cr11  O26   S    
C24   O16   A    
C13   O19   A    
C91   C98   A    
C55   C60   A    
C28   C29   A    
C42   C89   S    
C26   C74   S    
C47   H12   S    
C79   H13   S    
C62   H31   S    
C11   C24   S    
C46   C94   S    
C9    H17   S    
C16   C20   A    
Cr1   O40   S    
Cr2   O32   S    
C39   C40   A    
Br6   C2    S    
C68   C79   S    
C45   C50   A    
Cr2   O28   S    
Cr1   O14   S    
C41   O27   A    
Cr10  O11   S    
C43   C93   S    
C4    C26   A    
C22   C27   A    
C6    H14   S    
C51   C55   A    
C9    C14   A    
C5    C9    A    
C74   O23   A    
C52   C56   A    
C32   C82   S    
C11   C16   A    
C71   C88   S    
C55   C78   S    
Cr2   O10   S    
Cr8   O18   S    
C86   O6    A    
C73   O32   A    
C7    H15   S    
C57   H10   S    
C8    H16   S    
C58   C62   A    
C54   C80   S    
C80   O48   A    
Cr6   O42   S    
C39   Cl3   S    
Br4   C53   S    
Cr5   O41   S    
Cr1   O1    S    
Cr10  O50   S    
C2    C25   A    
C34   C84   S    
C34   C39   A    
Cr9   O49   S    
C94   C95   A    
Cr9   O10   S    
C84   O4    A    
Cr6   O11   S    
C58   C76   S    
C89   C99   A    
C68   H11   S    
C13   O15   A    
C46   H9    S    
Br5   C90   S    
C20   H19   S    
C98   C99   A    
Cr9   O24   S    
C28   C33   A    
C3    C100  A    
C44   C92   S    
Cr3   O29   S    
Cr10  O20   S    
C80   O43   A    
C17   Cl10  S    
Cr4   O8    S    
Cr9   O46   S    
Br1   C50   S    
Cr5   O12   S    
Cr7   O39   S    
C82   O49   A    
Cr3   O7    S    
C1    O14   A    
C36   C40   A    
Cr8   O44   S    
C21   H20   S    
C98   Cl1   S    
C10   C35   S    
