data_mof_unit_60820.cif
_audit_creation_date              2012-12-10T17:54:08-0500
_audit_creation_method            fapswitch 2.2
_symmetry_space_group_name_H-M    P1
_symmetry_Int_Tables_number       1
_space_group_crystal_system       triclinic
_cell_length_a                    18.795905
_cell_length_b                    18.718511
_cell_length_c                    19.000745
_cell_angle_alpha                 109.596806
_cell_angle_beta                  109.340983
_cell_angle_gamma                 109.207011
_cell_volume                      5163.11855601

loop_
_atom_site_label
_atom_site_type_symbol
_atom_type_description
_atom_site_fract_x
_atom_site_fract_y
_atom_site_fract_z
_atom_type_partial_charge
C1    C     C_R   0.881029 0.381047 0.999479 0.797738
C2    C     C_R   0.185090 0.499339 0.182385 -0.145736
C3    C     C_R   0.238952 0.468087 0.162987 -0.217197
C4    C     C_R   0.883689 0.502351 0.882308 0.842348
C5    C     C_R   0.303562 0.466624 0.226302 0.159240
C6    C     C_R   0.313616 0.496688 0.310178 -0.080151
C7    C     C_R   0.258433 0.525441 0.325554 0.066261
C8    C     C_3   0.236209 0.561629 0.392564 -0.487000
C9    C     C_3   0.166667 0.563891 0.323360 -0.438201
C10   C     C_R   0.253297 0.759131 0.073769 0.126796
C11   C     C_R   0.183498 0.684941 0.998506 -0.088147
C12   C     C_R   0.815008 0.313041 0.998384 -0.070489
C13   C     C_R   0.179199 0.675611 0.920086 -0.208593
C14   C     C_R   0.243768 0.740754 0.920015 -0.212422
C15   C     C_R   0.314623 0.814138 0.998479 -0.086146
C16   C     C_R   0.118507 0.618769 0.999977 0.797787
C17   C     C_R   0.316790 0.819788 0.073822 0.126477
C18   C     C_3   0.366982 0.874826 0.169298 -0.483819
C19   C     C_3   0.294938 0.804999 0.169319 -0.469604
C20   C     C_R   0.498853 0.380827 0.380321 0.800401
C21   C     C_R   0.614719 0.497876 0.613212 0.842221
C22   C     C_R   0.496452 0.618733 0.615183 0.810561
C23   C     C_R   0.736938 0.249381 0.921360 -0.206038
C24   C     C_R   0.379069 0.499584 0.378756 0.811219
C25   C     C_R   0.501680 0.882162 0.882347 0.805691
C26   C     C_R   0.618954 0.118922 0.000030 0.783444
C27   C     C_R   0.498879 0.118557 0.117741 0.806767
C28   C     C_R   0.118182 0.499880 0.117655 0.814337
C29   C     C_R   0.381337 0.881327 0.999902 0.798530
C30   C     C_R   0.488541 0.314539 0.239235 0.060919
C31   C     C_R   0.498225 0.312337 0.314471 -0.093461
C32   C     C_R   0.498795 0.239071 0.320906 0.154076
C33   C     C_R   0.497719 0.174726 0.254924 -0.212059
C34   C     C_R   0.672066 0.185422 0.921420 -0.216971
C35   C     C_R   0.494539 0.181932 0.182956 -0.127666
C36   C     C_R   0.485420 0.249711 0.173986 0.138009
C37   C     C_3   0.538471 0.312983 0.156185 -0.475466
C38   C     C_3   0.542817 0.384419 0.228391 -0.451978
C39   C     C_R   0.521849 0.767910 0.694496 0.032123
C40   C     C_2   0.755919 0.506929 0.681885 -0.156952
C41   C     C_R   0.497794 0.684782 0.683405 -0.093474
C42   C     C_R   0.474617 0.666957 0.741727 -0.198554
C43   C     C_R   0.477539 0.732423 0.808723 -0.212143
C44   C     C_R   0.501907 0.815659 0.816922 -0.081228
C45   C     C_R   0.686397 0.182882 0.997853 -0.095121
C46   C     C_R   0.523073 0.830210 0.757870 0.067842
C47   C     C_3   0.555877 0.898343 0.734731 0.284725
C48   C     C_3   0.553476 0.826026 0.660909 -0.031100
C49   C     C_2   0.678800 0.491664 0.676164 -0.316792
C50   C     C_2   0.816867 0.494584 0.742887 -0.156303
C51   C     C_2   0.821169 0.509395 0.818698 -0.313649
C52   C     C_R   0.831599 0.304355 0.071288 0.101795
C53   C     C_3   0.357582 0.430925 0.200862 -0.869016
C54   C     C_3   0.506638 0.231322 0.399288 -0.831727
C55   C     C_3   0.492388 0.931655 0.708297 -0.779386
C56   C     C_R   0.768621 0.239718 0.070787 0.148751
C57   C     C_3   0.648198 0.972497 0.804929 -0.865843
C58   C     C_3   0.487035 0.793099 0.568154 -0.855126
C59   C     C_3   0.793210 0.298529 0.160846 -0.470999
C60   C     C_3   0.862413 0.369576 0.161211 -0.477024
C61   C     C_R   0.198062 0.527872 0.265193 0.130422
Cu1   Cu    Cu3+1 0.999590 0.561790 0.061400 0.940243
Cu2   Cu    Cu3+1 0.000410 0.438210 0.938600 0.944547
Cu3   Cu    Cu3+1 0.558560 0.561730 0.496790 0.935875
Cu4   Cu    Cu3+1 0.434970 0.438120 0.496790 0.941714
Cu5   Cu    Cu3+1 0.438600 0.999980 0.938570 0.939735
Cu6   Cu    Cu3+1 0.561400 0.999920 0.061330 0.944419
H1    H     H_    0.929591 0.388790 0.206290 0.190568
H2    H     H_    0.317047 0.767401 0.196798 0.194928
H3    H     H_    0.501264 0.120014 0.260375 0.151831
H4    H     H_    0.602421 0.316818 0.170562 0.185224
H5    H     H_    0.500451 0.303666 0.091741 0.203087
H6    H     H_    0.609284 0.429449 0.284992 0.209986
H7    H     H_    0.455479 0.603280 0.736381 0.160884
H8    H     H_    0.459752 0.717784 0.852956 0.145826
H9    H     H_    0.618528 0.838266 0.669044 0.164039
H10   H     H_    0.782947 0.535337 0.838510 0.154694
H11   H     H_    0.724627 0.251765 0.862536 0.146697
H12   H     H_    0.208815 0.513707 0.411525 0.207769
H13   H     H_    0.610613 0.139264 0.862494 0.161970
H14   H     H_    0.741041 0.312453 0.164641 0.186554
H15   H     H_    0.820552 0.276884 0.205777 0.203551
H16   H     H_    0.772592 0.523647 0.637876 0.161214
H17   H     H_    0.231172 0.445035 0.098987 0.172549
H18   H     H_    0.402206 0.427024 0.252873 0.232921
H19   H     H_    0.314432 0.363943 0.144398 0.232263
H20   H     H_    0.396561 0.473174 0.183266 0.229973
H21   H     H_    0.430786 0.877940 0.197321 0.206439
H22   H     H_    0.255677 0.828848 0.192369 0.207103
H23   H     H_    0.289645 0.627364 0.446596 0.193443
H24   H     H_    0.563420 0.291465 0.458303 0.223483
H25   H     H_    0.446747 0.221272 0.403044 0.248662
H26   H     H_    0.515772 0.175105 0.397218 0.218884
H27   H     H_    0.508431 0.417003 0.205389 0.201669
H28   H     H_    0.861845 0.477868 0.727192 0.159562
H29   H     H_    0.424113 0.877582 0.666927 0.221395
H30   H     H_    0.497111 0.978721 0.766321 0.235488
H31   H     H_    0.508821 0.965551 0.673242 0.223106
H32   H     H_    0.673800 0.016836 0.781871 0.242571
H33   H     H_    0.647670 0.010345 0.863718 0.230733
H34   H     H_    0.099084 0.517031 0.302136 0.188641
H35   H     H_    0.692621 0.946544 0.822493 0.220225
H36   H     H_    0.487800 0.737602 0.523173 0.247811
H37   H     H_    0.420197 0.770234 0.558176 0.230964
H38   H     H_    0.504520 0.846083 0.552383 0.239499
H39   H     H_    0.850387 0.424758 0.165133 0.212440
H40   H     H_    0.179804 0.631017 0.337707 0.201245
H41   H     H_    0.125833 0.619040 0.859377 0.154024
H42   H     H_    0.239097 0.733188 0.859308 0.153791
H43   H     H_    0.658142 0.465682 0.713489 0.153840
H44   H     H_    0.368878 0.938792 0.191712 0.193265
O1    O     O_R   0.909480 0.462010 0.051860 -0.588905
O2    O     O_R   0.552410 0.909770 0.962140 -0.583206
O3    O     O_R   0.538310 0.090150 0.948110 -0.593851
O4    O     O_R   0.910180 0.357650 0.948150 -0.583176
O5    O     O_R   0.642020 0.090090 0.051780 -0.581457
O6    O     O_R   0.447590 0.090130 0.037760 -0.579556
O7    O     O_R   0.551300 0.090080 0.141420 -0.589370
O8    O     O_R   0.357980 0.909810 0.948120 -0.584286
O9    O     O_R   0.461690 0.909750 0.051790 -0.587854
O10   O     O_R   0.910060 0.552180 0.962250 -0.585594
O11   O     O_R   0.910760 0.447820 0.858550 -0.583939
O12   O     O_R   0.445180 0.357580 0.407200 -0.582253
O13   O     O_R   0.089820 0.642350 0.051850 -0.585057
O14   O     O_R   0.090520 0.537990 0.948140 -0.591500
O15   O     O_R   0.089240 0.552180 0.141450 -0.588030
O16   O     O_R   0.089940 0.447820 0.037750 -0.589719
O17   O     O_R   0.549550 0.461960 0.407200 -0.593936
O18   O     O_R   0.638540 0.552110 0.586390 -0.579605
O19   O     O_R   0.534170 0.447730 0.586390 -0.590451
O20   O     O_R   0.548350 0.642270 0.586380 -0.589778
O21   O     O_R   0.443970 0.537890 0.586380 -0.591815
O22   O     O_R   0.459360 0.552110 0.407190 -0.588034
O23   O     O_R   0.354990 0.447740 0.407190 -0.582086
O24   O     O_R   0.448700 0.909820 0.858480 -0.590781

loop_
_geom_bond_atom_site_label_1
_geom_bond_atom_site_label_2
_ccdc_geom_bond_type
C24   O22   A    
C14   H42   S    
C22   O20   A    
C41   C42   A    
C48   H9    S    
C35   C36   A    
C59   H15   S    
C43   C44   A    
Cu4   O21   S    
Cu1   O13   S    
Cu4   O19   S    
C7    C8    S    
C39   C41   A    
C57   H35   S    
C29   O8    A    
C12   C23   A    
Cu1   Cu2   S    
C9    C61   S    
C5    C53   S    
C36   C37   S    
C20   O17   A    
C1    O1    A    
C30   C31   A    
C50   H28   S    
C22   C41   S    
C10   C17   A    
C40   C49   D    
C57   H32   S    
C30   C38   S    
C18   C19   S    
C32   C54   S    
C7    C61   A    
C54   H26   S    
C52   C60   S    
C26   C45   S    
C34   H13   S    
Cu3   O22   S    
C31   C32   A    
C45   C56   A    
C28   O15   A    
C8    C9    S    
Cu3   O17   S    
Cu5   O6    S    
C8    H12   S    
C53   H19   S    
Cu6   O9    S    
Cu4   O23   S    
C2    C61   A    
Cu2   O4    S    
Cu1   O1    S    
Cu5   Cu6   S    
C59   C60   S    
C13   C14   A    
C40   H16   S    
C55   H30   S    
C1    C12   S    
C13   H41   S    
C25   C44   S    
C21   C49   S    
C12   C52   A    
C44   C46   A    
C15   C29   S    
C27   O6    A    
C43   H8    S    
C29   O9    A    
C42   H7    S    
C4    C51   S    
C18   H44   S    
C53   H20   S    
Cu1   O15   S    
C27   C35   S    
C57   H33   S    
C18   H21   S    
Cu6   O5    S    
C51   H10   S    
C54   H25   S    
C37   C38   S    
C19   H22   S    
C25   O2    A    
C47   C57   S    
C11   C16   S    
C47   C48   S    
Cu3   O20   S    
C10   C19   S    
C23   C34   A    
C6    C24   S    
C38   H27   S    
C17   C18   S    
C4    O11   A    
C50   C51   D    
C34   C45   A    
C21   O18   A    
Cu2   O14   S    
C33   H3    S    
C20   O12   A    
C39   C46   A    
Cu5   O8    S    
C37   H4    S    
C19   H2    S    
C58   H37   S    
C42   C43   A    
Cu2   O11   S    
C60   H39   S    
C47   C55   S    
C16   O14   A    
C27   O7    A    
C24   O23   A    
C26   O3    A    
C15   C17   A    
C46   C47   S    
Cu5   O3    S    
C22   O21   A    
C59   H14   S    
C55   H29   S    
C3    C5    A    
C53   H18   S    
C28   O16   A    
C48   C58   S    
C6    C7    A    
C9    H40   S    
C56   C59   S    
C30   C36   A    
C58   H38   S    
C32   C33   A    
C2    C3    A    
Cu6   O2    S    
C54   H24   S    
Cu3   Cu4   S    
C11   C13   A    
C5    C6    A    
C40   C50   S    
C55   H31   S    
C33   C35   A    
C4    O10   A    
Cu4   O12   S    
C23   H11   S    
C16   O13   A    
C25   O24   A    
Cu6   O7    S    
C26   O5    A    
C21   O19   A    
C10   C11   A    
Cu5   O24   S    
C8    H23   S    
Cu3   O18   S    
C60   H1    S    
C9    H34   S    
C37   H5    S    
C3    H17   S    
C14   C15   A    
C39   C48   S    
C2    C28   S    
C58   H36   S    
C1    O4    A    
C38   H6    S    
Cu1   O10   S    
Cu2   O16   S    
C52   C56   A    
C49   H43   S    
C20   C31   S    
