data_mof_unit_24870.cif
_audit_creation_date              2013-03-05T16:48:54-0500
_audit_creation_method            fapswitch 2.2
_symmetry_space_group_name_H-M    P1
_symmetry_Int_Tables_number       1
_space_group_crystal_system       triclinic
_cell_length_a                    10.88983
_cell_length_b                    10.922466
_cell_length_c                    12.698473
_cell_angle_alpha                 91.30216
_cell_angle_beta                  91.728263
_cell_angle_gamma                 90.218369
_cell_volume                      1509.31237002

loop_
_atom_site_label
_atom_site_type_symbol
_atom_site_description
_atom_site_fract_x
_atom_site_fract_y
_atom_site_fract_z
_atom_type_partial_charge
O1    O     O_R   0.313000 0.493330 0.412070 -0.571422
O2    O     O_R   0.687000 0.506670 0.587930 -0.575361
O3    O     O_R   0.326280 0.506660 0.587930 -0.596139
O4    O     O_R   0.673720 0.493340 0.412070 -0.573198
C1    C     C_R   0.261922 0.502055 0.501667 0.780139
C2    C     C_R   0.738131 0.497787 0.498388 0.805733
O5    O     O_R   0.493370 0.312980 0.412070 -0.520810
O6    O     O_R   0.506630 0.687020 0.587930 -0.527533
O7    O     O_R   0.506650 0.326310 0.587930 -0.609370
O8    O     O_R   0.493350 0.673690 0.412070 -0.591112
C3    C     C_R   0.492662 0.261949 0.502070 0.817852
C4    C     C_R   0.506682 0.738088 0.497953 0.864596
Cu1   Cu    Cu3+1 0.492140 0.492110 0.395880 1.037099
Cu2   Cu    Cu3+1 0.507860 0.507890 0.604120 1.012675
H1    H     H_    0.566212 0.216127 0.998411 0.198426
H2    H     H_    0.452471 0.787327 0.999414 0.205847
C5    C     C_R   0.653440 0.197127 0.850103 -0.188845
C6    C     C_R   0.351926 0.829236 0.137661 -0.159438
H3    H     H_    0.743207 0.223137 0.881893 0.162663
H4    H     H_    0.263425 0.821746 0.096974 0.181929
C7    C     C_R   0.640501 0.161562 0.744423 -0.123172
C8    C     C_R   0.357815 0.861064 0.244446 -0.126856
H5    H     H_    0.720588 0.159179 0.695851 0.149648
H6    H     H_    0.273589 0.879367 0.285138 0.166452
C9    C     C_R   0.525794 0.124001 0.702621 0.056889
C10   C     C_R   0.471854 0.876267 0.297268 0.050095
C11   C     C_R   0.422162 0.124983 0.766816 0.450265
C12   C     C_R   0.581462 0.855322 0.242828 0.455578
C13   C     C_R   0.436554 0.155269 0.875595 0.279172
C14   C     C_R   0.575203 0.821179 0.134356 0.270825
C15   C     C_R   0.552721 0.193159 0.915568 -0.238829
C16   C     C_R   0.459527 0.810757 0.082649 -0.234676
C17   C     C_R   0.537371 0.938282 0.590902 0.301811
C18   C     C_R   0.457128 0.061680 0.409887 0.265877
C19   C     C_R   0.511409 0.872241 0.495712 -0.209935
C20   C     C_R   0.485022 0.127801 0.504631 -0.246939
C21   C     C_R   0.477234 0.935445 0.403666 -0.108106
C22   C     C_R   0.517497 0.064306 0.596816 -0.086411
H7    H     H_    0.263464 0.655964 0.974036 0.131287
H8    H     H_    0.739489 0.357254 0.022751 0.131486
C23   C     C_R   0.157301 0.522022 0.884730 -0.139454
C24   C     C_R   0.849696 0.484950 0.114656 -0.102533
H9    H     H_    0.145008 0.463475 0.951283 0.153965
H10   H     H_    0.866120 0.543435 0.048811 0.175514
C25   C     C_R   0.106290 0.488617 0.786046 -0.169440
C26   C     C_R   0.899092 0.515479 0.214495 -0.082728
H11   H     H_    0.053966 0.404278 0.777154 0.128330
H12   H     H_    0.953977 0.598003 0.225197 0.159146
C27   C     C_R   0.122413 0.563870 0.699258 0.118080
C28   C     C_R   0.878356 0.439516 0.300055 0.109781
C29   C     C_R   0.187769 0.674580 0.713136 -0.055999
C30   C     C_R   0.809273 0.331425 0.283881 -0.084496
H13   H     H_    0.199021 0.734826 0.647482 0.126787
H14   H     H_    0.794352 0.270677 0.348559 0.100943
C31   C     C_R   0.239014 0.707531 0.812103 -0.059056
C32   C     C_R   0.758182 0.302454 0.184061 -0.101536
H15   H     H_    0.289955 0.792425 0.822635 0.194200
H16   H     H_    0.702827 0.220733 0.171845 0.150593
C33   C     C_R   0.223820 0.631113 0.897627 -0.133509
C34   C     C_R   0.778770 0.379092 0.099739 -0.150554
C35   C     C_R   0.936154 0.524819 0.591123 -0.198266
C36   C     C_R   0.064101 0.473933 0.409387 -0.206151
H17   H     H_    0.887195 0.546602 0.662243 0.187702
H18   H     H_    0.113133 0.452037 0.338321 0.183260
C37   C     C_R   0.871792 0.496056 0.496447 -0.082200
C38   C     C_R   0.128371 0.503201 0.503853 -0.090563
C39   C     C_R   0.936877 0.470017 0.404068 -0.007287
C40   C     C_R   0.063414 0.529779 0.596160 -0.016531
N1    N     N_1   0.480320 0.480250 0.239400 -0.144249
N2    N     N_1   0.519680 0.519750 0.760600 -0.147421
C41   C     C_2   0.458841 0.473829 0.031720 -0.298696
C42   C     C_2   0.540523 0.525734 0.968187 -0.301245
C43   C     C_1   0.527309 0.522053 0.852626 0.286983
C44   C     C_1   0.472340 0.477728 0.147352 0.303631
H19   H     H_    0.620777 0.571459 0.003078 0.213130
H20   H     H_    0.378831 0.427573 0.996719 0.198536
O9    O     O_3   0.310237 0.084291 0.724862 -0.553869
C45   C     C_3   0.239560 0.187174 0.696953 -0.235750
H21   H     H_    0.280972 0.236542 0.631129 0.150896
H22   H     H_    0.227222 0.250940 0.765391 0.159702
H23   H     H_    0.146987 0.155266 0.669408 0.193157
O10   O     O_3   0.693490 0.864694 0.297012 -0.558013
C46   C     C_3   0.743256 0.982418 0.282973 -0.208445
H24   H     H_    0.752003 0.003536 0.198230 0.182910
H25   H     H_    0.836885 0.985830 0.319810 0.190328
H26   H     H_    0.688067 0.053895 0.322858 0.142415
N3    N     N_R   0.336246 0.142608 0.946237 0.121164
O11   O     O_R   0.341960 0.194288 0.039573 -0.326517
O12   O     O_R   0.243466 0.070897 0.921928 -0.314035
N4    N     N_R   0.684713 0.801126 0.075533 0.102863
O13   O     O_R   0.681431 0.809418 0.973398 -0.315841
O14   O     O_R   0.787856 0.772135 0.122719 -0.358113
N5    N     N_R   0.591642 0.879020 0.680938 0.145747
O15   O     O_R   0.701430 0.833086 0.675836 -0.333676
O16   O     O_R   0.529640 0.865943 0.765991 -0.341606
N6    N     N_R   0.405888 0.122103 0.319287 0.150179
O17   O     O_R   0.297465 0.171364 0.323173 -0.341767
O18   O     O_R   0.469716 0.133165 0.235025 -0.358590

loop_
_geom_bond_atom_site_label_1
_geom_bond_atom_site_label_2
_geom_bond_distance
_ccdc_geom_bond_type
C38   C40   1.412351 A    
N3    O11   1.300817 A    
N5    O15   1.301172 A    
H8    C34   1.076591 S    
C27   C40   1.480104 S    
C31   C33   1.398030 A    
C11   C13   1.416986 A    
C18   C21   1.397729 A    
C23   H9    1.082508 S    
C35   C40   1.386179 A    
C14   N4    1.440966 S    
O9    C45   1.410317 S    
O5    C3    1.283087 A    
C6    C16   1.395167 A    
C36   C39   1.385510 A    
O1    C1    1.283190 A    
C3    C20   1.468426 S    
C19   C21   1.411973 A    
C18   N6    1.438439 S    
C41   H20   1.083992 S    
C45   H22   1.112946 S    
C24   C26   1.395037 A    
O4    Cu1   1.981819 S    
C35   H17   1.084772 S    
C11   O9    1.383065 S    
C36   H18   1.084847 S    
C17   C19   1.414056 A    
C2    C37   1.456682 S    
C27   C29   1.405705 A    
N6    O18   1.301055 A    
C28   C30   1.405312 A    
C28   C39   1.479621 S    
C29   C31   1.398552 A    
N5    O16   1.301171 A    
Cu1   Cu2   2.646365 S    
Cu2   N2    1.988590 S    
O2    C2    1.282925 A    
C24   H10   1.082403 S    
C42   H19   1.082948 S    
C30   H14   1.083145 S    
C25   H11   1.083231 S    
C26   H12   1.083320 S    
C36   C38   1.400436 A    
C12   O10   1.384708 S    
C23   C33   1.395968 A    
O4    C2    1.283262 A    
C24   C34   1.394182 A    
C45   H21   1.110929 S    
C1    C38   1.455543 S    
C37   C39   1.412743 A    
C5    C7    1.391459 A    
C32   C34   1.396877 A    
C29   H13   1.083304 S    
O7    Cu2   1.989228 S    
C9    C22   1.480153 S    
N4    O14   1.300634 A    
C46   H24   1.112460 S    
C25   C27   1.404544 A    
O6    C4    1.282808 A    
H7    C33   1.078593 S    
N6    O17   1.301214 A    
N2    C43   1.168736 T    
N1    C44   1.169164 T    
C31   H15   1.082308 S    
C4    C19   1.466943 S    
O7    C3    1.288587 A    
O3    Cu2   1.981821 S    
O8    C4    1.288415 A    
C46   H25   1.109030 S    
C7    H5    1.083335 S    
C5    C15   1.397211 A    
C8    H6    1.083303 S    
H2    C16   1.082225 S    
C7    C9    1.398789 A    
O6    Cu2   1.972008 S    
C6    C8    1.391728 A    
C42   C43   1.469776 S    
O3    C1    1.282407 A    
O8    Cu1   1.989228 S    
C17   N5    1.439186 S    
C41   C44   1.470912 S    
C10   C21   1.483893 S    
H1    C15   1.081472 S    
C9    C11   1.411884 A    
C26   C28   1.405062 A    
C10   C12   1.414078 A    
C17   C22   1.394916 A    
C20   C22   1.410737 A    
C41   C42   1.350461 D    
C13   C15   1.406054 A    
C14   C16   1.405896 A    
C45   H23   1.109323 S    
N4    O13   1.301589 A    
Cu1   N1    1.988590 S    
C12   C14   1.418385 A    
C5    H3    1.080805 S    
C18   C20   1.413539 A    
C32   H16   1.080793 S    
C6    H4    1.081631 S    
O2    Cu2   1.967828 S    
C13   N3    1.442437 S    
C35   C37   1.402022 A    
O5    Cu1   1.972008 S    
C46   H26   1.109597 S    
O1    Cu1   1.967829 S    
O10   C46   1.410599 S    
C8    C10   1.401007 A    
N3    O12   1.301450 A    
C23   C25   1.395613 A    
C30   C32   1.397955 A    
