data_mof_unit_31409.cif
_audit_creation_date              2013-03-05T15:59:34-0500
_audit_creation_method            fapswitch 2.2
_symmetry_space_group_name_H-M    P1
_symmetry_Int_Tables_number       1
_space_group_crystal_system       triclinic
_cell_length_a                    12.693637
_cell_length_b                    12.970478
_cell_length_c                    15.716284
_cell_angle_alpha                 91.208661
_cell_angle_beta                  103.47837
_cell_angle_gamma                 82.006467
_cell_volume                      2491.68094645

loop_
_atom_site_label
_atom_site_type_symbol
_atom_site_description
_atom_site_fract_x
_atom_site_fract_y
_atom_site_fract_z
_atom_type_partial_charge
O1    O     O_R   0.366730 0.627160 0.478790 -0.565388
O2    O     O_R   0.544830 0.662520 0.507160 -0.599531
C1    C     C_R   0.438434 0.691471 0.486510 0.855598
O3    O     O_R   0.410960 0.482330 0.609040 -0.622470
O4    O     O_R   0.589060 0.517690 0.637410 -0.585349
C2    C     C_R   0.501458 0.501132 0.661849 0.908549
Zn1   Zn    Zn3+2 0.381080 0.476390 0.481050 1.040840
Zn2   Zn    Zn3+2 0.618920 0.523610 0.518950 1.045176
O5    O     O_R   0.455170 0.337480 0.492840 -0.613084
O6    O     O_R   0.633270 0.372840 0.521210 -0.550096
O7    O     O_R   0.410940 0.482310 0.362590 -0.579384
O8    O     O_R   0.589040 0.517670 0.390960 -0.624860
C3    C     C_R   0.561358 0.308637 0.514883 0.924156
C4    C     C_R   0.498353 0.498941 0.338132 0.919562
C5    C     C_3   0.393828 0.518471 0.006552 -0.243193
C6    C     C_3   0.461554 0.585651 0.967061 0.316171
H1    H     H_    0.308437 0.541125 0.012981 0.216616
H2    H     H_    0.611455 0.618818 0.080704 0.211818
C7    C     C_1   0.505617 0.499830 0.751494 0.000256
C8    C     C_1   0.494524 0.495985 0.248499 0.033092
C9    C     C_3   0.437272 0.423798 0.956542 -0.140077
C10   C     C_3   0.502988 0.492837 0.917051 -0.021137
C11   C     C_3   0.537249 0.396852 0.033381 -0.080336
C12   C     C_3   0.495236 0.491450 0.082340 0.028362
C13   C     C_3   0.603911 0.465847 0.993262 -0.173230
C14   C     C_3   0.561733 0.561370 0.043739 -0.157810
C15   C     C_1   0.506133 0.497094 0.826833 0.135168
C16   C     C_1   0.493052 0.493600 0.172879 0.158545
H3    H     H_    0.689259 0.443806 0.986528 0.223715
C17   C     C_R   0.635088 0.081569 0.667087 0.267326
C18   C     C_R   0.598127 0.200473 0.543162 -0.120616
C19   C     C_R   0.356859 0.815329 0.365214 0.240509
C20   C     C_R   0.378224 0.903959 0.325721 -0.113928
C21   C     C_R   0.443788 0.970647 0.377327 -0.244729
C22   C     C_R   0.471203 0.962503 0.469913 0.119071
C23   C     C_R   0.439743 0.879034 0.509561 -0.030193
C24   C     C_R   0.529910 0.034044 0.523876 0.047136
C25   C     C_R   0.562200 0.017806 0.616008 -0.074133
C26   C     C_R   0.513478 0.945145 0.654970 0.261640
C27   C     C_R   0.450421 0.876409 0.601450 -0.151980
C28   C     C_R   0.548764 0.126684 0.489454 -0.142041
C29   C     C_R   0.653381 0.173665 0.630086 -0.188958
C30   C     C_R   0.398937 0.798654 0.456043 -0.126643
H4    H     H_    0.514467 0.150353 0.422491 0.156514
H5    H     H_    0.471023 0.028891 0.343087 0.177988
C31   C     C_R   0.074705 0.381120 0.351569 0.230441
N1    N     N_R   0.222180 0.444680 0.455580 -0.156653
C32   C     C_R   0.810343 0.616832 0.614823 0.024799
C33   C     C_R   0.913987 0.651646 0.632362 -0.164237
C34   C     C_R   0.985974 0.615920 0.580776 -0.160146
C35   C     C_R   0.958479 0.544907 0.514114 0.003816
C36   C     C_R   0.850251 0.517424 0.494005 0.070978
C37   C     C_R   0.036827 0.495991 0.469063 -0.057512
C38   C     C_R   0.999124 0.440460 0.392200 -0.096082
C39   C     C_R   0.885876 0.440437 0.361530 0.227381
C40   C     C_R   0.822806 0.448454 0.423985 0.222855
C41   C     C_R   0.150897 0.498360 0.498216 0.035964
C42   C     C_R   0.186658 0.385780 0.384092 -0.012986
N2    N     N_R   0.776980 0.554790 0.543960 -0.150211
H6    H     H_    0.185333 0.541753 0.554607 0.141937
H7    H     H_    0.063351 0.645546 0.593094 0.179526
N3    N     N_R   0.419417 0.688582 0.928499 0.240793
O9    O     O_R   0.467477 0.768581 0.958318 -0.269745
O10   O     O_R   0.332277 0.701030 0.864884 -0.316337
N4    N     N_R   0.303659 0.736993 0.312721 0.226907
O11   O     O_R   0.336821 0.700597 0.244254 -0.399779
O12   O     O_R   0.218959 0.704840 0.331371 -0.293544
C43   C     C_2   0.335157 0.927583 0.230759 1.027944
O13   O     O_2   0.385608 0.975735 0.191304 -0.574752
O14   O     O_R   0.235062 0.897885 0.186780 -0.688196
H8    H     H_    0.214303 0.919286 0.122711 0.381812
C44   C     C_2   0.383124 0.811905 0.639148 0.943165
O15   O     O_2   0.419679 0.768079 0.710032 -0.562000
O16   O     O_R   0.276889 0.801514 0.592651 -0.760147
H9    H     H_    0.239617 0.755280 0.624108 0.364252
C45   C     C_2   0.264705 0.322091 0.342134 1.032528
O17   O     O_2   0.283915 0.353381 0.275241 -0.551835
O18   O     O_R   0.304228 0.220493 0.372022 -0.790369
H10   H     H_    0.343177 0.179798 0.329999 0.337181
N5    N     N_R   0.835933 0.434280 0.269546 0.249326
O19   O     O_R   0.735957 0.414542 0.243667 -0.350421
O20   O     O_R   0.880719 0.471097 0.212253 -0.315935
N6    N     N_R   0.039799 0.306240 0.285693 0.230490
O21   O     O_R   0.983246 0.235640 0.301685 -0.286264
O22   O     O_R   0.066332 0.306763 0.210587 -0.268517
C46   C     C_2   0.743957 0.639516 0.679217 1.042877
O23   O     O_2   0.767129 0.588552 0.747279 -0.572322
O24   O     O_R   0.660182 0.723074 0.665728 -0.772999
H11   H     H_    0.623459 0.731031 0.716512 0.379663
C47   C     C_2   0.951417 0.723796 0.705049 0.971279
O25   O     O_2   0.885372 0.782482 0.734879 -0.524705
O26   O     O_R   0.063394 0.726006 0.738355 -0.762445
H12   H     H_    0.078803 0.778427 0.786897 0.393614
N7    N     N_R   0.786754 0.353235 0.441847 0.239416
O27   O     O_R   0.725990 0.305250 0.379704 -0.323166
O28   O     O_R   0.837381 0.301506 0.513204 -0.357731
C48   C     C_2   0.580001 0.289232 0.069826 1.044334
O29   O     O_2   0.614538 0.222355 0.023416 -0.520131
O30   O     O_R   0.579559 0.265620 0.156046 -0.734312
H13   H     H_    0.610427 0.190543 0.172797 0.382192
C49   C     C_2   0.367893 0.346411 0.908980 1.014124
O31   O     O_2   0.318882 0.297501 0.948966 -0.542844
O32   O     O_R   0.359736 0.330292 0.819644 -0.772430
H14   H     H_    0.310894 0.275925 0.795281 0.378345
C50   C     C_2   0.731603 0.238597 0.682226 1.054275
O33   O     O_2   0.701306 0.328699 0.698508 -0.610306
O34   O     O_R   0.840076 0.194579 0.715459 -0.702199
H15   H     H_    0.885858 0.245751 0.750799 0.372568
N8    N     N_R   0.508878 0.955966 0.745301 0.244872
O35   O     O_R   0.456227 0.039915 0.770543 -0.304993
O36   O     O_R   0.562286 0.885819 0.803221 -0.233893
N9    N     N_R   0.689799 0.053671 0.755989 0.246264
O37   O     O_R   0.684178 0.119776 0.818772 -0.277374
O38   O     O_R   0.749112 0.963264 0.773779 -0.237044

loop_
_geom_bond_atom_site_label_1
_geom_bond_atom_site_label_2
_geom_bond_distance
_ccdc_geom_bond_type
C39   C40   1.397883 A    
C49   O31   1.221987 D    
C18   C29   1.408778 A    
C22   C23   1.408735 A    
H2    C14   1.110261 S    
C33   C47   1.493999 S    
N9    O38   1.300081 A    
C48   O29   1.221994 D    
C42   C45   1.467203 S    
C37   C38   1.413062 A    
C40   N7    1.430113 S    
C2    C7    1.397900 S    
C50   O34   1.397632 S    
C1    C30   1.461400 S    
C24   C25   1.421678 A    
C22   C24   1.414271 A    
C45   O18   1.393285 S    
N8    O36   1.300678 A    
Zn2   N2    2.048138 S    
C25   C26   1.417262 A    
O7    C4    1.301679 A    
C46   O24   1.390837 S    
C5    C6    1.537336 S    
C17   C25   1.422335 A    
C5    H1    1.110249 S    
C21   C22   1.417681 A    
O5    C3    1.313160 A    
N3    O10   1.300291 A    
O30   H13   1.013755 S    
C43   O13   1.223688 D    
N4    O12   1.300981 A    
C10   C13   1.541434 S    
O34   H15   1.013897 S    
O14   H8    1.013967 S    
C7    C15   1.183788 T    
C9    C49   1.499721 S    
C49   O32   1.396995 S    
C9    C10   1.534758 S    
C31   C42   1.402990 A    
C13   H3    1.110250 S    
C6    N3    1.456098 S    
O3    Zn1   1.960095 S    
N9    O37   1.301534 A    
C48   O30   1.396964 S    
C20   C21   1.398056 A    
C6    C14   1.535826 S    
O16   H9    1.014054 S    
C35   C36   1.429457 A    
C4    C8    1.398071 S    
C23   C27   1.419390 A    
C45   O17   1.222477 D    
C44   O16   1.399169 S    
C26   C27   1.412802 A    
C37   C41   1.417742 A    
C46   O23   1.223428 D    
C44   O15   1.221432 D    
C41   H6    1.077068 S    
C8    C16   1.184059 T    
C13   C14   1.556638 S    
C17   N9    1.436851 S    
O1    C1    1.301677 A    
Zn1   N1    2.060380 S    
Zn1   O7    1.989664 S    
N3    O9    1.300285 A    
C36   N2    1.383942 A    
N1    C41   1.356560 A    
C47   O26   1.399663 S    
N6    O21   1.301411 A    
C26   N8    1.437548 S    
Zn2   O8    1.960094 S    
C31   C38   1.407158 A    
C34   C35   1.395012 A    
C21   H5    1.075326 S    
C18   C28   1.381051 A    
N7    O28   1.302586 A    
N5    O20   1.301639 A    
C5    C12   1.541425 S    
N6    O22   1.301189 A    
O8    C4    1.302767 A    
N4    O11   1.300913 A    
C10   C15   1.430157 S    
C9    C11   1.539830 S    
C28   H4    1.074342 S    
C32   C46   1.461818 S    
O3    C2    1.301104 A    
C32   N2    1.379989 A    
Zn1   O5    1.904370 S    
C38   C39   1.405676 A    
C32   C33   1.414801 A    
C6    C10   1.523249 S    
C27   C44   1.495451 S    
C11   C48   1.499738 S    
O1    Zn1   1.938942 S    
C3    C18   1.459819 S    
Zn2   O6    1.938942 S    
O2    Zn2   1.904370 S    
C12   C16   1.429261 S    
C12   C14   1.542016 S    
N5    O19   1.298783 A    
O6    C3    1.304688 A    
O4    Zn2   1.989662 S    
C50   O33   1.219594 D    
C19   C20   1.405553 A    
O2    C1    1.315325 A    
N8    O35   1.301011 A    
N1    C42   1.368463 A    
C39   N5    1.442279 S    
O18   H10   1.012003 S    
C47   O25   1.221761 D    
O4    C2    1.303518 A    
O26   H12   1.013968 S    
C19   C30   1.412535 A    
C11   C13   1.548408 S    
C24   C28   1.400528 A    
N7    O27   1.301096 A    
C29   C50   1.480159 S    
C11   C12   1.533435 S    
C31   N6    1.440466 S    
C5    C9    1.550079 S    
O24   H11   1.010713 S    
C43   O14   1.398554 S    
C33   C34   1.385199 A    
O32   H14   1.013794 S    
C34   H7    1.078446 S    
C17   C29   1.410097 A    
C23   C30   1.404563 A    
C35   C37   1.423636 A    
C36   C40   1.413890 A    
C20   C43   1.487460 S    
C19   N4    1.436938 S    
