data_mof_unit_16012.cif
_audit_creation_date              2012-12-11T14:04:05-0500
_audit_creation_method            fapswitch 2.2
_symmetry_space_group_name_H-M    P1
_symmetry_Int_Tables_number       1
_space_group_crystal_system       triclinic
_cell_length_a                    18.954689
_cell_length_b                    10.985909
_cell_length_c                    18.677605
_cell_angle_alpha                 89.784075
_cell_angle_beta                  90.508855
_cell_angle_gamma                 89.903838
_cell_volume                      3889.13482146

loop_
_atom_site_label
_atom_site_type_symbol
_atom_type_description
_atom_site_fract_x
_atom_site_fract_y
_atom_site_fract_z
_atom_type_partial_charge
C1    C     C_R   0.238816 0.468553 0.645808 0.553719
C2    C     C_R   0.760590 0.466946 0.353416 0.568755
C3    C     C_R   0.738816 0.968553 0.645808 0.553719
C4    C     C_R   0.260590 0.966946 0.353416 0.568755
C5    C     C_2   0.290712 0.845382 0.537886 -0.160624
C6    C     C_2   0.702656 0.859992 0.459032 -0.167855
C7    C     C_2   0.790712 0.345382 0.537886 -0.160624
C8    C     C_2   0.202656 0.359992 0.459032 -0.167855
C9    C     C_R   0.007999 0.657920 0.424797 -0.037174
C10   C     C_R   0.993353 0.668481 0.574480 -0.045899
C11   C     C_R   0.507999 0.157920 0.424797 -0.037174
C12   C     C_R   0.493353 0.168481 0.574480 -0.045899
C13   C     C_R   0.036585 0.874800 0.421602 -0.083844
C14   C     C_R   0.004765 0.893909 0.566562 -0.071938
C15   C     C_R   0.536585 0.374800 0.421602 -0.083844
C16   C     C_R   0.504765 0.393909 0.566562 -0.071938
C17   C     C_R   0.043732 0.985986 0.456195 -0.130308
C18   C     C_R   0.026066 0.996340 0.528081 -0.124889
C19   C     C_R   0.543732 0.485986 0.456195 -0.130308
C20   C     C_R   0.526066 0.496340 0.528081 -0.124889
C21   C     C_R   0.003954 0.777587 0.534361 0.009727
C22   C     C_R   0.015226 0.770369 0.459632 0.009156
C23   C     C_R   0.503954 0.277587 0.534361 0.009727
C24   C     C_R   0.515226 0.270369 0.459632 0.009156
C25   C     C_R   0.982515 0.558236 0.537558 0.015255
C26   C     C_R   0.004645 0.550146 0.466502 0.025066
C27   C     C_R   0.482515 0.058236 0.537558 0.015255
C28   C     C_R   0.504645 0.050146 0.466502 0.025066
C29   C     C_R   0.957554 0.452124 0.572129 -0.069934
C30   C     C_R   0.018945 0.433597 0.438119 -0.077526
C31   C     C_R   0.457555 0.952124 0.572129 -0.069934
C32   C     C_R   0.518945 0.933597 0.438119 -0.077526
C33   C     C_R   0.966767 0.338129 0.541193 -0.135022
C34   C     C_R   0.999540 0.328826 0.475148 -0.147939
C35   C     C_R   0.466767 0.838129 0.541193 -0.135022
C36   C     C_R   0.499540 0.828826 0.475148 -0.147939
C37   C     C_2   0.259773 0.940801 0.912784 -0.146125
C38   C     C_2   0.740456 0.931925 0.084483 -0.084101
C39   C     C_2   0.759773 0.440802 0.912784 -0.146123
C40   C     C_2   0.240456 0.431924 0.084483 -0.084105
C41   C     C_2   0.269471 0.985248 0.066473 -0.110174
C42   C     C_2   0.744566 0.943308 0.928532 -0.110663
C43   C     C_2   0.769471 0.485248 0.066473 -0.110172
C44   C     C_2   0.244567 0.443308 0.928532 -0.110654
C45   C     C_R   0.227230 0.874987 0.647702 0.552323
C46   C     C_R   0.772308 0.876061 0.351625 0.563884
C47   C     C_R   0.727230 0.374987 0.647702 0.552322
C48   C     C_R   0.272308 0.376061 0.351625 0.563884
C49   C     C_2   0.246851 0.068885 0.019136 -0.133820
C50   C     C_2   0.756680 0.038677 0.972411 -0.186132
C51   C     C_2   0.746848 0.568884 0.019136 -0.133821
C52   C     C_2   0.256676 0.538678 0.972411 -0.186135
C53   C     C_2   0.230152 0.039308 0.943827 -0.004866
C54   C     C_2   0.769250 0.026241 0.049615 -0.019349
C55   C     C_2   0.730151 0.539307 0.943827 -0.004867
C56   C     C_2   0.269249 0.526241 0.049614 -0.019350
C57   C     C_2   0.044759 0.655585 0.933634 -0.101696
C58   C     C_2   0.017426 0.663743 0.087792 -0.103893
C59   C     C_2   0.544759 0.155585 0.933634 -0.101693
C60   C     C_2   0.517426 0.163743 0.087792 -0.103893
C61   C     C_2   0.040386 0.564171 0.053579 -0.146368
C62   C     C_2   0.064306 0.567070 0.979143 -0.160231
C63   C     C_2   0.540386 0.064171 0.053579 -0.146368
C64   C     C_2   0.564306 0.067070 0.979143 -0.160229
C65   C     C_R   0.026580 0.656257 0.646322 0.538774
C66   C     C_R   0.973861 0.654024 0.353276 0.529639
C67   C     C_R   0.526580 0.156257 0.646322 0.538774
C68   C     C_R   0.473861 0.154024 0.353276 0.529639
C69   C     C_R   0.238361 0.469653 0.852739 0.544516
C70   C     C_R   0.775231 0.517844 0.141218 0.569157
C71   C     C_R   0.738361 0.969653 0.852739 0.544513
C72   C     C_R   0.275231 0.017844 0.141218 0.569156
C73   C     C_R   0.229440 0.878360 0.850744 0.524012
C74   C     C_R   0.770491 0.877441 0.148986 0.570305
C75   C     C_R   0.729440 0.378360 0.850744 0.524014
C76   C     C_R   0.270492 0.377440 0.148986 0.570304
C77   C     C_R   0.062396 0.647614 0.858524 0.567684
C78   C     C_R   0.973011 0.652606 0.150709 0.540338
C79   C     C_R   0.562396 0.147614 0.858524 0.567684
C80   C     C_R   0.473011 0.152606 0.150709 0.540338
C81   C     C_2   0.249057 0.917089 0.577648 -0.111848
C82   C     C_2   0.749141 0.923246 0.419959 -0.108152
C83   C     C_2   0.749058 0.417089 0.577648 -0.111848
C84   C     C_2   0.249141 0.423246 0.419959 -0.108152
C85   C     C_2   0.246889 0.907843 0.421202 -0.115467
C86   C     C_2   0.750082 0.913506 0.576409 -0.117220
C87   C     C_2   0.746889 0.407843 0.421202 -0.115467
C88   C     C_2   0.250082 0.413506 0.576409 -0.117220
C89   C     C_2   0.300511 0.868179 0.461860 -0.160407
C90   C     C_2   0.694430 0.883456 0.535229 -0.161610
C91   C     C_2   0.800511 0.368179 0.461860 -0.160407
C92   C     C_2   0.194430 0.383456 0.535229 -0.161610
Cr1   Cr    Cr6+3 0.113970 0.508630 0.747920 1.028749
Cr2   Cr    Cr6+3 0.886030 0.508630 0.252080 1.047206
Cr3   Cr    Cr6+3 0.613970 0.008630 0.747920 1.028748
Cr4   Cr    Cr6+3 0.386030 0.008630 0.252080 1.047206
Cr5   Cr    Cr6+3 0.269200 0.666740 0.749850 1.013619
Cr6   Cr    Cr6+3 0.730800 0.666740 0.250150 1.020688
Cr7   Cr    Cr6+3 0.769200 0.166740 0.749850 1.013617
Cr8   Cr    Cr6+3 0.230800 0.166740 0.250150 1.020688
Cr9   Cr    Cr6+3 0.112300 0.820070 0.749800 1.020691
Cr10  Cr    Cr6+3 0.887700 0.820070 0.250200 1.051863
Cr11  Cr    Cr6+3 0.612300 0.320070 0.749800 1.020698
Cr12  Cr    Cr6+3 0.387700 0.320070 0.250200 1.051863
H1    H     H_    0.352948 0.856750 0.440065 0.173532
H2    H     H_    0.641460 0.879002 0.556827 0.170982
H3    H     H_    0.852947 0.356749 0.440065 0.173532
H4    H     H_    0.141460 0.379002 0.556827 0.170982
H5    H     H_    0.281477 0.892266 0.051562 0.109506
H6    H     H_    0.739252 0.850679 0.947675 0.115758
H7    H     H_    0.781481 0.392268 0.051562 0.109504
H8    H     H_    0.239261 0.350678 0.947675 0.115775
H9    H     H_    0.304459 0.895437 0.938011 0.092413
H10   H     H_    0.698554 0.880003 0.058875 0.097641
H11   H     H_    0.804460 0.395438 0.938010 0.092411
H12   H     H_    0.198554 0.380002 0.058875 0.097653
H13   H     H_    0.035886 0.474781 0.078170 0.166848
H14   H     H_    0.092439 0.487869 0.959443 0.169253
H15   H     H_    0.535886 0.974781 0.078170 0.166848
H16   H     H_    0.592440 0.987869 0.959443 0.169246
H17   H     H_    0.025513 0.754326 0.066091 0.115386
H18   H     H_    0.015025 0.734474 0.950876 0.115715
H19   H     H_    0.525513 0.254326 0.066091 0.115388
H20   H     H_    0.515025 0.234474 0.950876 0.115717
H21   H     H_    0.317210 0.766361 0.560679 0.156651
H22   H     H_    0.671786 0.786462 0.435946 0.150405
H23   H     H_    0.817210 0.266361 0.560679 0.156651
H24   H     H_    0.171786 0.286462 0.435946 0.150406
H25   H     H_    0.194019 0.914481 0.442884 0.117203
H26   H     H_    0.803149 0.914520 0.554802 0.109046
H27   H     H_    0.694019 0.414481 0.442884 0.117203
H28   H     H_    0.303149 0.414520 0.554802 0.109046
H29   H     H_    0.223426 0.997011 0.554770 0.110922
H30   H     H_    0.777948 0.999338 0.442983 0.114720
H31   H     H_    0.723426 0.497011 0.554770 0.110922
H32   H     H_    0.277948 0.499338 0.442983 0.114720
H33   H     H_    0.063006 0.063851 0.426793 0.108487
H34   H     H_    0.029782 0.083536 0.554473 0.107338
H35   H     H_    0.563006 0.563851 0.426793 0.108487
H36   H     H_    0.529782 0.583536 0.554473 0.107339
H37   H     H_    0.050912 0.869595 0.365691 0.127805
H38   H     H_    0.988647 0.907025 0.621383 0.132378
H39   H     H_    0.550912 0.369595 0.365691 0.127805
H40   H     H_    0.488647 0.407024 0.621383 0.132379
H41   H     H_    0.044207 0.423274 0.386704 0.134743
H42   H     H_    0.933383 0.457077 0.624394 0.130347
H43   H     H_    0.544206 0.923274 0.386704 0.134743
H44   H     H_    0.433383 0.957077 0.624394 0.130347
H45   H     H_    0.949520 0.257109 0.569041 0.105000
H46   H     H_    0.007703 0.240915 0.451314 0.107499
H47   H     H_    0.449520 0.757109 0.569041 0.105001
H48   H     H_    0.507703 0.740915 0.451314 0.107499
H49   H     H_    0.234341 0.159829 0.037991 0.148395
H50   H     H_    0.762095 0.129729 0.949944 0.142158
H51   H     H_    0.734335 0.659826 0.037991 0.148392
H52   H     H_    0.262086 0.629731 0.949945 0.142156
O1    O     O_R   0.043230 0.549300 0.667990 -0.512581
O2    O     O_R   0.956770 0.549300 0.332010 -0.521876
O3    O     O_R   0.543230 0.049300 0.667990 -0.512581
O4    O     O_R   0.456770 0.049300 0.332010 -0.521876
O5    O     O_R   0.262920 0.788600 0.824420 -0.502247
O6    O     O_R   0.737080 0.788600 0.175580 -0.532510
O7    O     O_R   0.762920 0.288600 0.824420 -0.502250
O8    O     O_R   0.237080 0.288600 0.175580 -0.532510
O9    O     O_R   0.167530 0.905110 0.830340 -0.519149
O10   O     O_R   0.832470 0.905110 0.169660 -0.458047
O11   O     O_R   0.667530 0.405110 0.830340 -0.519137
O12   O     O_R   0.332470 0.405110 0.169660 -0.458046
O13   O     O_R   0.054010 0.748440 0.822860 -0.493814
O14   O     O_R   0.945990 0.748440 0.177140 -0.501343
O15   O     O_R   0.554010 0.248440 0.822860 -0.493812
O16   O     O_R   0.445990 0.248440 0.177140 -0.501343
O17   O     O_3   0.165160 0.665150 0.749190 -0.266197
O18   O     O_3   0.834840 0.665150 0.250810 -0.278506
O19   O     O_3   0.665160 0.165150 0.749190 -0.266197
O20   O     O_3   0.334840 0.165150 0.250810 -0.278506
O21   O     O_R   0.178620 0.457600 0.674100 -0.494287
O22   O     O_R   0.821380 0.457600 0.325900 -0.480743
O23   O     O_R   0.678620 0.957600 0.674100 -0.494286
O24   O     O_R   0.321380 0.957600 0.325900 -0.480743
O25   O     O_R   0.284680 0.542100 0.669460 -0.520030
O26   O     O_R   0.715320 0.542100 0.330540 -0.522661
O27   O     O_R   0.784680 0.042100 0.669460 -0.520030
O28   O     O_R   0.215320 0.042100 0.330540 -0.522661
O29   O     O_R   0.262860 0.790390 0.676650 -0.500216
O30   O     O_R   0.737140 0.790390 0.323350 -0.503349
O31   O     O_R   0.762860 0.290390 0.676650 -0.500217
O32   O     O_R   0.237140 0.290390 0.323350 -0.503349
O33   O     O_R   0.167460 0.907030 0.670940 -0.513368
O34   O     O_R   0.832540 0.907030 0.329060 -0.494629
O35   O     O_R   0.667460 0.407030 0.670940 -0.513368
O36   O     O_R   0.332540 0.407030 0.329060 -0.494629
O37   O     O_R   0.053950 0.750220 0.675100 -0.499777
O38   O     O_R   0.946050 0.750220 0.324900 -0.496069
O39   O     O_R   0.553950 0.250220 0.675100 -0.499777
O40   O     O_R   0.446050 0.250220 0.324900 -0.496069
O41   O     O_R   0.043300 0.547370 0.827390 -0.497974
O42   O     O_R   0.956700 0.547370 0.172610 -0.520115
O43   O     O_R   0.543300 0.047370 0.827390 -0.497974
O44   O     O_R   0.456700 0.047370 0.172610 -0.520115
O45   O     O_R   0.178690 0.455820 0.821860 -0.501759
O46   O     O_R   0.821310 0.455820 0.178140 -0.465962
O47   O     O_R   0.678690 0.955820 0.821860 -0.501766
O48   O     O_R   0.321310 0.955820 0.178140 -0.465961
O49   O     O_R   0.284750 0.540170 0.828860 -0.505670
O50   O     O_R   0.715250 0.540170 0.171140 -0.489634
O51   O     O_R   0.784750 0.040170 0.828860 -0.505669
O52   O     O_R   0.215250 0.040170 0.171140 -0.489635
C93   C     C_2   0.179460 0.120057 0.905098 0.250731
H53   H     H_    0.179272 0.125006 0.847074 0.128886
O53   O     O_2   0.137800 0.183268 0.937921 -0.528772
C94   C     C_2   0.813325 0.120932 0.084724 0.260348
H54   H     H_    0.848612 0.175941 0.052598 0.094035
O54   O     O_2   0.808016 0.143011 0.148486 -0.472922
C95   C     C_2   0.679458 0.620054 0.905098 0.250737
H55   H     H_    0.679279 0.625018 0.847074 0.128871
O55   O     O_2   0.637787 0.683242 0.937920 -0.528752
C96   C     C_2   0.313324 0.620932 0.084723 0.260348
H56   H     H_    0.348612 0.675940 0.052597 0.094038
O56   O     O_2   0.308016 0.643012 0.148485 -0.472922

loop_
_geom_bond_atom_site_label_1
_geom_bond_atom_site_label_2
_ccdc_geom_bond_type
C70   O46   A    
C7    C83   D    
C14   H38   S    
Cr10  O14   S    
C6    C82   D    
C87   C91   D    
Cr3   O23   S    
C14   C18   A    
Cr9   O17   S    
C35   C36   A    
C74   O10   A    
C43   C51   D    
C50   H50   S    
C56   C96   S    
Cr8   O52   S    
C57   C62   D    
Cr12  O20   S    
C32   H43   S    
Cr11  O11   S    
C75   O11   A    
C12   C23   A    
C51   H51   S    
C59   C64   D    
C50   C54   S    
Cr11  O39   S    
C60   C63   D    
Cr3   O3    S    
C32   C36   A    
C14   C21   A    
C49   H49   S    
C16   H40   S    
C4    O24   A    
C48   O32   A    
Cr9   O33   S    
C95   O55   D    
C2    O26   A    
Cr6   O18   S    
C49   C53   S    
C9    C22   A    
C37   H9    S    
Cr5   O29   S    
Cr3   O47   S    
C80   O44   A    
C53   C93   S    
C29   C33   A    
C11   C24   A    
C78   O14   A    
C63   H15   S    
C75   O7    A    
Cr2   O22   S    
C79   O15   A    
C18   H34   S    
C3    O23   A    
C9    C66   S    
Cr3   O19   S    
C71   O51   A    
C66   O38   A    
C57   H18   S    
C46   C82   S    
C52   C56   S    
C1    O21   A    
C92   H4    S    
C39   C55   D    
C88   C92   D    
Cr9   O37   S    
C40   C56   D    
C71   O47   A    
C17   C18   A    
Cr8   O20   S    
C73   O5    A    
C23   C24   A    
Cr9   O13   S    
C8    C92   S    
C39   C75   S    
Cr1   O45   S    
Cr7   O27   S    
C72   O48   A    
C37   C53   D    
C69   O49   A    
C44   C52   D    
C58   C61   D    
C54   C94   S    
Cr10  O10   S    
C41   H5    S    
C21   C22   A    
C3    C86   S    
Cr11  O15   S    
C61   C62   S    
C35   H47   S    
C46   O34   A    
C67   O39   A    
Cr10  O38   S    
Cr7   O31   S    
Cr6   O6    S    
C8    H24   S    
C9    C26   A    
Cr4   O48   S    
C65   O37   A    
C10   C21   A    
C25   C29   A    
C69   O45   A    
C12   C67   S    
C45   C81   S    
C79   O43   A    
C30   C34   A    
C12   C27   A    
C61   H13   S    
C57   C77   S    
C28   C32   A    
Cr5   O17   S    
C90   H2    S    
C72   O52   A    
C86   C90   D    
C59   C79   S    
C29   H42   S    
C74   O6    A    
Cr1   O21   S    
C86   H26   S    
C4    C85   S    
C51   C55   S    
C25   C26   A    
C6    C90   S    
C27   C31   A    
Cr4   O24   S    
C48   C84   S    
C48   O36   A    
Cr7   O51   S    
Cr2   O42   S    
C88   H28   S    
C81   H29   S    
C82   H30   S    
C60   H19   S    
C15   C19   A    
C95   H55   S    
Cr8   O8    S    
C15   H39   S    
C93   O53   D    
C85   H25   S    
Cr12  O12   S    
C5    C81   D    
C96   O56   D    
C38   C54   D    
C16   C20   A    
C7    C91   S    
Cr11  O19   S    
C93   H53   S    
Cr12  O40   S    
C2    C87   S    
C68   O40   A    
C85   C89   D    
C46   O30   A    
Cr1   O1    S    
C6    H22   S    
C87   H27   S    
C42   C50   D    
C41   C72   S    
Cr2   O46   S    
C31   H44   S    
C44   H8    S    
C10   C25   A    
C65   O1    A    
C15   C24   A    
Cr4   O4    S    
C73   O9    A    
Cr2   O18   S    
C26   C30   A    
C16   C23   A    
C39   H11   S    
Cr7   O7    S    
C76   O8    A    
Cr11  O35   S    
C80   O16   A    
C47   O31   A    
Cr12  O16   S    
C66   O2    A    
C11   C68   S    
C30   H41   S    
C38   C74   S    
C10   C65   S    
C45   O33   A    
C59   H20   S    
Cr4   O44   S    
C77   O13   A    
C37   C73   S    
C60   C80   S    
C58   H17   S    
C1    O25   A    
Cr4   O20   S    
Cr8   O32   S    
C8    C84   D    
C83   H31   S    
C13   H37   S    
C36   H48   S    
C94   O54   D    
C47   C83   S    
Cr2   O2    S    
C17   H33   S    
Cr5   O25   S    
Cr10  O18   S    
C70   O50   A    
Cr6   O26   S    
C43   C70   S    
C41   C49   D    
C78   O42   A    
Cr5   O5    S    
C64   H16   S    
C13   C17   A    
Cr5   O49   S    
C89   H1    S    
C20   H36   S    
C19   C20   A    
C42   H6    S    
Cr6   O30   S    
C33   H45   S    
Cr9   O9    S    
C55   C95   S    
C45   O29   A    
C96   H56   S    
C40   H12   S    
C3    O27   A    
C11   C28   A    
C1    C88   S    
C38   H10   S    
Cr1   O41   S    
Cr1   O17   S    
C42   C71   S    
Cr10  O34   S    
C33   C34   A    
C13   C22   A    
C76   O12   A    
C31   C35   A    
C34   H46   S    
C47   O35   A    
C52   H52   S    
Cr8   O28   S    
C62   H14   S    
C58   C78   S    
C63   C64   S    
C43   H7    S    
C40   C76   S    
Cr7   O19   S    
C94   H54   S    
Cr3   O43   S    
C5    H21   S    
C27   C28   A    
C44   C69   S    
Cr6   O50   S    
C67   O3    A    
C2    O22   A    
C7    H23   S    
C68   O4    A    
C77   O41   A    
C19   H35   S    
C5    C89   S    
C4    O28   A    
C84   H32   S    
C91   H3    S    
Cr12  O36   S    
