data_mof_unit_14972.cif
_audit_creation_date              2013-03-05T15:46:34-0500
_audit_creation_method            fapswitch 2.2
_symmetry_space_group_name_H-M    P1
_symmetry_Int_Tables_number       1
_space_group_crystal_system       triclinic
_cell_length_a                    10.757339
_cell_length_b                    11.116937
_cell_length_c                    9.762011
_cell_angle_alpha                 109.095406
_cell_angle_beta                  98.046061
_cell_angle_gamma                 91.94554
_cell_volume                      1088.35459294

loop_
_atom_site_label
_atom_site_type_symbol
_atom_site_description
_atom_site_fract_x
_atom_site_fract_y
_atom_site_fract_z
_atom_type_partial_charge
O1    O     O_R   0.511880 0.332340 0.577400 -0.550251
O2    O     O_R   0.488120 0.667660 0.422600 -0.521814
O3    O     O_R   0.474280 0.295500 0.332650 -0.552686
O4    O     O_R   0.525720 0.704500 0.667350 -0.567963
C1    C     C_R   0.491660 0.256161 0.444208 0.922334
C2    C     C_R   0.512738 0.744812 0.555199 0.915010
O5    O     O_R   0.335640 0.518390 0.622350 -0.557645
O6    O     O_R   0.664360 0.481610 0.377650 -0.572646
O7    O     O_R   0.298050 0.481550 0.377590 -0.543349
O8    O     O_R   0.701950 0.518450 0.622410 -0.526917
C3    C     C_R   0.260028 0.496335 0.500364 0.969551
C4    C     C_R   0.740636 0.502608 0.499629 0.973610
Cu1   Cu    Cu3+1 0.522260 0.521810 0.644920 1.127447
Cu2   Cu    Cu3+1 0.477740 0.478190 0.355080 1.137915
C5    C     C_3   0.046190 0.418072 0.569859 0.254320
C6    C     C_3   0.957717 0.578574 0.432104 0.243752
C7    C     C_3   0.945086 0.382028 0.431376 0.129376
C8    C     C_3   0.057837 0.613785 0.570784 0.144438
C9    C     C_3   0.877013 0.502172 0.499836 -0.423100
C10   C     C_3   0.124963 0.494829 0.501274 -0.405314
C11   C     C_3   0.978771 0.538586 0.639780 0.254993
C12   C     C_3   0.024002 0.457611 0.362158 0.229178
C13   C     C_2   0.483092 0.121582 0.420902 -0.266848
C14   C     C_2   0.526144 0.881066 0.576627 -0.305956
C15   C     C_2   0.553834 0.068371 0.507034 0.323571
C16   C     C_2   0.536804 0.930151 0.467813 0.347003
H1    H     H_    0.529605 0.945345 0.688539 0.178909
H2    H     H_    0.414237 0.063158 0.328511 0.186285
H3    H     H_    0.416832 0.416392 0.843421 0.201731
H4    H     H_    0.617489 0.523498 0.130564 0.221813
N1    N     N_2   0.444270 0.445410 0.137360 -0.273628
N2    N     N_2   0.555730 0.554590 0.862640 -0.275326
C17   C     C_2   0.524433 0.486087 0.071479 0.070611
C18   C     C_2   0.493045 0.482943 0.915476 0.076000
H5    H     H_    0.629744 0.615147 0.932381 0.259048
H6    H     H_    0.355722 0.412138 0.077874 0.268653
N3    N     N_R   0.886864 0.252609 0.353443 0.191980
O9    O     O_R   0.957383 0.158951 0.310962 -0.234640
O10   O     O_R   0.765122 0.230843 0.318651 -0.309864
N4    N     N_R   0.117183 0.742926 0.649028 0.214278
O11   O     O_R   0.048564 0.834951 0.705367 -0.206980
O12   O     O_R   0.237869 0.767809 0.660629 -0.329513
S1    S     S_3+6 0.111487 0.311530 0.658294 0.129905
O13   O     O_2   0.204556 0.236002 0.571297 -0.268531
O14   O     O_2   0.178079 0.387474 0.809673 -0.261115
O15   O     O_3   0.997808 0.209848 0.670157 -0.373009
H7    H     H_    0.982337 0.243542 0.773002 0.406540
S2    S     S_3+6 0.919642 0.695347 0.348235 0.141421
O16   O     O_2   0.842741 0.632572 0.198973 -0.218539
O17   O     O_2   0.848180 0.793538 0.444701 -0.188141
O18   O     O_3   0.054007 0.766655 0.330771 -0.458898
H8    H     H_    0.027185 0.836713 0.294601 0.400848
S3    S     S_3+6 0.956522 0.600217 0.827315 0.145840
O19   O     O_2   0.875983 0.710724 0.847903 -0.251165
O20   O     O_2   0.892962 0.497398 0.868112 -0.167349
O21   O     O_3   0.097763 0.650334 0.934186 -0.422793
H9    H     H_    0.078865 0.706034 0.029851 0.406288
S4    S     S_3+6 0.044744 0.396507 0.173828 0.131662
O22   O     O_2   0.113180 0.497723 0.134933 -0.163845
O23   O     O_2   0.120434 0.282240 0.149134 -0.250554
O24   O     O_3   0.903008 0.353970 0.066344 -0.446952
H10   H     H_    0.876926 0.268548 0.068844 0.372162
S5    S     S_3+6 0.534326 0.840331 0.278054 0.050158
O25   O     O_2   0.629513 0.744395 0.265553 -0.253314
O26   O     O_2   0.405349 0.773371 0.211789 -0.258649
O27   O     O_3   0.571732 0.934774 0.183167 -0.486353
H11   H     H_    0.567516 0.876382 0.080894 0.386861
S6    S     S_3+6 0.673109 0.153484 0.657359 0.070926
O28   O     O_2   0.745424 0.254292 0.621769 -0.211824
O29   O     O_2   0.612098 0.215581 0.789643 -0.307530
O30   O     O_3   0.773236 0.051122 0.694781 -0.455920
H12   H     H_    0.807406 0.089925 0.800729 0.384502

loop_
_geom_bond_atom_site_label_1
_geom_bond_atom_site_label_2
_geom_bond_distance
_ccdc_geom_bond_type
C12   S4    1.788641 S    
O5    Cu1   1.986380 S    
O5    C3    1.289981 A    
S1    O13   1.502378 D    
N1    C17   1.296455 D    
S3    O19   1.503236 D    
N3    O9    1.300271 A    
O3    Cu2   1.968686 S    
C8    C11   1.535074 S    
S1    O14   1.502010 D    
Cu1   N2    2.012415 S    
C7    C12   1.538473 S    
C1    C13   1.435493 S    
C14   H1    1.086997 S    
O6    C4    1.295097 A    
Cu2   N1    2.012415 S    
O7    Cu2   1.975994 S    
C2    C14   1.458889 S    
C6    S2    1.777890 S    
S4    O24   1.681613 S    
S5    O26   1.503705 D    
C17   C18   1.501627 S    
S4    O22   1.501264 D    
S5    O27   1.683515 S    
C5    S1    1.788089 S    
O30   H12   0.990860 S    
N3    O10   1.299686 A    
C7    N3    1.459560 S    
Cu1   Cu2   2.679052 S    
C11   S3    1.786438 S    
O7    C3    1.282052 A    
O2    C2    1.282007 A    
C15   S6    1.782428 S    
O8    C4    1.283479 A    
S6    O30   1.683334 S    
O1    C1    1.281778 A    
C4    C9    1.466942 S    
S2    O17   1.502130 D    
S2    O16   1.500851 D    
C7    C9    1.544730 S    
C14   C16   1.359555 D    
O27   H11   0.990710 S    
C8    C10   1.531526 S    
S3    O20   1.501207 D    
C6    C9    1.546087 S    
C5    C10   1.542074 S    
O2    Cu2   1.984588 S    
S1    O15   1.678718 S    
C3    C10   1.453774 S    
S3    O21   1.681010 S    
O4    C2    1.304389 A    
O1    Cu1   1.984588 S    
O24   H10   0.990006 S    
C10   C12   1.544022 S    
S4    O23   1.503181 D    
S5    O25   1.491574 D    
N2    H5    1.030837 S    
C5    C11   1.546954 S    
C13   C15   1.346444 D    
O21   H9    0.990071 S    
C6    C8    1.537026 S    
O15   H7    0.990413 S    
C16   S5    1.789805 S    
O4    Cu1   1.968685 S    
C5    C7    1.541235 S    
S6    O29   1.503218 D    
C8    N4    1.461459 S    
N1    H6    1.030564 S    
N4    O11   1.300281 A    
O6    Cu2   1.986380 S    
H4    C17   1.077442 S    
C9    C11   1.554959 S    
C15   C16   1.455184 S    
C13   H2    1.086732 S    
H3    C18   1.082212 S    
S6    O28   1.500987 D    
S2    O18   1.681159 S    
O18   H8    0.990538 S    
C6    C12   1.543898 S    
N4    O12   1.299533 A    
O3    C1    1.293199 A    
O8    Cu1   1.975994 S    
N2    C18   1.298016 D    
