data_mof_unit_11315.cif
_audit_creation_date              2012-10-26T19:04:46-0400
_audit_creation_method            fapswitch 2.2
_symmetry_space_group_name_H-M    P1
_symmetry_Int_Tables_number       1
_space_group_crystal_system       triclinic
_cell_length_a                    9.639268
_cell_length_b                    11.03258
_cell_length_c                    13.688348
_cell_angle_alpha                 94.363535
_cell_angle_beta                  78.651122
_cell_angle_gamma                 88.778939
_cell_volume                      1422.1204378

loop_
_atom_site_label
_atom_site_type_symbol
_atom_type_description
_atom_site_fract_x
_atom_site_fract_y
_atom_site_fract_z
_atom_type_partial_charge
C1    C     C_R   0.498056 0.738235 0.498796 0.598361
C2    C     C_R   0.400804 0.496128 0.807728 0.019978
C3    C     C_R   0.231575 0.902105 0.500922 0.183889
C4    C     C_R   0.429510 0.507364 0.698634 0.551352
C5    C     C_R   0.104934 0.959640 0.558600 -0.021663
C6    C     C_R   0.113184 0.074263 0.612268 0.245311
C7    C     C_R   0.242378 0.131566 0.598225 -0.121324
C8    C     C_R   0.366786 0.070984 0.545354 -0.035195
C9    C     C_R   0.363317 0.945706 0.516567 0.034608
C10   C     C_R   0.492236 0.873902 0.501293 0.074205
C11   C     C_R   0.619139 0.934833 0.498987 -0.019012
C12   C     C_R   0.411613 0.541654 0.983815 -0.031615
C13   C     C_R   0.621176 0.061164 0.501267 -0.066934
C14   C     C_R   0.495402 0.131206 0.521218 0.025269
C15   C     C_R   0.910731 0.306427 0.380654 0.184944
C16   C     C_R   0.498682 0.263675 0.508125 0.552079
C17   C     C_R   0.006925 0.204492 0.368928 -0.040896
C18   C     C_R   0.153483 0.229559 0.343679 0.167038
C19   C     C_R   0.186784 0.350816 0.359402 0.059766
C20   C     C_R   0.095837 0.418792 0.436736 0.118434
C21   C     C_R   0.947159 0.410524 0.440229 0.131039
C22   C     C_R   0.910682 0.586617 0.552319 0.107409
C23   C     C_R   0.455523 0.569702 0.882898 0.015792
C24   C     C_R   0.054926 0.579439 0.560494 0.081514
C25   C     C_R   0.569940 0.518024 0.305208 0.624070
C26   C     C_R   0.650951 0.735598 0.101388 -0.094121
C27   C     C_R   0.591497 0.567913 0.205884 0.044609
C28   C     C_R   0.305483 0.405185 0.838681 -0.121936
C29   C     C_R   0.243730 0.401084 0.938606 -0.059982
C30   C     C_R   0.283120 0.483748 0.009400 -0.024480
C31   C     C_2   0.968788 0.898508 0.560237 0.226834
C32   C     C_2   0.954841 0.082600 0.350935 0.394690
C33   C     C_2   0.219421 0.413176 0.266441 0.303601
C34   C     C_R   0.488309 0.587097 0.056475 -0.018992
C35   C     C_2   0.167910 0.554886 0.078398 0.311792
C36   C     C_R   0.562368 0.693125 0.039053 -0.055316
C37   C     C_R   0.562028 0.747780 0.951765 -0.088400
C38   C     C_R   0.541151 0.674262 0.869026 0.231115
C39   C     C_R   0.505244 0.524144 0.139230 -0.102864
C40   C     C_R   0.670275 0.674205 0.183258 0.243092
Cu1   Cu    Cu3+1 0.359340 0.500010 0.500010 1.083104
Cu2   Cu    Cu3+1 0.640660 0.499990 0.499990 1.164264
H1    H     H_    0.247374 0.221685 0.633707 0.170025
H2    H     H_    0.718856 0.884202 0.487065 0.191358
H3    H     H_    0.703077 0.930048 0.236094 0.380667
H4    H     H_    0.375234 0.777124 0.245110 0.361492
H5    H     H_    0.958710 0.829761 0.501791 0.140598
H6    H     H_    0.764237 0.228790 0.670584 0.380955
H7    H     H_    0.972421 0.259241 0.104890 0.381271
H8    H     H_    0.939386 0.022953 0.410514 0.099152
H9    H     H_    0.293905 0.985042 0.148828 0.366789
H10   H     H_    0.235917 0.362560 0.193869 0.156405
H11   H     H_    0.192222 0.630807 0.126603 0.195137
H12   H     H_    0.720934 0.104626 0.487369 0.158203
H13   H     H_    0.799761 0.533734 0.799402 0.364442
H14   H     H_    0.846789 0.663604 0.588465 0.208733
H15   H     H_    0.615430 0.832791 0.941399 0.185721
H16   H     H_    0.094448 0.647260 0.608394 0.129742
H17   H     H_    0.710280 0.816186 0.083472 0.159709
H18   H     H_    0.457189 0.437648 0.149300 0.162115
H19   H     H_    0.266661 0.345325 0.784452 0.155253
H20   H     H_    0.151304 0.347029 0.958064 0.180747
N1    N     N_R   0.852480 0.498790 0.499000 -0.227127
N2    N     N_R   0.148360 0.498710 0.498970 -0.219327
O1    O     O_R   0.381190 0.680360 0.500010 -0.481116
O2    O     O_2   0.922015 0.771186 0.181428 -0.191927
O3    O     O_3   0.707793 0.885701 0.295602 -0.514978
O4    O     O_2   0.160209 0.699503 0.402356 -0.242351
O5    O     O_2   0.139122 0.884638 0.326338 -0.228814
O6    O     O_3   0.390299 0.792918 0.314372 -0.490783
O7    O     O_2   0.866148 0.921554 0.627319 -0.389369
O8    O     O_2   0.907722 0.084062 0.776864 -0.174535
O9    O     O_2   0.008987 0.277451 0.729513 -0.315283
O10   O     O_3   0.839795 0.179432 0.623981 -0.544887
O11   O     O_2   0.735873 0.287987 0.248985 -0.246576
O12   O     O_R   0.618760 0.680340 0.500000 -0.474793
O13   O     O_2   0.903259 0.456094 0.234698 -0.203635
O14   O     O_3   0.998384 0.241891 0.169060 -0.473131
O15   O     O_2   0.926153 0.048461 0.270709 -0.323767
O16   O     O_2   0.401319 0.200506 0.208031 -0.302306
O17   O     O_2   0.352274 0.052700 0.329675 -0.243414
O18   O     O_3   0.215430 0.041809 0.183319 -0.403049
O19   O     O_2   0.217986 0.523574 0.269245 -0.457801
O20   O     O_2   0.044313 0.538241 0.074539 -0.416380
O21   O     O_2   0.613904 0.730762 0.684621 -0.287270
O22   O     O_2   0.784473 0.776987 0.790180 -0.244862
O23   O     O_R   0.323240 0.499990 0.650990 -0.536649
O24   O     O_3   0.760277 0.549523 0.739818 -0.528450
O25   O     O_R   0.560820 0.499960 0.650980 -0.424941
O26   O     O_R   0.381240 0.319660 0.500000 -0.521790
O27   O     O_R   0.618810 0.319640 0.499990 -0.518457
O28   O     O_R   0.439180 0.500040 0.349020 -0.472246
O29   O     O_R   0.676760 0.500010 0.349010 -0.404189
O30   O     O_2   0.821580 0.685791 0.336921 -0.202066
S1    S     S_3+6 0.785912 0.749677 0.251960 0.088823
S2    S     S_3+6 0.227037 0.817781 0.384622 0.058606
S3    S     S_3+6 0.965940 0.156013 0.689974 0.043797
S4    S     S_3+6 0.882072 0.326338 0.257418 0.060542
S5    S     S_3+6 0.285247 0.130021 0.265531 0.055916
S6    S     S_3+6 0.677447 0.687276 0.767385 -0.005352

loop_
_geom_bond_atom_site_label_1
_geom_bond_atom_site_label_2
_ccdc_geom_bond_type
C16   O26   A    
C35   H11   S    
Cu2   O29   S    
Cu1   Cu2   S    
O6    S2    S    
C19   C20   A    
O5    S2    D    
C7    C8    A    
C4    O23   A    
C33   H10   S    
C25   O29   A    
C12   C23   A    
O4    S2    D    
C30   C35   S    
C28   C29   A    
C4    O25   A    
C5    C6    A    
H7    O14   S    
Cu2   O27   S    
O18   S5    S    
H13   O24   S    
C22   N1    A    
C27   C39   A    
C8    C9    A    
H3    O3    S    
C1    O1    A    
C3    S2    S    
C7    H1    S    
C29   C30   A    
O22   S6    D    
C9    C10   A    
C34   C36   A    
C28   H19   S    
C31   O7    D    
Cu1   O26   S    
C24   N2    A    
C31   H5    S    
C13   C14   A    
O3    S1    S    
O10   S3    S    
O8    S3    D    
Cu1   O23   S    
H4    O6    S    
C34   C39   A    
C6    S3    S    
H6    O10   S    
O13   S4    D    
C38   S6    S    
C19   C33   S    
C18   C19   A    
C22   H14   S    
O17   S5    D    
O11   S4    D    
C20   N2    A    
C2    C4    S    
O14   S4    S    
C37   C38   A    
C3    C9    A    
C27   C40   A    
C17   C18   A    
C11   H2    S    
C33   O19   D    
H9    O18   S    
C32   H8    S    
O24   S6    S    
C26   C36   A    
O9    S3    D    
O16   S5    D    
C14   C16   S    
C18   S5    S    
C40   S1    S    
C12   C34   A    
C13   H12   S    
C26   H17   S    
C15   C17   A    
C29   H20   S    
C36   C37   A    
C25   O28   A    
C8    C14   A    
C12   C30   A    
C1    O12   A    
C1    C10   S    
C3    C5    A    
Cu1   O1    S    
C35   O20   D    
C6    C7    A    
C25   C27   S    
C23   C38   A    
Cu2   O12   S    
Cu2   O25   S    
O21   S6    D    
C32   O15   D    
C11   C13   A    
C26   C40   A    
C39   H18   S    
C22   C24   A    
O30   S1    D    
C21   N1    A    
C10   C11   A    
C15   C21   A    
Cu1   O28   S    
C20   C21   A    
C16   O27   A    
C24   H16   S    
C2    C23   A    
C17   C32   S    
C2    C28   A    
C15   S4    S    
Cu1   N2    S    
Cu2   N1    S    
C37   H15   S    
O2    S1    D    
C5    C31   S    
