data_mof_unit_54212.cif
_audit_creation_date              2012-12-10T18:50:52-0500
_audit_creation_method            fapswitch 2.2
_symmetry_space_group_name_H-M    P1
_symmetry_Int_Tables_number       1
_space_group_crystal_system       triclinic
_cell_length_a                    10.535367
_cell_length_b                    10.079489
_cell_length_c                    15.766367
_cell_angle_alpha                 87.571054
_cell_angle_beta                  98.979509
_cell_angle_gamma                 90.739548
_cell_volume                      1652.20950879

loop_
_atom_site_label
_atom_site_type_symbol
_atom_type_description
_atom_site_fract_x
_atom_site_fract_y
_atom_site_fract_z
_atom_type_partial_charge
Br1   Br    Br    0.248915 0.567961 0.867976 -0.169565
Br2   Br    Br    0.340348 0.270953 0.876602 -0.167784
Br3   Br    Br    0.596949 0.211992 0.923996 -0.157362
Br4   Br    Br    0.431697 0.765449 0.856215 -0.176115
Br5   Br    Br    0.727051 0.702336 0.912008 -0.136552
Br6   Br    Br    0.798985 0.441170 0.912600 -0.207687
C1    C     C_R   0.266342 0.498140 0.515633 0.911529
C2    C     C_R   0.947758 0.617809 0.532822 -0.178731
C3    C     C_R   0.879671 0.499965 0.514310 -0.167295
C4    C     C_R   0.143247 0.494432 0.546344 -0.324096
C5    C     C_R   0.576346 0.068443 0.565247 0.274372
C6    C     C_R   0.581129 0.924304 0.562080 0.270942
C7    C     C_R   0.503346 0.502783 0.339042 0.922791
C8    C     C_R   0.413874 0.929973 0.439982 0.287224
C9    C     C_R   0.412959 0.075593 0.440239 0.268258
C10   C     C_R   0.741399 0.500546 0.500961 0.944923
C11   C     C_R   0.503354 0.497379 0.661485 0.889671
C12   C     C_3   0.667139 0.538127 0.963260 0.303650
C13   C     C_3   0.426009 0.630020 0.035028 0.413490
C14   C     C_3   0.468399 0.355995 0.055105 0.437906
C15   C     C_3   0.485568 0.350407 0.954580 0.293844
C16   C     C_3   0.419146 0.605059 0.933099 0.287791
C17   C     C_1   0.513759 0.491459 0.750992 0.011471
C18   C     C_3   0.523984 0.507834 0.085599 -0.512203
C19   C     C_3   0.523864 0.495670 0.919092 -0.351130
C20   C     C_3   0.678715 0.530213 0.067942 0.452005
C21   C     C_1   0.521435 0.490236 0.826867 0.238234
C22   C     C_1   0.520384 0.512170 0.176575 0.305101
C23   C     C_1   0.513401 0.509621 0.251242 0.065806
C24   C     C_R   0.074740 0.373776 0.548893 0.382660
C25   C     C_R   0.079879 0.614577 0.554183 0.408696
C26   C     C_R   0.943025 0.377981 0.525999 -0.194165
H1    H     H_    0.889331 0.285621 0.524178 0.214476
H2    H     H_    0.868211 0.203620 0.095488 0.410139
H3    H     H_    0.980315 0.087267 0.602621 0.392142
H4    H     H_    0.118737 0.885059 0.701943 0.432030
H5    H     H_    0.745533 0.329458 0.704625 0.380975
H6    H     H_    0.789577 0.658555 0.698145 0.395331
H7    H     H_    0.898531 0.711093 0.534420 0.242998
H8    H     H_    0.198958 0.670492 0.313356 0.380586
H9    H     H_    0.188999 0.349665 0.326151 0.382481
H10   H     H_    0.164382 0.560886 0.174598 0.413109
H11   H     H_    0.183803 0.133833 0.052654 0.423405
H12   H     H_    0.479491 0.077191 0.226554 0.403612
H13   H     H_    0.408160 0.985737 0.979285 0.436155
H14   H     H_    0.848884 0.868108 0.113903 0.409849
N1    N     N_R   0.499970 0.857200 0.499980 -0.214241
N2    N     N_R   0.499970 0.142800 0.499980 -0.207162
O1    O     O_R   0.316750 0.614620 0.499990 -0.521093
O2    O     O_2   0.344244 0.886318 0.272675 -0.205395
O3    O     O_3   0.280058 0.683826 0.353303 -0.509211
O4    O     O_2   0.250099 0.110534 0.285358 -0.166047
O5    O     O_2   0.162574 0.136019 0.417345 -0.199194
O6    O     O_3   0.278275 0.327114 0.352266 -0.505261
O7    O     O_2   0.242830 0.785810 0.104654 -0.121622
O8    O     O_2   0.146729 0.622956 0.013233 -0.130318
O9    O     O_3   0.255827 0.557737 0.166870 -0.537651
O10   O     O_2   0.273462 0.320919 0.154836 -0.195888
O11   O     O_2   0.198044 0.390379 0.005308 -0.176299
O12   O     O_R   0.316750 0.385380 0.499990 -0.524608
O13   O     O_3   0.269552 0.155634 0.037282 -0.427221
O14   O     O_2   0.607552 0.109460 0.090005 -0.155884
O15   O     O_2   0.626063 0.261050 0.207253 -0.295085
O16   O     O_3   0.430057 0.123606 0.175524 -0.375974
O17   O     O_2   0.485711 0.839771 0.144383 -0.155805
O18   O     O_2   0.597610 0.847655 0.020050 -0.194556
O19   O     O_3   0.362575 0.905376 0.997282 -0.408607
O20   O     O_2   0.886124 0.628812 0.190762 -0.215495
O21   O     O_2   0.687393 0.728875 0.190868 -0.274944
O22   O     O_3   0.824216 0.796749 0.073037 -0.393101
O23   O     O_R   0.499990 0.614720 0.377140 -0.555414
O24   O     O_2   0.929621 0.453366 0.087910 -0.173796
O25   O     O_2   0.821405 0.385974 0.205698 -0.225756
O26   O     O_3   0.790338 0.252062 0.067853 -0.436211
O27   O     O_2   0.277077 0.208059 0.610821 -0.194678
O28   O     O_2   0.114968 0.245382 0.701101 -0.217329
O29   O     O_3   0.054796 0.095423 0.571442 -0.456052
O30   O     O_2   0.282390 0.711867 0.659276 -0.268339
O31   O     O_2   0.184176 0.856701 0.538569 -0.203935
O32   O     O_3   0.064270 0.817921 0.669152 -0.457833
O33   O     O_2   0.532415 0.173991 0.710966 -0.197558
O34   O     O_R   0.499990 0.385280 0.377140 -0.554004
O35   O     O_2   0.740761 0.076933 0.728938 -0.135793
O36   O     O_3   0.720536 0.292038 0.647230 -0.558600
O37   O     O_2   0.819606 0.905547 0.645712 -0.254958
O38   O     O_2   0.642295 0.852538 0.727566 -0.159673
O39   O     O_3   0.727709 0.676041 0.644812 -0.553612
O40   O     O_R   0.683220 0.614710 0.500000 -0.580786
O41   O     O_R   0.683220 0.385290 0.500000 -0.589386
O42   O     O_R   0.499980 0.614620 0.622860 -0.522463
O43   O     O_R   0.499980 0.385380 0.622860 -0.539171
O44   O     O_2   0.168808 0.898841 0.357007 -0.186178
S1    S     S_3+6 0.302164 0.847902 0.356878 0.168707
S2    S     S_3+6 0.158375 0.753170 0.605015 0.119169
S3    S     S_3+6 0.643709 0.149580 0.664713 0.156424
S4    S     S_3+6 0.692094 0.836933 0.644321 0.142082
S5    S     S_3+6 0.277678 0.163377 0.373716 0.169234
S6    S     S_3+6 0.265016 0.648178 0.076779 0.194444
S7    S     S_3+6 0.298250 0.314570 0.063934 0.157784
S8    S     S_3+6 0.539491 0.213486 0.130378 0.157579
S9    S     S_3+6 0.477367 0.805425 0.051999 0.182192
S10   S     S_3+6 0.766949 0.672253 0.130956 0.163549
S11   S     S_3+6 0.802941 0.401803 0.109272 0.153537
S12   S     S_3+6 0.136437 0.230042 0.609999 0.127316
Zn1   Zn    Zn3+2 0.499980 0.653120 0.500000 1.150476
Zn2   Zn    Zn3+2 0.499980 0.346880 0.500000 1.144728

loop_
_geom_bond_atom_site_label_1
_geom_bond_atom_site_label_2
_ccdc_geom_bond_type
O28   S12   D    
C1    C4    S    
O11   S7    D    
C12   C20   S    
O17   S9    D    
O21   S10   D    
H12   O16   S    
H11   O13   S    
C11   C17   S    
C7    C23   S    
C22   C23   T    
C3    C10   S    
C18   C20   S    
O33   S3    D    
O37   S4    D    
O4    S5    D    
C3    C26   A    
C4    C25   A    
N2    Zn2   S    
C14   C18   S    
C2    C3    A    
N1    Zn1   S    
C16   C19   S    
C11   O43   A    
O41   Zn2   S    
H13   O19   S    
O6    S5    S    
C2    H7    S    
C17   C21   T    
C8    S1    S    
Br1   C16   S    
O18   S9    D    
C5    N2    A    
O13   S7    S    
C12   C19   S    
C9    N2    A    
C9    S5    S    
C6    N1    A    
H10   O9    S    
C13   S6    S    
C10   O41   A    
Br6   C12   S    
C11   O42   A    
C13   C16   S    
C1    O1    A    
O31   S2    D    
H4    O32   S    
O1    Zn1   S    
Br5   C12   S    
C7    O23   A    
O5    S5    D    
C7    O34   A    
H3    O29   S    
O36   S3    S    
O15   S8    D    
C20   S11   S    
Br4   C16   S    
C4    C24   A    
C14   S8    S    
O25   S11   D    
O35   S3    D    
O39   S4    S    
Br2   C15   S    
H5    O36   S    
O8    S6    D    
O38   S4    D    
H2    O26   S    
O14   S8    D    
O3    S1    S    
O23   Zn1   S    
O27   S12   D    
Br3   C15   S    
O32   S2    S    
H8    O3    S    
C1    O12   A    
O12   Zn2   S    
O19   S9    S    
C5    S3    S    
C15   C19   S    
C2    C25   A    
O10   S7    D    
C18   C22   S    
O42   Zn1   S    
O20   S10   D    
C5    C6    A    
O22   S10   S    
O2    S1    D    
C8    N1    A    
O24   S11   D    
C19   C21   S    
C25   S2    S    
H6    O39   S    
C26   H1    S    
O43   Zn2   S    
C13   C18   S    
C20   S10   S    
C24   C26   A    
O40   Zn1   S    
C13   S9    S    
C14   S7    S    
O30   S2    D    
O9    S6    S    
O7    S6    D    
O44   S1    D    
O34   Zn2   S    
H9    O6    S    
H14   O22   S    
O16   S8    S    
C14   C15   S    
C24   S12   S    
C10   O40   A    
C8    C9    A    
C6    S4    S    
O29   S12   S    
O26   S11   S    
