data_mof_unit_9633.cif
_audit_creation_date              2012-12-11T15:48:10-0500
_audit_creation_method            fapswitch 2.2
_symmetry_space_group_name_H-M    P1
_symmetry_Int_Tables_number       1
_space_group_crystal_system       triclinic
_cell_length_a                    6.92494
_cell_length_b                    17.604259
_cell_length_c                    19.506943
_cell_angle_alpha                 108.648903
_cell_angle_beta                  89.830891
_cell_angle_gamma                 90.250694
_cell_volume                      2253.1782232

loop_
_atom_site_label
_atom_site_type_symbol
_atom_type_description
_atom_site_fract_x
_atom_site_fract_y
_atom_site_fract_z
_atom_type_partial_charge
O1    O     O_R   0.494330 0.415710 0.413720 -0.553726
O2    O     O_R   0.819360 0.430070 0.560210 -0.536328
O3    O     O_R   0.994320 0.584290 0.586280 -0.554827
C1    C     C_R   0.651527 0.414992 0.581815 0.765848
O4    O     O_R   0.823740 0.406290 0.412670 -0.507620
O5    O     O_R   0.998730 0.560340 0.437690 -0.524551
C2    C     C_R   0.655129 0.384037 0.384254 0.802928
O6    O     O_R   0.489920 0.439660 0.562310 -0.538796
O7    O     O_3   0.662330 0.550570 0.508380 -0.371176
V1    V     V_3+5 0.935370 0.490620 0.498440 1.502247
O8    O     O_R   0.328720 0.569930 0.439790 -0.511662
C3    C     C_R   0.160150 0.585415 0.418467 0.744414
O9    O     O_R   0.324340 0.593710 0.587330 -0.548046
C4    C     C_R   0.155130 0.616684 0.615232 0.694852
V2    V     V_3+5 0.435940 0.509380 0.501560 1.483068
O10   O     O_3   0.159110 0.449430 0.491620 -0.376031
C5    C     C_R   0.312627 0.715326 0.722772 -0.183724
H1    H     H_    0.452016 0.689651 0.703162 0.126022
C6    C     C_R   0.305003 0.779515 0.787332 0.332272
C7    C     C_R   0.125183 0.814820 0.815243 -0.118333
C8    C     C_R   0.957565 0.783819 0.775703 -0.213904
H2    H     H_    0.819260 0.809950 0.794412 0.175375
C9    C     C_R   0.966362 0.719707 0.711071 -0.160273
H3    H     H_    0.833333 0.697912 0.682313 0.130874
C10   C     C_R   0.144435 0.684817 0.683728 -0.095384
C11   C     C_R   0.294600 0.622839 0.313228 0.465220
C12   C     C_R   0.151667 0.633477 0.367772 -0.287738
C13   C     C_R   0.997138 0.687171 0.371306 0.301216
C14   C     C_R   0.983522 0.727631 0.319773 0.061157
C15   C     C_R   0.132186 0.720923 0.268309 -0.149303
C16   C     C_R   0.291453 0.669702 0.265670 -0.153218
C17   C     C_R   0.825755 0.778049 0.321412 -0.058236
C18   C     C_R   0.814748 0.824053 0.275240 0.310986
C19   C     C_R   0.963413 0.818864 0.223822 0.079786
C20   C     C_R   0.123392 0.767564 0.220989 0.000822
C21   C     C_R   0.275850 0.764189 0.171690 -0.009819
C22   C     C_R   0.431043 0.710750 0.166719 0.381689
C23   C     C_R   0.442501 0.665569 0.215031 0.413499
C24   C     C_R   0.955484 0.862804 0.174811 -0.156045
C25   C     C_R   0.111683 0.863701 0.129241 -0.113952
C26   C     C_R   0.273033 0.816013 0.129469 -0.158326
H4    H     H_    0.709626 0.783540 0.360038 0.180752
H5    H     H_    0.830032 0.898162 0.172371 0.125558
H6    H     H_    0.394953 0.818620 0.095445 0.161240
C27   C     C_R   0.493711 0.201392 0.881285 0.362482
C28   C     C_R   0.621183 0.136249 0.870625 -0.296640
C29   C     C_R   0.750297 0.116535 0.811795 0.342150
C30   C     C_R   0.764339 0.165695 0.766792 0.005478
C31   C     C_R   0.642813 0.234033 0.780266 -0.125441
C32   C     C_R   0.514611 0.254387 0.839944 -0.139488
C33   C     C_R   0.896220 0.147666 0.708276 0.361520
C34   C     C_R   0.896289 0.193888 0.661773 -0.249784
C35   C     C_R   0.776667 0.260939 0.673977 0.027757
C36   C     C_R   0.648426 0.281565 0.733486 -0.080150
C37   C     C_R   0.523649 0.348386 0.745162 -0.145195
C38   C     C_R   0.401819 0.370347 0.806977 0.407437
C39   C     C_R   0.407894 0.326791 0.856487 0.382288
C40   C     C_R   0.784231 0.307181 0.626823 0.354971
C41   C     C_R   0.649500 0.369316 0.634237 -0.286192
C42   C     C_R   0.527169 0.392835 0.695531 0.383238
H7    H     H_    0.991091 0.176343 0.615174 0.153725
C43   C     C_R   0.789936 0.305686 0.262032 0.275933
C44   C     C_R   0.781238 0.238516 0.197594 0.254244
C45   C     C_R   0.621168 0.185209 0.184771 -0.213198
C46   C     C_R   0.475409 0.197848 0.238766 0.303768
C47   C     C_R   0.487679 0.263665 0.301929 -0.226928
H8    H     H_    0.375370 0.271817 0.342448 0.176045
C48   C     C_R   0.645322 0.316449 0.315196 -0.200204
O11   O     O_R   0.774940 0.060470 0.937800 -0.528034
O12   O     O_R   0.440880 0.093730 0.087350 -0.539035
O13   O     O_R   0.266130 0.939630 0.062280 -0.548387
C49   C     C_R   0.609725 0.116636 0.115698 0.749407
O14   O     O_R   0.445480 0.069960 0.939820 -0.536914
O15   O     O_R   0.270770 0.915690 0.913690 -0.537187
C50   C     C_R   0.613930 0.086047 0.919142 0.788581
O16   O     O_R   0.770300 0.084410 0.086380 -0.509507
O17   O     O_3   0.602600 0.949510 0.991670 -0.377352
V3    V     V_3+5 0.329470 0.009370 0.001550 1.487756
O18   O     O_R   0.940760 0.906160 0.912560 -0.540540
C51   C     C_R   0.110781 0.883095 0.884417 0.712699
O19   O     O_R   0.936150 0.929930 0.060100 -0.544205
C52   C     C_R   0.104602 0.914333 0.081231 0.701029
V4    V     V_3+5 0.828930 0.990450 0.998310 1.493343
O20   O     O_3   0.105670 0.050490 0.008320 -0.353633
O21   O     O_3   0.581768 0.707010 0.118879 -0.537974
C53   C     C_3   0.526259 0.657848 0.048890 -0.304165
H9    H     H_    0.428377 0.689853 0.022610 0.142225
H10   H     H_    0.455888 0.600927 0.049028 0.102489
H11   H     H_    0.657690 0.641631 0.014752 0.166875
O22   O     O_3   0.614387 0.627921 0.221166 -0.513660
C54   C     C_3   0.645734 0.559628 0.160206 -0.119155
H12   H     H_    0.510213 0.530787 0.133370 0.061147
H13   H     H_    0.723248 0.514344 0.178196 0.147312
H14   H     H_    0.741628 0.575089 0.120975 0.154226
O23   O     O_3   0.350795 0.213472 0.933486 -0.543288
C55   C     C_3   0.175371 0.181850 0.899058 -0.016686
H15   H     H_    0.188404 0.117156 0.867314 0.143804
H16   H     H_    0.123979 0.215510 0.863204 0.131851
H17   H     H_    0.063476 0.187444 0.941175 0.146146
O24   O     O_3   0.860618 0.047784 0.797880 -0.533878
C56   C     C_3   0.752740 0.982305 0.753532 -0.132075
H18   H     H_    0.844268 0.927976 0.739748 0.147929
H19   H     H_    0.710062 0.991576 0.701810 0.145906
H20   H     H_    0.622359 0.970715 0.782087 0.069226
O25   O     O_3   0.025362 0.085127 0.697208 -0.626661
H21   H     H_    0.109177 0.081906 0.655073 0.282131
O26   O     O_3   0.917053 0.288979 0.570572 -0.560110
C57   C     C_3   0.097432 0.323620 0.597839 -0.109658
H22   H     H_    0.085701 0.388821 0.628009 0.168149
H23   H     H_    0.196813 0.316791 0.551583 0.148278
H24   H     H_    0.164858 0.293086 0.633446 0.112572
O27   O     O_3   0.414990 0.460930 0.708016 -0.531851
C58   C     C_3   0.531547 0.529502 0.739018 -0.174706
H25   H     H_    0.631749 0.522439 0.781173 0.111916
H26   H     H_    0.435975 0.580845 0.765618 0.152824
H27   H     H_    0.615046 0.545355 0.696855 0.108916
O28   O     O_3   0.257719 0.426890 0.813381 -0.519813
C59   C     C_3   0.293885 0.496953 0.872272 -0.133916
H28   H     H_    0.450382 0.509538 0.883822 0.078004
H29   H     H_    0.216788 0.493998 0.921256 0.155381
H30   H     H_    0.233020 0.548848 0.859220 0.142082
O29   O     O_3   0.475685 0.805230 0.822616 -0.654567
H31   H     H_    0.497149 0.859969 0.820082 0.274393
O30   O     O_3   0.299066 0.353849 0.919224 -0.529818
C60   C     C_3   0.423542 0.391220 0.977856 -0.198618
H32   H     H_    0.511605 0.439729 0.968062 0.079799
H33   H     H_    0.521369 0.347456 0.990137 0.167912
H34   H     H_    0.334151 0.418864 0.026697 0.142853
O31   O     O_3   0.932547 0.363485 0.272958 -0.650447
H35   H     H_    0.976634 0.366127 0.225439 0.275560
O32   O     O_3   0.926212 0.224206 0.146251 -0.631969
H36   H     H_    0.050354 0.243394 0.170974 0.314196
O33   O     O_3   0.322136 0.145996 0.233649 -0.630257
H37   H     H_    0.364446 0.091009 0.206253 0.286857
O34   O     O_3   0.438241 0.566359 0.306529 -0.509109
C61   C     C_3   0.366056 0.490141 0.265671 -0.172681
H38   H     H_    0.295912 0.490764 0.214540 0.092656
H39   H     H_    0.263074 0.466796 0.297877 0.141402
H40   H     H_    0.488600 0.447598 0.250785 0.147796
O35   O     O_3   0.859425 0.702839 0.425477 -0.630637
H41   H     H_    0.922242 0.701386 0.470582 0.281470
O36   O     O_3   0.657143 0.873848 0.283287 -0.645924
H42   H     H_    0.699724 0.924462 0.276106 0.282690

loop_
_geom_bond_atom_site_label_1
_geom_bond_atom_site_label_2
_ccdc_geom_bond_type
C47   C48   A    
C37   C38   A    
C6    O29   S    
C56   H18   S    
O12   V3    S    
C38   O28   S    
C36   C37   A    
C6    C7    A    
C13   O35   S    
C1    O6    A    
O19   C52   A    
O34   C61   S    
O21   C53   S    
C57   H22   S    
C13   C14   A    
C11   C12   A    
C43   C44   A    
C15   C20   A    
C42   O27   S    
C22   O21   S    
C21   C22   A    
C22   C23   A    
C19   C20   A    
C14   C17   A    
C34   H7    S    
O5    C3    A    
C15   C16   A    
C53   H10   S    
O17   V4    S    
C31   C36   A    
C55   H17   S    
C38   C39   A    
C40   O26   S    
C59   H28   S    
O27   C58   S    
C11   O34   S    
C2    C48   S    
C58   H25   S    
O8    V2    S    
C30   C33   A    
O23   C55   S    
C55   H16   S    
C60   H34   S    
O26   C57   S    
O1    V2    S    
C44   O32   S    
O7    V1    S    
C49   O16   A    
O13   C52   A    
C37   C42   A    
C45   C49   S    
C47   H8    S    
C41   C42   A    
C56   H19   S    
O15   C51   A    
O9    C4    A    
O14   C50   A    
C43   O31   S    
C21   C26   A    
C61   H40   S    
O16   V4    S    
C28   C50   S    
O19   V4    S    
C5    H1    S    
C7    C51   S    
C3    C12   S    
C19   C24   A    
C29   C30   A    
C25   C52   S    
O35   H41   S    
C61   H39   S    
C54   H12   S    
O4    C2    A    
C53   H9    S    
C24   H5    S    
C40   C41   A    
O17   V3    S    
C29   O24   S    
C33   C34   A    
C20   C21   A    
O2    C1    A    
C14   C15   A    
O11   V4    S    
V3    O20   S    
C54   H13   S    
V4    O20   S    
O14   V3    S    
C55   H15   S    
C18   C19   A    
O3    C4    A    
C25   C26   A    
C31   C32   A    
C56   H20   S    
C8    C9    A    
C60   H32   S    
C26   H6    S    
O18   C51   A    
O32   H36   S    
O2    V1    S    
C24   C25   A    
C34   C35   A    
O31   H35   S    
C28   C29   A    
C30   C31   A    
O1    C2    A    
C32   C39   A    
C61   H38   S    
C53   H11   S    
O5    V1    S    
C35   C40   A    
C16   C23   A    
C35   C36   A    
C18   O36   S    
O6    V2    S    
O25   H21   S    
C23   O22   S    
C57   H24   S    
C43   C48   A    
C5    C10   A    
C17   C18   A    
C58   H27   S    
O9    V2    S    
O7    V2    S    
O4    V1    S    
O3    V1    S    
V1    O10   S    
O28   C59   S    
C45   C46   A    
C54   H14   S    
O18   V4    S    
O22   C54   S    
O33   H37   S    
C27   C32   A    
C1    C41   S    
O24   C56   S    
C5    C6    A    
C57   H23   S    
O11   C50   A    
C9    C10   A    
C4    C10   S    
C59   H29   S    
C33   O25   S    
C9    H3    S    
C44   C45   A    
C27   C28   A    
C11   C16   A    
C7    C8    A    
C46   C47   A    
O15   V3    S    
C12   C13   A    
C60   H33   S    
C17   H4    S    
O36   H42   S    
O12   C49   A    
C58   H26   S    
O29   H31   S    
C8    H2    S    
C59   H30   S    
O13   V3    S    
C46   O33   S    
V2    O10   S    
O8    C3    A    
O30   C60   S    
C39   O30   S    
C27   O23   S    
