data_mof_unit_40596.cif
_audit_creation_date              2013-03-05T15:53:31-0500
_audit_creation_method            fapswitch 2.2
_symmetry_space_group_name_H-M    P1
_symmetry_Int_Tables_number       1
_space_group_crystal_system       triclinic
_cell_length_a                    30.531843
_cell_length_b                    7.257279
_cell_length_c                    25.955883
_cell_angle_alpha                 89.8931
_cell_angle_beta                  111.928214
_cell_angle_gamma                 90.098612
_cell_volume                      5335.15367443

loop_
_atom_site_label
_atom_site_type_symbol
_atom_site_description
_atom_site_fract_x
_atom_site_fract_y
_atom_site_fract_z
_atom_type_partial_charge
O1    O     O_R   0.295360 0.592990 0.320420 -0.580770
O2    O     O_R   0.704640 0.407010 0.679580 -0.582662
O3    O     O_R   0.204640 0.092990 0.179580 -0.581829
O4    O     O_R   0.795360 0.907010 0.820420 -0.582809
O5    O     O_R   0.294060 0.265620 0.213230 -0.591317
O6    O     O_R   0.705940 0.734380 0.786770 -0.591473
O7    O     O_R   0.205940 0.765620 0.286770 -0.593814
O8    O     O_R   0.794060 0.234380 0.713230 -0.592117
C1    C     C_R   0.304310 0.432579 0.199665 0.949951
C2    C     C_R   0.695691 0.567421 0.800335 0.949554
C3    C     C_R   0.195805 0.932107 0.300538 0.949597
C4    C     C_R   0.804279 0.067827 0.699620 0.950179
O9    O     O_R   0.300850 0.263360 0.322080 -0.582302
O10   O     O_R   0.699150 0.736640 0.677920 -0.580853
O11   O     O_R   0.199150 0.763360 0.177920 -0.581731
O12   O     O_R   0.800850 0.236640 0.822080 -0.580741
O13   O     O_R   0.211480 0.091820 0.289210 -0.593262
O14   O     O_R   0.788520 0.908180 0.710790 -0.592309
O15   O     O_R   0.288520 0.591820 0.210790 -0.592255
O16   O     O_R   0.711480 0.408180 0.789210 -0.592426
C5    C     C_R   0.313241 0.431411 0.343160 0.904310
C6    C     C_R   0.686752 0.568581 0.656844 0.905087
C7    C     C_R   0.186750 0.931489 0.156840 0.905264
C8    C     C_R   0.813252 0.068507 0.843157 0.905293
O17   O     O_3   0.220670 0.426670 0.239090 -0.283281
O18   O     O_3   0.779330 0.573330 0.760910 -0.282906
O19   O     O_3   0.279330 0.926670 0.260910 -0.282185
O20   O     O_3   0.720670 0.073330 0.739090 -0.282778
V1    V     V_3+5 0.255440 0.152290 0.252020 1.170084
V2    V     V_3+5 0.744560 0.847710 0.747980 1.170455
V3    V     V_3+5 0.244560 0.652290 0.247980 1.168047
V4    V     V_3+5 0.755440 0.347710 0.752020 1.170356
C9    C     C_R   0.850220 0.063571 0.899383 -0.095412
C10   C     C_R   0.149783 0.936410 0.100611 -0.095437
C11   C     C_R   0.649787 0.563870 0.600617 -0.095343
C12   C     C_R   0.350198 0.436089 0.399390 -0.094671
C13   C     C_R   0.873682 0.126601 0.997430 -0.156431
C14   C     C_R   0.126322 0.873345 0.002565 -0.156125
C15   C     C_R   0.626344 0.627794 0.502568 -0.155838
C16   C     C_R   0.373645 0.371924 0.497426 -0.155417
C17   C     C_R   0.838860 0.117787 0.944415 -0.154379
C18   C     C_R   0.161145 0.882199 0.055579 -0.154154
C19   C     C_R   0.661164 0.618676 0.555582 -0.154253
C20   C     C_R   0.338825 0.381063 0.444411 -0.152496
C21   C     C_R   0.897205 0.018657 0.907733 -0.231663
C22   C     C_R   0.102794 0.981271 0.092259 -0.233033
C23   C     C_R   0.602788 0.518635 0.592270 -0.231378
C24   C     C_R   0.397191 0.481440 0.407749 -0.231675
C25   C     C_R   0.933790 0.029895 0.961476 0.109823
C26   C     C_R   0.066210 0.970005 0.038516 0.110004
C27   C     C_R   0.566208 0.530132 0.538526 0.109833
C28   C     C_R   0.433773 0.469845 0.461488 0.109787
C29   C     C_R   0.920811 0.084592 0.006305 0.164483
C30   C     C_R   0.079190 0.915313 0.993688 0.163951
C31   C     C_R   0.579201 0.585478 0.493696 0.163788
C32   C     C_R   0.420783 0.414373 0.506309 0.163352
C33   C     C_R   0.982635 0.991459 0.972296 0.055248
C34   C     C_R   0.017364 0.008418 0.027697 0.055757
C35   C     C_R   0.517353 0.491335 0.527707 0.055224
C36   C     C_R   0.482627 0.508646 0.472308 0.055400
C37   C     C_R   0.002054 0.062594 0.070401 -0.180991
C38   C     C_R   0.997945 0.937267 0.929592 -0.179651
C39   C     C_R   0.497950 0.563512 0.429604 -0.179316
C40   C     C_R   0.502032 0.436409 0.570407 -0.179302
C41   C     C_R   0.954885 0.099365 0.059797 -0.210158
C42   C     C_R   0.045116 0.900509 0.940197 -0.209542
C43   C     C_R   0.545130 0.600590 0.440206 -0.209225
C44   C     C_R   0.454855 0.399247 0.559800 -0.208929
H1    H     H_    0.944985 0.141133 0.094054 0.151845
H2    H     H_    0.055016 0.858736 0.905941 0.152262
H3    H     H_    0.555040 0.642865 0.405948 0.152266
H4    H     H_    0.444947 0.356884 0.594051 0.152294
H5    H     H_    0.096031 0.019723 0.128657 0.109991
H6    H     H_    0.903967 0.980189 0.871334 0.110212
H7    H     H_    0.403960 0.520512 0.371355 0.110293
H8    H     H_    0.596014 0.479732 0.628673 0.110203
H9    H     H_    0.197115 0.845450 0.061599 0.119993
H10   H     H_    0.802892 0.154567 0.938396 0.119996
H11   H     H_    0.302851 0.343885 0.438380 0.117391
H12   H     H_    0.697143 0.655710 0.561599 0.119933
H13   H     H_    0.863806 0.169075 0.031626 0.133043
H14   H     H_    0.136200 0.830874 0.968370 0.133095
H15   H     H_    0.636232 0.670752 0.468371 0.133175
H16   H     H_    0.363760 0.328830 0.531614 0.133117
H17   H     H_    0.025755 0.078640 0.112901 0.144234
H18   H     H_    0.974242 0.921200 0.887093 0.144852
H19   H     H_    0.474252 0.579853 0.387105 0.144851
H20   H     H_    0.525733 0.420022 0.612904 0.144846
C45   C     C_R   0.093822 0.980545 0.482275 0.540604
C46   C     C_R   0.906881 0.028555 0.518645 0.538027
C47   C     C_R   0.406654 0.489162 0.018826 0.538983
C48   C     C_R   0.593361 0.510820 0.981193 0.538985
N1    N     N_R   0.074395 0.971595 0.425377 -0.171114
N2    N     N_R   0.926283 0.032838 0.575592 -0.170908
N3    N     N_R   0.426224 0.474483 0.075608 -0.171103
N4    N     N_R   0.573791 0.525502 0.924411 -0.171115
C49   C     C_R   0.026404 0.979772 0.397412 0.583868
C50   C     C_R   0.974332 0.031684 0.603471 0.579311
C51   C     C_R   0.474263 0.466750 0.103143 0.577653
C52   C     C_R   0.525753 0.533226 0.896876 0.577604
C53   C     C_R   0.995927 0.993858 0.426759 -0.066785
C54   C     C_R   0.004836 0.021307 0.574078 -0.068152
C55   C     C_R   0.504651 0.477099 0.073579 -0.068881
C56   C     C_R   0.495365 0.522874 0.926440 -0.068928
C57   C     C_R   0.015371 0.001305 0.485209 0.004026
C58   C     C_R   0.985388 0.014076 0.515625 0.003590
C59   C     C_R   0.485066 0.494217 0.015304 0.002864
C60   C     C_R   0.514950 0.505757 0.984715 0.002858
C61   C     C_R   0.064726 0.995520 0.513322 -0.055041
C62   C     C_R   0.936023 0.018956 0.487524 -0.055919
C63   C     C_R   0.435664 0.499793 0.987547 -0.056422
C64   C     C_R   0.564352 0.500183 0.012472 -0.056386
C65   C     C_R   0.946609 0.000220 0.399155 -0.091579
C66   C     C_R   0.054168 0.016771 0.601660 -0.094025
C67   C     C_R   0.554013 0.471499 0.100813 -0.094393
C68   C     C_R   0.446003 0.528473 0.899206 -0.094311
C69   C     C_R   0.917030 0.012474 0.429160 -0.102230
C70   C     C_R   0.083738 0.003891 0.571663 -0.100080
C71   C     C_R   0.583490 0.482998 0.070645 -0.103512
C72   C     C_R   0.416526 0.516976 0.929373 -0.103468
O21   O     O_2   0.141129 0.973428 0.508767 -0.544482
O22   O     O_2   0.859536 0.031386 0.492220 -0.545705
O23   O     O_2   0.359295 0.495357 0.992757 -0.545981
O24   O     O_2   0.640720 0.504627 0.007261 -0.546010
O25   O     O_2   0.008234 0.974384 0.341413 -0.523536
O26   O     O_2   0.992526 0.039836 0.659439 -0.523687
O27   O     O_2   0.492559 0.449536 0.158932 -0.522265
O28   O     O_2   0.507456 0.550441 0.841086 -0.522188
H21   H     H_    0.930667 0.994984 0.354256 0.174349
H22   H     H_    0.070113 0.022284 0.646556 0.174484
H23   H     H_    0.570061 0.458427 0.145566 0.174627
H24   H     H_    0.429955 0.541545 0.854453 0.174683
H25   H     H_    0.879216 0.016203 0.406441 0.174116
H26   H     H_    0.121550 0.999986 0.594384 0.173991
H27   H     H_    0.621335 0.478150 0.093088 0.174088
H28   H     H_    0.378681 0.521826 0.906931 0.174128
C73   C     C_R   0.889403 0.880614 0.635821 0.409432
C74   C     C_R   0.108660 0.790347 0.367683 0.407314
C75   C     C_R   0.610229 0.376632 0.863438 0.406436
C76   C     C_R   0.389775 0.623379 0.136569 0.406421
C77   C     C_R   0.859888 0.893510 0.666404 -0.297324
C78   C     C_R   0.138027 0.784893 0.336736 -0.292656
C79   C     C_R   0.639786 0.391367 0.832924 -0.296271
C80   C     C_R   0.360212 0.608643 0.167075 -0.296205
H29   H     H_    0.854938 0.773188 0.688386 0.183131
H30   H     H_    0.140959 0.657580 0.316572 0.181791
H31   H     H_    0.644598 0.272188 0.810553 0.183689
H32   H     H_    0.355392 0.727826 0.189438 0.183749
C81   C     C_R   0.836473 0.058634 0.668474 -0.184309
C82   C     C_R   0.163921 0.940649 0.332180 -0.175841
C83   C     C_R   0.663400 0.556844 0.831356 -0.184450
C84   C     C_R   0.336603 0.443157 0.168648 -0.184665
C85   C     C_R   0.843287 0.212949 0.639551 -0.123591
C86   C     C_R   0.159763 0.104025 0.359022 -0.151190
C87   C     C_R   0.656706 0.709827 0.860665 -0.120833
C88   C     C_R   0.343306 0.290166 0.139349 -0.120719
H33   H     H_    0.825674 0.342008 0.639997 0.146700
H34   H     H_    0.179248 0.226567 0.356724 0.144383
H35   H     H_    0.674447 0.839112 0.860564 0.146052
H36   H     H_    0.325568 0.160876 0.139453 0.146091
C89   C     C_R   0.872270 0.201792 0.608784 -0.037124
C90   C     C_R   0.130845 0.111210 0.389873 -0.044930
C91   C     C_R   0.627724 0.696862 0.891424 -0.039740
C92   C     C_R   0.372293 0.303128 0.108596 -0.039632
H37   H     H_    0.876756 0.322026 0.586509 0.181010
H38   H     H_    0.128315 0.238528 0.410258 0.174800
H39   H     H_    0.623351 0.816044 0.914046 0.177516
H40   H     H_    0.376672 0.183941 0.085979 0.177516
C93   C     C_R   0.895612 0.037365 0.606615 0.054735
C94   C     C_R   0.105024 0.956345 0.394490 0.063928
C95   C     C_R   0.604273 0.531932 0.893182 0.057645
C96   C     C_R   0.395742 0.468063 0.106835 0.057603
N5    N     N_R   0.912360 0.708269 0.634676 0.231278
O29   O     O_R   0.922403 0.662222 0.591924 -0.428211
O30   O     O_R   0.920552 0.590316 0.675028 -0.398933
N6    N     N_R   0.083282 0.626943 0.371710 0.231827
O31   O     O_R   0.073547 0.595089 0.415628 -0.421231
O32   O     O_R   0.072689 0.502058 0.333030 -0.396567
N7    N     N_R   0.586929 0.204062 0.863846 0.231359
O33   O     O_R   0.575748 0.157320 0.905797 -0.427049
O34   O     O_R   0.579397 0.086704 0.823576 -0.397912
N8    N     N_R   0.413069 0.795974 0.136155 0.231386
O35   O     O_R   0.420533 0.913459 0.176379 -0.398081
O36   O     O_R   0.424304 0.842595 0.094238 -0.427032

loop_
_geom_bond_atom_site_label_1
_geom_bond_atom_site_label_2
_geom_bond_distance
_ccdc_geom_bond_type
C66   H22   1.083023 S    
O17   V3    1.771413 S    
C51   C55   1.409469 A    
C25   C29   1.419554 A    
C1    C84   1.489507 S    
O1    C5    1.334326 A    
O19   V1    1.772937 S    
C53   C65   1.406101 A    
C16   H16   1.083980 S    
O3    C7    1.334178 A    
C10   C18   1.395120 A    
C89   H37   1.082262 S    
C48   N4    1.372020 A    
C80   H32   1.082991 S    
O4    V2    1.987149 S    
C11   C23   1.407200 A    
C25   C33   1.438440 A    
C33   C38   1.411013 A    
C5    C12   1.474633 S    
C67   H23   1.083077 S    
N5    O29   1.301132 A    
C79   H31   1.082988 S    
C6    C11   1.474669 S    
C38   H18   1.076158 S    
C35   C40   1.411025 A    
C26   C30   1.419544 A    
C65   H21   1.083019 S    
C36   C39   1.411023 A    
C40   C44   1.387837 A    
O9    V1    1.999345 S    
C23   H8    1.077051 S    
C14   C18   1.391189 A    
C78   H30   1.082903 S    
C48   O24   1.349079 S    
N2    C93   1.445609 S    
C58   C62   1.408535 A    
O4    C8    1.334153 A    
N3    C51   1.372004 A    
C44   H4    1.084402 S    
C43   H3    1.084403 S    
C74   C94   1.417404 A    
N2    C50   1.372236 A    
C45   C61   1.409185 A    
O1    V3    1.986786 S    
O13   V1    1.972283 S    
C31   C43   1.393872 A    
O2    V4    1.986785 S    
C47   C63   1.409322 A    
O3    V1    1.987146 S    
C81   C85   1.404925 A    
N8    O35   1.301492 A    
C73   C77   1.409164 A    
C28   C36   1.438421 A    
C69   H25   1.083013 S    
C56   C68   1.406099 A    
C75   C79   1.409332 A    
C1    O15   1.326067 A    
C52   C56   1.409466 A    
C15   C31   1.403653 A    
C84   C88   1.404684 A    
C2    O16   1.326068 A    
C16   C32   1.403680 A    
N4    C95   1.445154 S    
C68   H24   1.083074 S    
O2    C6    1.334303 A    
C59   C60   1.417892 A    
C75   C95   1.417102 A    
C10   C22   1.407203 A    
C83   C87   1.404687 A    
C11   C19   1.395117 A    
N3    C96   1.445145 S    
C73   C93   1.417076 A    
C70   H26   1.083015 S    
C77   H29   1.083041 S    
C13   C29   1.403651 A    
C34   C37   1.411008 A    
O11   C7    1.332625 A    
O15   V3    1.974113 S    
C35   C36   1.438284 A    
O12   C8    1.332634 A    
C47   O23   1.349074 S    
C14   H14   1.083962 S    
C85   H33   1.083050 S    
C46   O22   1.349047 S    
C24   H7    1.077045 S    
C13   H13   1.083963 S    
O10   V2    1.999345 S    
C62   C69   1.406222 A    
C61   C70   1.406211 A    
C46   N2    1.372168 A    
O5    V1    1.990176 S    
N5    O30   1.301543 A    
C53   C57   1.408726 A    
C39   C43   1.387815 A    
N1    C94   1.445729 S    
O7    V3    1.993401 S    
C38   C42   1.387834 A    
C87   H35   1.083062 S    
C26   C34   1.438431 A    
C88   H36   1.083057 S    
C49   O25   1.349027 S    
C74   C78   1.410300 A    
C17   H10   1.083675 S    
C90   H38   1.082717 S    
O18   V4    1.771414 S    
C48   C64   1.409319 A    
C15   C19   1.391166 A    
C91   C95   1.403093 A    
C87   C91   1.398706 A    
C19   H12   1.083675 S    
C50   C54   1.409333 A    
C47   N3    1.372023 A    
C45   N1    1.372228 A    
C71   H27   1.083052 S    
C68   C72   1.398544 A    
C85   C89   1.398427 A    
C21   H6    1.077036 S    
C72   H28   1.083053 S    
O8    V4    1.993408 S    
C55   C67   1.406101 A    
O5    C1    1.330196 A    
C9    C21   1.407211 A    
C54   C66   1.406046 A    
C37   C41   1.387816 A    
C2    C83   1.489504 S    
C3    C82   1.491156 S    
O7    C3    1.329960 A    
C90   C94   1.402157 A    
C24   C28   1.427045 A    
C91   H39   1.082392 S    
O8    C4    1.329794 A    
C7    C10   1.474734 S    
C21   C25   1.427069 A    
O9    C5    1.332748 A    
C66   C70   1.398455 A    
C37   H17   1.076143 S    
C51   O27   1.349056 S    
C92   H40   1.082397 S    
N6    O31   1.301194 A    
O6    V2    1.990176 S    
C67   C71   1.398543 A    
C74   N6    1.440290 S    
O14   V2    1.972288 S    
C65   C69   1.398549 A    
C12   C20   1.395139 A    
C27   C35   1.438433 A    
C46   C62   1.409331 A    
N1    C49   1.372273 A    
C56   C60   1.408867 A    
C29   C41   1.393869 A    
O16   V4    1.974110 S    
C50   O26   1.349037 S    
C92   C96   1.403091 A    
C57   C61   1.408473 A    
C3    O13   1.326984 A    
C39   H19   1.076156 S    
C52   O28   1.349061 S    
C59   C63   1.408636 A    
C4    C81   1.489333 S    
C86   C90   1.397066 A    
C20   H11   1.083713 S    
C76   C80   1.409336 A    
O6    C2    1.330194 A    
C64   C71   1.406235 A    
C23   C27   1.427063 A    
O11   V3    1.998528 S    
C30   C42   1.393889 A    
O12   V4    1.998530 S    
C57   C58   1.417815 A    
C22   C26   1.427073 A    
C76   N8    1.441338 S    
C8    C9    1.474691 S    
C14   C30   1.403660 A    
C9    C17   1.395110 A    
O10   C6    1.332790 A    
O20   V2    1.772937 S    
C73   N5    1.440591 S    
C89   C93   1.402908 A    
C80   C84   1.407987 A    
C32   C44   1.393886 A    
C78   C82   1.408189 A    
C33   C34   1.438286 A    
C77   C81   1.407795 A    
C45   O21   1.349071 S    
C41   H1    1.084389 S    
N4    C52   1.371996 A    
C79   C83   1.407986 A    
C12   C24   1.407171 A    
C27   C31   1.419563 A    
C13   C17   1.391166 A    
N8    O36   1.301092 A    
C75   N7    1.441249 S    
C15   H15   1.083982 S    
N7    O33   1.301208 A    
C60   C64   1.408637 A    
C16   C20   1.391189 A    
C42   H2    1.084391 S    
C88   C92   1.398702 A    
C18   H9    1.083672 S    
C76   C96   1.417139 A    
C82   C86   1.406066 A    
C54   C58   1.408746 A    
C4    O14   1.326247 A    
C86   H34   1.082983 S    
C63   C72   1.406232 A    
C55   C59   1.408867 A    
C40   H20   1.076162 S    
C22   H5    1.077021 S    
C49   C53   1.409455 A    
C28   C32   1.419560 A    
N6    O32   1.301490 A    
N7    O34   1.301508 A    
