data_mof_unit_29501.cif
_audit_creation_date              2013-03-05T15:40:45-0500
_audit_creation_method            fapswitch 2.2
_symmetry_space_group_name_H-M    P1
_symmetry_Int_Tables_number       1
_space_group_crystal_system       triclinic
_cell_length_a                    6.940351
_cell_length_b                    17.366182
_cell_length_c                    24.042718
_cell_angle_alpha                 104.119738
_cell_angle_beta                  90.428758
_cell_angle_gamma                 90.122575
_cell_volume                      2810.15565974

loop_
_atom_site_label
_atom_site_type_symbol
_atom_site_description
_atom_site_fract_x
_atom_site_fract_y
_atom_site_fract_z
_atom_type_partial_charge
O1    O     O_R   0.494290 0.391990 0.999150 -0.523878
O2    O     O_R   0.827170 0.534410 0.082350 -0.552583
O3    O     O_R   0.994360 0.608010 0.000850 -0.535068
C1    C     C_R   0.658738 0.548954 0.106117 0.923981
O4    O     O_R   0.824210 0.388010 0.004470 -0.515053
O5    O     O_R   0.991370 0.460560 0.922410 -0.539488
C2    C     C_R   0.653670 0.355149 0.001977 0.945433
O6    O     O_R   0.497270 0.539440 0.077590 -0.540339
O7    O     O_3   0.659770 0.523970 0.973170 -0.257422
V1    V     V_3+5 0.935840 0.495550 0.004980 1.334323
O8    O     O_R   0.320910 0.465590 0.917650 -0.549777
C3    C     C_R   0.151412 0.447061 0.894320 0.899930
O9    O     O_R   0.323870 0.611990 0.995530 -0.534288
C4    C     C_R   0.153931 0.645287 0.999189 0.869030
V2    V     V_3+5 0.435470 0.504450 0.995020 1.326609
O10   O     O_3   0.161670 0.476030 0.026830 -0.234046
C5    C     C_2   0.138694 0.730573 0.999236 -0.257898
H1    H     H_    0.271657 0.760887 0.993841 0.142125
C6    C     C_2   0.968735 0.771046 0.004357 0.171650
C7    C     C_R   0.135289 0.228171 0.627655 0.665963
N1    N     N_R   0.100646 0.307288 0.650410 -0.444943
C8    C     C_R   0.046462 0.355599 0.615895 0.632933
C9    C     C_R   0.034223 0.325704 0.556127 -0.046679
C10   C     C_R   0.059360 0.243776 0.532220 -0.079839
C11   C     C_R   0.096962 0.192937 0.568715 -0.136210
C12   C     C_R   0.992518 0.376000 0.520195 -0.021575
C13   C     C_R   0.983716 0.347206 0.460808 0.249390
C14   C     C_R   0.016581 0.265601 0.435716 -0.059774
C15   C     C_R   0.044271 0.213161 0.471990 -0.099589
C16   C     C_R   0.055603 0.130489 0.448044 -0.135087
C17   C     C_R   0.088227 0.078755 0.484815 0.297989
C18   C     C_R   0.098679 0.109435 0.545293 0.305377
C19   C     C_R   0.022683 0.234099 0.375763 0.590788
N2    N     N_R   0.020348 0.153813 0.353033 -0.453580
C20   C     C_R   0.023854 0.102228 0.387976 0.659433
O11   O     O_2   0.210866 0.184596 0.661755 -0.428464
O12   O     O_2   0.006321 0.432643 0.639345 -0.485425
H2    H     H_    0.965648 0.438495 0.538213 0.163564
O13   O     O_2   0.035036 0.282748 0.340047 -0.470047
O14   O     O_2   0.991295 0.024442 0.364660 -0.430765
C21   C     C_R   0.151180 0.078876 0.258765 0.240672
C22   C     C_R   0.135173 0.055616 0.198773 -0.123616
H3    H     H_    0.249348 0.020385 0.174709 0.133513
C23   C     C_R   0.974937 0.077302 0.169733 -0.139271
C24   C     C_R   0.829057 0.123896 0.202491 0.142267
C25   C     C_R   0.844493 0.146057 0.262390 0.000173
H4    H     H_    0.733014 0.182460 0.286907 0.137531
C26   C     C_R   0.004091 0.124250 0.291278 0.204818
C27   C     C_R   0.267674 0.392600 0.735162 0.230479
C28   C     C_R   0.278300 0.426166 0.794336 -0.112376
H5    H     H_    0.395470 0.466629 0.811184 0.156105
C29   C     C_R   0.138078 0.409435 0.831549 -0.217483
C30   C     C_R   0.986005 0.356331 0.808258 0.293496
C31   C     C_R   0.976003 0.321625 0.748808 0.166879
C32   C     C_R   0.116206 0.340041 0.711768 0.150761
C33   C     C_R   0.537523 0.896423 0.611070 0.653860
N3    N     N_R   0.513208 0.846032 0.646518 -0.449275
C34   C     C_R   0.504990 0.765539 0.624537 0.604774
C35   C     C_R   0.500017 0.732576 0.564748 -0.102597
C36   C     C_R   0.538305 0.782875 0.527953 -0.093759
C37   C     C_R   0.555264 0.866256 0.550778 -0.039997
C38   C     C_R   0.453778 0.651578 0.540625 0.173986
C39   C     C_R   0.478731 0.618471 0.481385 0.322159
C40   C     C_R   0.541918 0.666942 0.445328 -0.122135
C41   C     C_R   0.558005 0.749662 0.468123 -0.080034
C42   C     C_R   0.593110 0.799255 0.430906 -0.048610
C43   C     C_R   0.604294 0.881379 0.453324 0.064524
C44   C     C_R   0.585391 0.915474 0.512023 0.286764
C45   C     C_R   0.584704 0.635706 0.386494 0.657745
N4    N     N_R   0.612486 0.684953 0.350523 -0.434527
C46   C     C_R   0.613080 0.765712 0.371580 0.697171
O15   O     O_2   0.543765 0.975131 0.634363 -0.434240
O16   O     O_2   0.511325 0.717533 0.660881 -0.478782
O17   O     O_2   0.603301 0.556747 0.365406 -0.444146
O18   O     O_2   0.633043 0.813479 0.335344 -0.463850
H6    H     H_    0.629718 0.920100 0.424955 0.182037
C47   C     C_R   0.796705 0.660910 0.258317 0.398805
C48   C     C_R   0.801513 0.627649 0.198641 -0.125774
H7    H     H_    0.926269 0.638173 0.174652 0.163089
C49   C     C_R   0.649874 0.579943 0.169675 -0.217119
C50   C     C_R   0.489158 0.565373 0.201747 0.288831
C51   C     C_R   0.478285 0.603239 0.260322 -0.031448
H8    H     H_    0.353217 0.593445 0.284452 0.181129
C52   C     C_R   0.629946 0.650394 0.289345 0.128174
C53   C     C_R   0.337554 0.853732 0.737118 -0.015701
H9    H     H_    0.228843 0.814599 0.712637 0.145854
C54   C     C_R   0.325917 0.875648 0.797264 0.303298
C55   C     C_R   0.466977 0.927435 0.829777 -0.252754
C56   C     C_R   0.619042 0.955168 0.800086 0.286204
C57   C     C_R   0.633955 0.927395 0.740185 0.004744
H10   H     H_    0.754398 0.946149 0.718226 0.164291
C58   C     C_R   0.493629 0.877096 0.708148 0.145372
C59   C     C_2   0.638681 0.270055 0.002353 -0.215878
H11   H     H_    0.773210 0.238617 0.003579 0.134590
C60   C     C_2   0.468073 0.230191 0.999749 0.172060
O19   O     O_R   0.618210 0.960470 0.922400 -0.528506
O20   O     O_R   0.291310 0.111960 0.995450 -0.526795
O21   O     O_R   0.124210 0.039530 0.077580 -0.564812
C61   C     C_R   0.460769 0.144847 0.998579 0.853140
O22   O     O_R   0.288310 0.965490 0.917650 -0.515821
O23   O     O_R   0.121180 0.892010 0.999220 -0.572912
C62   C     C_R   0.456923 0.952225 0.893804 0.945904
O24   O     O_R   0.621230 0.107990 0.000760 -0.565080
O25   O     O_3   0.455770 0.976060 0.026840 -0.284692
V3    V     V_3+5 0.179680 0.004440 0.995020 1.290766
O26   O     O_R   0.791670 0.888040 0.004570 -0.530650
C63   C     C_R   0.960731 0.855198 0.001824 0.837041
O27   O     O_R   0.794680 0.034510 0.082370 -0.552582
C64   C     C_R   0.963756 0.050288 0.106027 0.854748
V4    V     V_3+5 0.680070 0.995560 0.005010 1.272178
O28   O     O_3   0.953840 0.023940 0.973160 -0.233393
I1    I     I_    0.485640 0.423630 0.683052 -0.228849
N5    N     N_R   0.844737 0.334982 0.844978 0.106108
O29   O     O_R   0.669023 0.360801 0.844812 -0.352737
O30   O     O_R   0.889640 0.286959 0.876863 -0.281448
I2    I     I_    0.748631 0.239550 0.715810 -0.089351
I3    I     I_    0.295630 0.582678 0.588349 -0.141856
N6    N     N_R   0.416635 0.538307 0.457081 0.128506
O31   O     O_R   0.288148 0.523931 0.416193 -0.272237
O32   O     O_R   0.479181 0.480210 0.477623 -0.312266
I4    I     I_    0.603742 0.042217 0.533328 -0.217394
N7    N     N_R   0.963131 0.702983 0.286651 0.119742
O33   O     O_R   0.082335 0.736850 0.258361 -0.315227
O34   O     O_R   0.008481 0.700160 0.338734 -0.337895
N8    N     N_R   0.790018 0.734092 0.013148 0.096758
O35   O     O_R   0.654690 0.724771 0.974340 -0.339422
O36   O     O_R   0.750709 0.723138 0.063496 -0.374912
N9    N     N_R   0.342254 0.508702 0.176695 0.112088
O37   O     O_R   0.390528 0.440356 0.143822 -0.300926
O38   O     O_R   0.166270 0.518420 0.195289 -0.333715
N10   N     N_R   0.176078 0.841043 0.824420 0.114328
O39   O     O_R   0.218162 0.808631 0.866388 -0.357347
O40   O     O_R   0.005875 0.828796 0.800775 -0.331331
N11   N     N_R   0.755418 0.013773 0.829592 0.123646
O41   O     O_R   0.695308 0.077337 0.865962 -0.321037
O42   O     O_R   0.933736 0.010924 0.812870 -0.298667
N12   N     N_R   0.286909 0.269755 0.999553 0.090859
O43   O     O_R   0.178254 0.252212 0.953897 -0.297420
O44   O     O_R   0.213793 0.308758 0.047864 -0.293702
I5    I     I_    0.891702 0.431657 0.415412 -0.034827
N13   N     N_R   0.120817 0.995666 0.460800 0.142375
O45   O     O_R   0.262739 0.973154 0.425624 -0.301725
O46   O     O_R   0.006501 0.942391 0.472342 -0.322638
N14   N     N_R   0.091658 0.055885 0.582747 0.151204
O47   O     O_R   0.966305 0.067101 0.623910 -0.252528
O48   O     O_R   0.193257 0.991307 0.572494 -0.294530
I6    I     I_    0.405968 0.047240 0.297077 -0.266489
I7    I     I_    0.589020 0.170793 0.166209 -0.313159

loop_
_geom_bond_atom_site_label_1
_geom_bond_atom_site_label_2
_geom_bond_distance
_ccdc_geom_bond_type
O23   C63   1.292352 A    
C61   O24   1.292759 A    
C54   C55   1.421310 A    
C59   H11   1.086421 S    
N3    C58   1.455457 S    
O19   C62   1.298458 A    
C24   I7    2.128456 S    
C21   C22   1.403221 A    
C31   C32   1.411647 A    
C1    O6    1.298448 A    
N9    O37   1.301383 A    
C50   C51   1.404056 A    
C57   H10   1.082984 S    
C47   C48   1.410597 A    
O27   C64   1.299297 A    
N12   O44   1.300718 A    
C12   C13   1.393801 A    
C15   C16   1.413071 A    
O21   V3    1.970260 S    
C16   C20   1.422712 A    
O24   V4    2.022255 S    
C14   C15   1.418665 A    
C1    C49   1.492923 S    
N13   O46   1.299191 A    
O5    C3    1.296120 A    
C16   C17   1.423178 A    
C49   C50   1.417628 A    
C48   C49   1.408107 A    
O26   C63   1.300782 A    
V2    O10   2.154398 S    
C33   N3    1.373346 A    
N2    C20   1.369643 A    
C9    C12   1.399465 A    
C54   N10   1.437997 S    
N6    O31   1.300037 A    
C38   I3    2.153133 S    
C47   N7    1.440089 S    
C3    C29   1.493202 S    
V4    O28   2.154397 S    
O8    V2    1.977613 S    
C17   C18   1.422568 A    
C33   O15   1.345257 S    
C31   I2    2.138024 S    
C28   C29   1.403799 A    
C9    C10   1.410197 A    
N4    C46   1.369952 A    
O1    V2    2.021917 S    
N4    C52   1.452814 S    
O7    V1    2.160078 S    
O20   V3    2.017695 S    
C23   C64   1.489818 S    
C11   C18   1.421915 A    
C42   C43   1.397990 A    
V3    O28   1.710104 S    
C35   C36   1.412717 A    
C59   C60   1.363621 D    
O21   C64   1.301058 A    
C46   O18   1.349160 S    
O9    C4    1.308745 A    
C4    C5    1.484816 S    
C22   C23   1.408743 A    
O25   V3    2.160077 S    
O20   C61   1.299964 A    
C53   C58   1.403716 A    
C30   N5    1.431514 S    
C5    H1    1.085625 S    
C53   C54   1.405645 A    
O23   V3    2.020058 S    
C2    C59   1.483432 S    
C25   C26   1.404051 A    
C60   N12   1.434632 S    
C43   C44   1.398183 A    
C10   C11   1.411746 A    
N14   O48   1.298766 A    
C56   C57   1.407493 A    
N1    C32   1.448935 S    
C39   N6    1.435977 S    
C48   H7    1.083500 S    
C12   H2    1.083044 S    
N11   O42   1.301431 A    
C47   C52   1.416987 A    
C28   H5    1.083001 S    
C34   C35   1.411713 A    
C27   C32   1.411082 A    
C8    O12   1.349633 S    
O19   V4    1.973863 S    
C6    N8    1.435859 S    
C36   C37   1.422087 A    
C17   N13   1.436473 S    
O2    C1    1.302945 A    
O5    V1    1.970460 S    
C38   C39   1.411999 A    
C57   C58   1.400602 A    
C42   C46   1.411022 A    
C21   I6    2.122247 S    
O22   C62   1.303062 A    
C19   N2    1.367799 A    
O22   V3    1.973702 S    
C45   O17   1.347777 S    
C19   O13   1.346576 S    
C40   C45   1.419836 A    
C55   C56   1.425551 A    
C53   H9    1.083305 S    
O3    C4    1.287394 A    
C27   I1    2.121971 S    
C36   C41   1.420955 A    
C41   C42   1.407161 A    
O6    V2    1.972776 S    
C51   C52   1.404270 A    
O9    V2    2.020642 S    
C50   N9    1.438120 S    
N8    O35   1.300563 A    
N2    C26   1.451247 S    
C22   H3    1.083162 S    
N7    O34   1.301400 A    
N10   O39   1.301414 A    
O2    V1    1.973633 S    
C29   C30   1.418818 A    
O4    C2    1.307489 A    
N5    O29   1.300541 A    
O26   V4    2.020689 S    
C25   H4    1.082971 S    
C35   C38   1.419582 A    
C56   N11   1.438227 S    
O1    C2    1.288657 A    
C8    C9    1.405585 A    
C23   C24   1.415851 A    
N14   O47   1.301469 A    
N10   O40   1.301413 A    
N9    O38   1.300920 A    
C44   I4    2.137968 S    
C14   C19   1.412469 A    
C55   C62   1.496094 S    
O8    C3    1.304786 A    
C30   C31   1.410375 A    
N11   O41   1.301421 A    
N12   O43   1.299955 A    
C13   I5    2.127078 S    
C40   C41   1.410928 A    
C20   O14   1.348111 S    
O7    V2    1.706205 S    
O4    V1    2.017588 S    
O3    V1    2.020115 S    
V1    O10   1.710051 S    
N13   O45   1.300416 A    
O25   V4    1.705935 S    
C37   C44   1.425915 A    
N3    C34   1.369432 A    
C5    C6    1.365306 D    
C21   C26   1.410311 A    
O27   V4    1.977720 S    
C60   C61   1.476244 S    
C45   N4    1.370839 A    
N6    O32   1.300800 A    
C18   N14   1.444688 S    
C39   C40   1.418637 A    
C7    O11   1.348301 S    
C24   C25   1.400229 A    
C10   C15   1.418608 A    
C7    N1    1.371670 A    
C27   C28   1.401056 A    
C7    C11   1.422624 A    
C13   C14   1.417986 A    
N8    O36   1.301150 A    
C33   C37   1.422423 A    
C43   H6    1.083309 S    
C51   H8    1.083509 S    
N7    O33   1.301735 A    
N1    C8    1.367602 A    
C34   O16   1.347413 S    
N5    O30   1.299916 A    
C6    C63   1.478584 S    
