data_mof_unit_17375.cif
_audit_creation_date              2012-12-10T17:48:46-0500
_audit_creation_method            fapswitch 2.2
_symmetry_space_group_name_H-M    P1
_symmetry_Int_Tables_number       1
_space_group_crystal_system       triclinic
_cell_length_a                    15.706562
_cell_length_b                    10.645456
_cell_length_c                    9.959759
_cell_angle_alpha                 90.521935
_cell_angle_beta                  89.910397
_cell_angle_gamma                 92.572835
_cell_volume                      1663.5578851

loop_
_atom_site_label
_atom_site_type_symbol
_atom_type_description
_atom_site_fract_x
_atom_site_fract_y
_atom_site_fract_z
_atom_type_partial_charge
C1    C     C_R   0.503725 0.260858 0.499628 0.873997
C2    C     C_R   0.703998 0.081065 0.711043 -0.134245
C3    C     C_R   0.703874 0.950366 0.711978 -0.140641
C4    C     C_R   0.338791 0.503838 0.500201 0.954805
C5    C     C_R   0.640651 0.879662 0.643419 -0.197738
C6    C     C_R   0.575373 0.939493 0.574066 0.099787
C7    C     C_R   0.575523 0.071471 0.572992 0.095350
C8    C     C_R   0.511397 0.128696 0.498913 -0.115052
C9    C     C_R   0.451953 0.058773 0.422897 -0.220357
C10   C     C_R   0.451376 0.930941 0.424365 -0.213651
C11   C     C_R   0.510965 0.871867 0.501338 -0.093905
C12   C     C_3   0.948551 0.411501 0.606695 -0.396350
C13   C     C_R   0.424913 0.292780 0.136584 0.479505
C14   C     C_R   0.438843 0.177883 0.072894 -0.265531
C15   C     C_R   0.437825 0.174724 0.932898 -0.254143
C16   C     C_R   0.504291 0.739258 0.500591 0.848526
C17   C     C_R   0.426212 0.287527 0.864279 0.216156
C18   C     C_R   0.461030 0.399384 0.927559 0.108327
C19   C     C_R   0.461059 0.400244 0.071680 0.032247
C20   C     C_R   0.536174 0.596451 0.072079 -0.084666
C21   C     C_R   0.536049 0.596517 0.929365 -0.103358
C22   C     C_R   0.661446 0.500133 0.499903 0.865122
C23   C     C_3   0.917240 0.504109 0.500874 0.207833
C24   C     C_3   0.047479 0.408693 0.603212 -0.058868
C25   C     C_3   0.048221 0.474678 0.356571 0.263040
C26   C     C_3   0.949581 0.463642 0.360948 -0.448655
C27   C     C_1   0.750316 0.500386 0.500030 -0.176690
C28   C     C_3   0.083128 0.509758 0.500802 0.099756
C29   C     C_3   0.076835 0.273117 0.574730 -0.418558
C30   C     C_3   0.063340 0.187342 0.696096 -0.857761
C31   C     C_3   0.344346 0.284923 0.781161 -0.322164
C32   C     C_3   0.280243 0.380536 0.828385 -0.757790
C33   C     C_3   0.090598 0.701685 0.675192 -0.461767
C34   C     C_3   0.952207 0.639121 0.534904 -0.381355
C35   C     C_3   0.039823 0.685104 0.806048 -0.710853
C36   C     C_3   0.051215 0.642573 0.542864 -0.002749
C37   C     C_1   0.825691 0.501431 0.500520 -0.072633
C38   C     C_1   0.174935 0.510596 0.499977 -0.062183
C39   C     C_1   0.250183 0.508318 0.500199 -0.070153
C40   C     C_R   0.640905 0.141627 0.641540 -0.180396
H1    H     H_    0.918278 0.316592 0.586750 0.183530
H2    H     H_    0.403026 0.877700 0.367308 0.179845
H3    H     H_    0.566370 0.675095 0.125867 0.144967
H4    H     H_    0.424461 0.090549 0.124718 0.186446
H5    H     H_    0.424019 0.084964 0.883563 0.174548
H6    H     H_    0.566128 0.675180 0.876812 0.144568
H7    H     H_    0.071750 0.381388 0.327178 0.089352
H8    H     H_    0.927929 0.364379 0.339829 0.148439
H9    H     H_    0.920551 0.521109 0.281885 0.232646
H10   H     H_    0.074645 0.708957 0.464186 0.203870
H11   H     H_    0.922044 0.672163 0.628495 0.184391
H12   H     H_    0.072700 0.435625 0.704027 0.196821
H13   H     H_    0.100257 0.225308 0.783620 0.264992
H14   H     H_    0.994880 0.177973 0.723674 0.258617
H15   H     H_    0.085715 0.092348 0.671469 0.257032
H16   H     H_    0.041686 0.230239 0.487792 0.218466
H17   H     H_    0.145742 0.274495 0.549622 0.236275
H18   H     H_    0.197598 0.206208 0.143339 0.369614
H19   H     H_    0.310030 0.476387 0.840523 0.276676
H20   H     H_    0.251495 0.351411 0.925151 0.296583
H21   H     H_    0.227895 0.384174 0.754259 0.219577
H22   H     H_    0.356526 0.291698 0.672852 0.228406
H23   H     H_    0.926961 0.439793 0.708485 0.170123
H24   H     H_    0.310090 0.191371 0.788916 0.194841
H25   H     H_    0.113808 0.433200 0.080706 0.363657
H26   H     H_    0.987066 0.750991 0.810402 0.230851
H27   H     H_    0.013861 0.587967 0.819269 0.263740
H28   H     H_    0.082373 0.708773 0.892459 0.299931
H29   H     H_    0.155131 0.666813 0.692486 0.221495
H30   H     H_    0.100577 0.804776 0.660335 0.211628
H31   H     H_    0.932420 0.704499 0.455278 0.185862
H32   H     H_    0.404273 0.102419 0.364522 0.217012
H33   H     H_    0.645163 0.243149 0.640005 0.155279
H34   H     H_    0.753805 0.135775 0.762827 0.136026
H35   H     H_    0.753559 0.903588 0.764544 0.136773
H36   H     H_    0.644612 0.778552 0.643403 0.146786
N1    N     N_R   0.499210 0.498800 0.142780 -0.118218
N2    N     N_R   0.499180 0.498720 0.857170 -0.112676
O1    O     O_R   0.500000 0.316780 0.614690 -0.641922
O2    O     O_2   0.285149 0.426570 0.170491 -0.286544
O3    O     O_3   0.256508 0.190357 0.114144 -0.583354
O4    O     O_2   0.030212 0.692862 0.218363 -0.311519
O5    O     O_2   0.175445 0.623399 0.240250 -0.252771
O6    O     O_3   0.073304 0.501678 0.075778 -0.560753
O7    O     O_R   0.499990 0.316750 0.385360 -0.617193
O8    O     O_R   0.377150 0.500020 0.614720 -0.647369
O9    O     O_R   0.377140 0.499990 0.385380 -0.507609
O10   O     O_R   0.500010 0.683250 0.614640 -0.625552
O11   O     O_R   0.500000 0.683220 0.385310 -0.623011
O12   O     O_R   0.622860 0.500010 0.614620 -0.628467
O13   O     O_R   0.622850 0.499980 0.385280 -0.614077
O14   O     O_2   0.312464 0.270318 0.343267 -0.374546
S1    S     S_3+6 0.318430 0.298880 0.196243 -0.013470
S2    S     S_3+6 0.083852 0.579512 0.222903 0.007200
Zn1   Zn    Zn3+2 0.500010 0.500020 0.653130 0.934221
Zn2   Zn    Zn3+2 0.499990 0.499980 0.346870 1.005730

loop_
_geom_bond_atom_site_label_1
_geom_bond_atom_site_label_2
_ccdc_geom_bond_type
C24   H12   S    
O4    S2    D    
C10   H2    S    
C1    C8    S    
C5    H36   S    
C9    H32   S    
C7    C8    A    
C4    O9    A    
C25   C28   S    
C30   H14   S    
C12   C23   S    
C34   H11   S    
C29   C30   S    
C20   N1    A    
C32   H21   S    
C5    C6    A    
O7    Zn2   S    
C4    O8    A    
C33   C36   S    
C40   H33   S    
C18   C19   A    
C23   C26   S    
C19   N1    A    
C24   C29   S    
O13   Zn2   S    
C8    C9    A    
C21   N2    A    
C7    C40   A    
C35   H27   S    
C3    H35   S    
C9    C10   A    
C25   H7    S    
C2    H34   S    
C26   H8    S    
O10   Zn1   S    
C16   O11   A    
C13   C14   A    
C31   H22   S    
C1    O7    A    
C30   H13   S    
C13   C19   A    
O12   Zn1   S    
C10   C11   A    
C26   H9    S    
C6    C11   A    
C12   H23   S    
H25   O6    S    
C35   H26   S    
C25   C26   S    
C23   C37   S    
O5    S2    D    
C13   S1    S    
O1    Zn1   S    
C12   H1    S    
O3    S1    S    
C11   C16   S    
C31   C32   S    
C4    C39   S    
C28   C38   S    
N2    Zn1   S    
C22   O13   A    
C23   C34   S    
O9    Zn2   S    
C17   C18   A    
C22   O12   A    
O6    S2    S    
C33   H30   S    
C18   N2    A    
C29   H17   S    
C22   C27   S    
C1    O1    A    
H18   O3    S    
C32   H20   S    
C20   H3    S    
C36   H10   S    
C14   H4    S    
C21   H6    S    
C15   C17   A    
C31   H24   S    
C24   C28   S    
C3    C5    A    
C6    C7    A    
C29   H16   S    
C33   H29   S    
C30   H15   S    
C12   C24   S    
N1    Zn2   S    
O11   Zn2   S    
C2    C3    A    
C38   C39   T    
C35   H28   S    
C27   C37   T    
C17   C31   S    
O14   S1    D    
C33   C35   S    
C34   C36   S    
O8    Zn1   S    
C2    C40   A    
C25   S2    S    
C20   C21   A    
C28   C36   S    
C16   O10   A    
C15   H5    S    
C14   C15   A    
C32   H19   S    
O2    S1    D    
C34   H31   S    
