data_mof_unit_16155.cif
_audit_creation_date              2013-03-05T16:50:06-0500
_audit_creation_method            fapswitch 2.2
_symmetry_space_group_name_H-M    P1
_symmetry_Int_Tables_number       1
_space_group_crystal_system       triclinic
_cell_length_a                    27.819948
_cell_length_b                    10.79721
_cell_length_c                    26.561942
_cell_angle_alpha                 89.463941
_cell_angle_beta                  90.715603
_cell_angle_gamma                 88.674329
_cell_volume                      7975.48937602

loop_
_atom_site_label
_atom_site_type_symbol
_atom_site_description
_atom_site_fract_x
_atom_site_fract_y
_atom_site_fract_z
_atom_type_partial_charge
O1    O     O_R   0.500000 0.319660 0.542350 -0.528003
O2    O     O_R   0.500000 0.680340 0.457650 -0.576519
O3    O     O_R   0.500000 0.319630 0.457650 -0.579604
O4    O     O_R   0.500000 0.680370 0.542350 -0.594903
C1    C     C_R   0.497989 0.262365 0.500147 0.810291
C2    C     C_R   0.502126 0.737709 0.499979 0.774047
O5    O     O_R   0.430260 0.500030 0.542340 -0.533082
O6    O     O_R   0.569740 0.499970 0.457660 -0.603594
O7    O     O_R   0.430270 0.500010 0.457650 -0.533884
O8    O     O_R   0.569730 0.499990 0.542350 -0.546339
C3    C     C_R   0.407184 0.499808 0.499804 0.818369
C4    C     C_R   0.592380 0.499033 0.500091 0.855043
Cu1   Cu    Cu3+1 0.500000 0.500020 0.550150 1.015250
Cu2   Cu    Cu3+1 0.500000 0.499980 0.449850 0.981321
O9    O     O_2   0.425026 0.636840 0.787085 -0.541260
O10   O     O_2   0.538425 0.299768 0.213005 -0.503362
C5    C     C_R   0.456794 0.700331 0.055433 -0.208994
C6    C     C_R   0.562868 0.351521 0.944267 -0.209320
H1    H     H_    0.478583 0.690371 0.628190 0.181026
H2    H     H_    0.571168 0.424362 0.372243 0.175200
C7    C     C_R   0.177101 0.418276 0.471115 0.536065
C8    C     C_R   0.821586 0.607684 0.512831 0.545174
O11   O     O_2   0.201919 0.324101 0.449701 -0.558304
O12   O     O_2   0.796671 0.707713 0.529361 -0.547638
N1    N     N_R   0.201113 0.514061 0.492285 -0.458662
N2    N     N_R   0.797947 0.503564 0.498289 -0.452032
C9    C     C_R   0.177064 0.611593 0.513912 0.580852
C10   C     C_R   0.823319 0.399525 0.483583 0.583122
C11   C     C_R   0.276396 0.495146 0.540830 -0.230561
C12   C     C_R   0.721958 0.400712 0.519147 -0.223161
C13   C     C_R   0.327155 0.494312 0.544365 0.426311
C14   C     C_R   0.671660 0.393506 0.515357 0.383956
C15   C     C_R   0.329255 0.511787 0.452687 -0.325060
C16   C     C_R   0.668299 0.600935 0.479444 -0.334712
C17   C     C_R   0.279291 0.517088 0.450302 -0.135137
C18   C     C_R   0.718357 0.601216 0.477570 -0.098253
C19   C     C_R   0.252725 0.509228 0.494340 0.318540
C20   C     C_R   0.745886 0.502652 0.498827 0.277419
C21   C     C_R   0.101212 0.512877 0.496395 -0.112492
C22   C     C_R   0.898425 0.502115 0.500332 -0.114504
C23   C     C_R   0.126821 0.416077 0.472528 0.018008
C24   C     C_R   0.871883 0.610773 0.511538 0.005241
C25   C     C_R   0.101749 0.319448 0.450384 -0.176400
C26   C     C_R   0.896022 0.720770 0.520570 -0.143583
C27   C     C_R   0.126336 0.613504 0.516525 -0.175872
C28   C     C_R   0.874035 0.393872 0.487220 -0.158239
C29   C     C_R   0.353832 0.501257 0.499218 -0.120263
C30   C     C_R   0.644867 0.498894 0.499727 -0.105756
H3    H     H_    0.348612 0.515842 0.417742 0.228427
H4    H     H_    0.647771 0.679458 0.464233 0.154864
H5    H     H_    0.261169 0.526793 0.414115 0.154279
H6    H     H_    0.735591 0.678758 0.459761 0.168626
H7    H     H_    0.120363 0.247141 0.429776 0.180283
H8    H     H_    0.876417 0.807256 0.526299 0.203860
C31   C     C_R   0.975912 0.394083 0.489546 -0.081452
C32   C     C_R   0.024373 0.608902 0.521172 -0.092802
C33   C     C_R   0.973457 0.611677 0.515920 0.107021
C34   C     C_R   0.026072 0.403386 0.482007 0.128674
C35   C     C_R   0.949360 0.502485 0.501942 0.037927
C36   C     C_R   0.050457 0.508720 0.499791 0.037138
C37   C     C_R   0.951092 0.281248 0.485304 0.134891
C38   C     C_R   0.050437 0.701791 0.546511 0.145013
C39   C     C_R   0.900737 0.282533 0.479874 0.428198
C40   C     C_R   0.100365 0.709779 0.540527 0.423823
H9    H     H_    0.438619 0.779015 0.037779 0.144660
H10   H     H_    0.589569 0.290592 0.961811 0.138635
H11   H     H_    0.481907 0.703441 0.719680 0.203026
H12   H     H_    0.577318 0.435485 0.280597 0.192061
O13   O     O_2   0.799539 0.302586 0.464687 -0.539916
O14   O     O_2   0.202452 0.705360 0.533197 -0.503942
C41   C     C_R   0.052119 0.314619 0.454228 -0.168363
C42   C     C_R   0.945930 0.721904 0.520906 -0.143295
H13   H     H_    0.742485 0.324502 0.536083 0.173363
H14   H     H_    0.254579 0.484186 0.573916 0.133147
H15   H     H_    0.034255 0.242759 0.433675 0.170206
H16   H     H_    0.962525 0.811016 0.523304 0.209778
H17   H     H_    0.353471 0.234474 0.317608 0.125264
H18   H     H_    0.628337 0.721444 0.690596 0.139291
C43   C     C_R   0.369913 0.227302 0.396945 -0.110239
C44   C     C_R   0.618516 0.740144 0.610332 -0.096211
H19   H     H_    0.336662 0.273519 0.407403 0.155112
H20   H     H_    0.648167 0.677567 0.601658 0.144357
C45   C     C_R   0.402647 0.186423 0.434184 -0.111182
C46   C     C_R   0.591484 0.796359 0.571355 -0.105121
H21   H     H_    0.394156 0.200816 0.473417 0.109417
H22   H     H_    0.600878 0.777741 0.532717 0.095340
C47   C     C_R   0.445047 0.122260 0.420820 0.119342
C48   C     C_R   0.552495 0.876402 0.582207 0.110900
C49   C     C_R   0.454704 0.102362 0.369682 -0.137494
C50   C     C_R   0.542051 0.902399 0.632744 -0.188640
H23   H     H_    0.486975 0.052047 0.358698 0.136613
H24   H     H_    0.512452 0.964659 0.642023 0.134607
C51   C     C_R   0.422075 0.144517 0.332571 -0.140900
C52   C     C_R   0.569419 0.846771 0.671625 -0.148388
H25   H     H_    0.429417 0.127906 0.293259 0.153293
H26   H     H_    0.560964 0.866373 0.710447 0.135187
C53   C     C_R   0.379402 0.205292 0.346262 -0.158770
C54   C     C_R   0.607404 0.765064 0.660439 -0.094890
C55   C     C_R   0.481082 0.935341 0.460230 -0.240802
C56   C     C_R   0.519181 0.065184 0.540717 -0.235228
H27   H     H_    0.464780 0.884835 0.429982 0.157464
H28   H     H_    0.535224 0.116087 0.571105 0.206423
C57   C     C_R   0.503848 0.871658 0.500089 -0.069741
C58   C     C_R   0.496562 0.128617 0.500589 -0.089935
C59   C     C_R   0.523955 0.936979 0.540801 -0.006137
C60   C     C_R   0.476108 0.063228 0.460356 0.001529
H29   H     H_    0.411974 0.730806 0.965632 0.163425
H30   H     H_    0.566473 0.236947 0.034643 0.158106
C61   C     C_R   0.489395 0.606268 0.187055 0.621018
C62   C     C_R   0.531128 0.447427 0.812823 0.621103
O15   O     O_2   0.476800 0.710014 0.212083 -0.525262
O16   O     O_2   0.567990 0.394190 0.787816 -0.548810
N3    N     N_R   0.506145 0.503062 0.213191 -0.434211
N4    N     N_R   0.494986 0.510394 0.786742 -0.424205
C63   C     C_R   0.524010 0.402570 0.187303 0.554435
C64   C     C_R   0.460790 0.577224 0.812773 0.559197
C65   C     C_R   0.543731 0.462442 0.297971 -0.315779
C66   C     C_R   0.487521 0.614233 0.702207 -0.339381
C67   C     C_R   0.540463 0.458668 0.350651 -0.061156
C68   C     C_R   0.487545 0.607408 0.649464 -0.053943
C69   C     C_R   0.461271 0.543466 0.346406 0.499071
C70   C     C_R   0.512271 0.396861 0.653826 0.514318
C71   C     C_R   0.461106 0.532852 0.293137 0.284164
C72   C     C_R   0.500270 0.393603 0.705963 0.255209
C73   C     C_R   0.503802 0.499669 0.268191 0.212641
C74   C     C_R   0.493584 0.506150 0.731630 0.223594
C75   C     C_R   0.505022 0.505753 0.107099 -0.114878
C76   C     C_R   0.497345 0.510173 0.892892 -0.113272
C77   C     C_R   0.485358 0.605752 0.134096 -0.025660
C78   C     C_R   0.530849 0.438958 0.865738 -0.016119
C79   C     C_R   0.462237 0.703641 0.107695 -0.139119
C80   C     C_R   0.563926 0.361632 0.891938 -0.143027
C81   C     C_R   0.526547 0.404963 0.133840 -0.135739
C82   C     C_R   0.462553 0.583239 0.866350 -0.151566
N5    N     N_R   0.500000 0.499970 0.374520 -0.214168
N6    N     N_R   0.500000 0.500030 0.625480 -0.204128
H31   H     H_    0.447101 0.782344 0.127501 0.186517
H32   H     H_    0.590310 0.306210 0.871967 0.183577
C83   C     C_R   0.470417 0.594232 0.973826 -0.039063
C84   C     C_R   0.528227 0.414339 0.026223 -0.025650
C85   C     C_R   0.530192 0.423368 0.972702 0.086627
C86   C     C_R   0.476351 0.601475 0.027192 0.082741
C87   C     C_R   0.499136 0.508939 0.946617 0.074954
C88   C     C_R   0.503225 0.507149 0.053373 0.078341
C89   C     C_R   0.436312 0.668138 0.946700 -0.277190
C90   C     C_R   0.550050 0.314908 0.053538 -0.307027
C91   C     C_R   0.430409 0.658528 0.894346 0.503315
C92   C     C_R   0.549344 0.309241 0.106320 0.476872
Br1   Br    Br    0.981952 0.122572 0.500985 -0.528507
Br2   Br    Br    0.023241 0.800046 0.600195 -0.415981
O17   O     O_3   0.395103 0.731495 0.870848 -0.552408
C93   C     C_3   0.351968 0.664647 0.867087 0.143671
H33   H     H_    0.357737 0.562164 0.864516 0.125001
H34   H     H_    0.333302 0.694183 0.831617 0.189234
C94   C     C_3   0.318685 0.695147 0.910679 -0.866957
H35   H     H_    0.314525 0.797111 0.914686 0.266624
H36   H     H_    0.282776 0.655765 0.903353 0.221541
H37   H     H_    0.333290 0.654277 0.946325 0.237184
O18   O     O_3   0.569778 0.206610 0.130495 -0.530288
C95   C     C_3   0.619948 0.222251 0.134223 0.093348
H38   H     H_    0.628460 0.309581 0.154244 0.138325
H39   H     H_    0.636454 0.223685 0.096224 0.121245
C96   C     C_3   0.642340 0.114283 0.164090 -0.729266
H40   H     H_    0.635157 0.025727 0.144712 0.244765
H41   H     H_    0.681825 0.125634 0.167380 0.184740
H42   H     H_    0.626929 0.111076 0.202462 0.266302
O19   O     O_3   0.421431 0.592575 0.370277 -0.579915
C97   C     C_3   0.416072 0.720233 0.358597 0.086576
H43   H     H_    0.401319 0.734635 0.319911 0.204280
H44   H     H_    0.450930 0.768442 0.361655 0.129964
C98   C     C_3   0.380534 0.779611 0.394763 -0.805656
H45   H     H_    0.392163 0.761170 0.434332 0.253140
H46   H     H_    0.378412 0.881311 0.388087 0.218369
H47   H     H_    0.344258 0.741220 0.388702 0.246549
O20   O     O_3   0.537126 0.299297 0.631272 -0.580251
C99   C     C_3   0.574827 0.250292 0.662811 0.041079
H48   H     H_    0.563099 0.162468 0.680423 0.190030
H49   H     H_    0.586526 0.314677 0.692939 0.192919
C100  C     C_3   0.619293 0.222525 0.632150 -0.724666
H50   H     H_    0.633144 0.310503 0.616821 0.276044
H51   H     H_    0.647595 0.178474 0.656632 0.202925
H52   H     H_    0.610882 0.158253 0.601268 0.265373
O21   O     O_3   0.419994 0.561085 0.265148 -0.559932
C101  C     C_3   0.388741 0.460519 0.267913 0.059799
H53   H     H_    0.373597 0.452997 0.306347 0.168707
H54   H     H_    0.407460 0.371841 0.257837 0.144621
C102  C     C_3   0.347312 0.482418 0.230821 -0.769255
H55   H     H_    0.361284 0.489967 0.191941 0.254202
H56   H     H_    0.322310 0.403857 0.232725 0.195651
H57   H     H_    0.327376 0.569335 0.240175 0.251392
O22   O     O_3   0.500121 0.283077 0.732841 -0.563497
C103  C     C_3   0.461126 0.212133 0.716148 0.035678
H58   H     H_    0.464382 0.188276 0.675620 0.158528
H59   H     H_    0.426389 0.263028 0.722128 0.147217
C104  C     C_3   0.460678 0.091631 0.746223 -0.745407
H60   H     H_    0.456620 0.111579 0.786916 0.260897
H61   H     H_    0.430178 0.034731 0.733458 0.207960
H62   H     H_    0.494803 0.038389 0.740619 0.233171
O23   O     O_3   0.648111 0.283903 0.524834 -0.605215
C105  C     C_3   0.668259 0.186621 0.495837 0.075048
H63   H     H_    0.700685 0.146362 0.515301 0.177358
H64   H     H_    0.678118 0.218390 0.457267 0.157982
C106  C     C_3   0.631945 0.084633 0.489698 -0.792018
H65   H     H_    0.598602 0.122619 0.471402 0.253625
H66   H     H_    0.647172 0.009987 0.465781 0.204169
H67   H     H_    0.623361 0.044160 0.526921 0.245196
O24   O     O_3   0.351904 0.477840 0.590086 -0.570170
C107  C     C_3   0.327397 0.530242 0.631392 0.035450
H68   H     H_    0.300516 0.464238 0.645595 0.154276
H69   H     H_    0.309444 0.620763 0.621412 0.160007
C108  C     C_3   0.363264 0.553434 0.673717 -0.699793
H70   H     H_    0.388077 0.627024 0.662064 0.245933
H71   H     H_    0.343949 0.584555 0.707851 0.213587
H72   H     H_    0.384290 0.467296 0.682922 0.236872
O25   O     O_3   0.877442 0.171423 0.474530 -0.503775
C109  C     C_3   0.880003 0.134654 0.423686 0.126489
H73   H     H_    0.917932 0.120361 0.411741 0.139420
H74   H     H_    0.862154 0.205148 0.398398 0.142359
C110  C     C_3   0.854305 0.012792 0.417567 -0.719000
H75   H     H_    0.816123 0.024018 0.428754 0.261905
H76   H     H_    0.855618 0.983383 0.377651 0.180407
H77   H     H_    0.872062 0.939915 0.441542 0.246932
O26   O     O_3   0.123993 0.808134 0.561862 -0.504314
C111  C     C_3   0.120279 0.910171 0.528159 0.115703
H78   H     H_    0.082008 0.938666 0.521153 0.175348
H79   H     H_    0.137410 0.887505 0.491563 0.134790
C112  C     C_3   0.145987 0.019701 0.550781 -0.654421
H80   H     H_    0.184551 0.995252 0.557474 0.255393
H81   H     H_    0.143253 0.100307 0.524520 0.200960
H82   H     H_    0.129257 0.045680 0.587049 0.260230

loop_
_geom_bond_atom_site_label_1
_geom_bond_atom_site_label_2
_geom_bond_distance
_ccdc_geom_bond_type
C45   C47   1.405190 A    
C98   H45   1.110673 S    
C111  C112  1.520805 S    
C104  H61   1.110496 S    
C31   C35   1.413239 A    
C5    C79   1.395429 A    
C23   C25   1.398532 A    
C6    C80   1.393947 A    
O26   C111  1.414157 S    
C109  C110  1.520986 S    
C44   C46   1.397682 A    
C111  H78   1.114299 S    
C66   C68   1.403587 A    
C58   C60   1.407773 A    
C21   C23   1.411054 A    
C32   C33   1.421182 A    
O5    C3    1.292538 A    
C82   C91   1.416971 A    
C98   H46   1.110756 S    
C10   C28   1.412882 A    
C56   C59   1.387538 A    
C47   C60   1.481577 S    
O1    C1    1.286642 A    
C16   C30   1.399995 A    
C17   C19   1.394387 A    
C109  H74   1.114321 S    
C14   O23   1.388313 S    
C65   C67   1.403634 A    
N4    C74   1.465096 S    
C83   C86   1.428109 A    
C34   C41   1.408047 A    
C71   C73   1.408097 A    
N3    C73   1.463317 S    
Cu2   N5    2.000912 S    
C52   C54   1.397466 A    
C80   H32   1.083311 S    
C70   O20   1.391106 S    
C56   C58   1.396714 A    
C101  H53   1.112235 S    
C12   C20   1.406300 A    
O4    Cu1   1.956338 S    
C37   C39   1.406206 A    
C42   H16   1.078859 S    
C102  H57   1.110744 S    
C38   C40   1.404558 A    
N1    C19   1.435916 S    
C26   C42   1.388704 A    
C3    C29   1.483862 S    
C25   H7    1.083349 S    
C97   C98   1.522236 S    
C83   C89   1.411830 A    
C112  H80   1.110658 S    
C107  H68   1.111820 S    
C43   C45   1.397572 A    
H18   C54   1.082218 S    
C71   O21   1.382791 S    
O17   C93   1.417519 S    
H17   C53   1.081789 S    
C49   H23   1.083138 S    
C62   N4    1.376688 A    
C90   C92   1.403168 A    
C18   H6    1.082322 S    
C26   H8    1.083408 S    
C61   N3    1.376322 A    
C21   C27   1.411215 A    
C100  H52   1.105697 S    
C9    C27   1.413502 A    
C97   H44   1.113626 S    
C1    C58   1.445514 S    
C21   C36   1.417739 A    
O23   C105  1.417514 S    
C51   H25   1.082312 S    
C22   C35   1.417225 A    
C13   C29   1.420428 A    
Cu1   Cu2   2.664170 S    
C94   H37   1.109302 S    
C14   C30   1.402487 A    
O2    C2    1.290111 A    
C24   C26   1.399020 A    
C16   C18   1.394194 A    
C106  H67   1.108252 S    
C50   C52   1.398086 A    
H30   C90   1.079371 S    
C99   C100  1.515253 S    
C69   O19   1.381406 S    
C98   H47   1.110285 S    
C16   H4    1.083340 S    
C69   C71   1.420583 A    
C89   C91   1.403321 A    
O24   C107  1.414638 S    
C12   C14   1.405650 A    
C103  C104  1.520753 S    
C75   C81   1.411432 A    
C96   H42   1.111217 S    
C25   C41   1.387892 A    
C84   C85   1.425861 A    
C105  H64   1.116829 S    
C44   H20   1.082549 S    
C55   C57   1.394381 A    
C112  H81   1.110879 S    
C84   C90   1.411326 A    
O19   C97   1.414101 S    
C43   H19   1.081464 S    
C12   H13   1.081890 S    
C33   C42   1.408456 A    
N2    C20   1.448858 S    
C11   H14   1.081411 S    
C63   C81   1.422738 A    
C67   N5    1.366710 A    
O22   C103  1.411747 S    
C40   O26   1.383925 S    
C111  H79   1.114695 S    
C5    C86   1.412908 A    
C68   N6    1.367783 A    
C85   C87   1.419963 A    
C103  H59   1.114443 S    
C78   C80   1.402043 A    
O21   C101  1.408600 S    
C75   C77   1.405775 A    
C108  H70   1.108956 S    
C13   O24   1.396390 S    
C79   H31   1.083291 S    
C76   C82   1.411893 A    
H12   C65   1.082351 S    
C110  H76   1.110399 S    
C106  H66   1.110461 S    
C50   H24   1.083173 S    
O18   C95   1.412145 S    
C93   C94   1.525232 S    
O6    C4    1.284052 A    
H11   C66   1.082015 S    
C112  H82   1.110649 S    
C10   O13   1.348603 S    
C56   H28   1.078620 S    
O7    Cu2   1.953484 S    
C83   C87   1.414769 A    
C57   C59   1.413207 A    
C81   C92   1.414246 A    
C2    C57   1.448197 S    
C109  H73   1.113408 S    
C52   H26   1.082254 S    
C94   H36   1.110420 S    
O7    C3    1.297767 A    
C70   N6    1.372799 A    
C92   O18   1.382699 S    
C9    O14   1.349059 S    
O8    C4    1.294112 A    
C7    C23   1.400509 A    
O4    C2    1.282097 A    
C97   H43   1.109991 S    
C45   H21   1.083251 S    
C48   C50   1.406470 A    
H1    C68   1.077298 S    
C7    O11   1.349924 S    
C17   H5    1.082881 S    
C15   C29   1.407357 A    
Cu1   N6    2.000912 S    
C8    O12   1.349641 S    
C31   C34   1.417950 A    
O1    Cu1   1.960302 S    
C22   C28   1.409244 A    
C70   C72   1.428887 A    
O10   C63   1.348088 S    
C51   C53   1.396944 A    
C110  H75   1.110801 S    
C86   C88   1.420693 A    
C72   C74   1.408656 A    
C108  H71   1.110502 S    
C55   C60   1.384590 A    
C7    N1    1.365844 A    
C6    H10   1.079207 S    
C99   H48   1.110989 S    
O6    Cu2   1.948642 S    
C38   Br2   1.936325 S    
C44   C54   1.397309 A    
C5    H9    1.078914 S    
C43   C53   1.396586 A    
C6    C85   1.412132 A    
C84   C88   1.414863 A    
C93   H34   1.110642 S    
C22   C24   1.407901 A    
O3    C1    1.284425 A    
O8    Cu1   1.953482 S    
C76   C78   1.405072 A    
N4    C64   1.377593 A    
O3    Cu2   1.956340 S    
N1    C9    1.369270 A    
C37   Br1   1.937903 S    
C27   C40   1.413588 A    
N2    C10   1.375164 A    
C101  C102  1.519766 S    
C28   C39   1.414837 A    
C39   O25   1.384278 S    
C103  H58   1.113525 S    
C104  H62   1.110761 S    
C61   O15   1.349482 S    
C102  H55   1.110944 S    
C11   C13   1.413879 A    
O20   C99   1.423349 S    
C104  H60   1.110722 S    
C95   H38   1.115597 S    
C110  H77   1.110651 S    
C41   H15   1.079827 S    
C48   C59   1.486104 S    
C8    C24   1.401265 A    
C46   C48   1.405556 A    
C65   C73   1.404504 A    
C105  H63   1.111769 S    
C105  C106  1.520039 S    
H29   C89   1.078355 S    
C91   O17   1.383725 S    
C31   C37   1.418900 A    
C18   C20   1.406465 A    
C15   C17   1.390478 A    
C4    C30   1.460293 S    
C101  H54   1.115685 S    
C62   C78   1.407796 A    
C32   C38   1.420830 A    
C75   C88   1.427247 A    
C72   O22   1.384998 S    
O25   C109  1.413400 S    
C49   C51   1.397479 A    
O2    Cu2   1.960301 S    
C76   C87   1.427236 A    
C62   O16   1.349102 S    
C102  H56   1.110496 S    
C96   H40   1.111123 S    
C33   C35   1.419787 A    
C8    N2    1.371685 A    
C100  H50   1.109142 S    
C32   C36   1.415851 A    
O5    Cu1   1.948642 S    
C108  H72   1.110817 S    
C64   C82   1.425474 A    
C93   H33   1.117271 S    
C69   N5    1.374415 A    
C107  H69   1.115465 S    
C107  C108  1.520196 S    
C15   H3    1.079963 S    
C11   C19   1.397559 A    
C94   H35   1.110570 S    
C47   C49   1.405462 A    
O9    C64   1.347211 S    
C46   H22   1.081720 S    
C96   H41   1.110561 S    
C100  H51   1.110479 S    
C66   C74   1.404158 A    
C106  H65   1.110056 S    
N3    C63   1.376484 A    
C61   C77   1.409848 A    
C34   C36   1.419355 A    
C55   H27   1.076625 S    
H2    C67   1.079312 S    
C95   H39   1.114208 S    
C99   H49   1.115321 S    
C77   C79   1.402132 A    
C95   C96   1.520899 S    
