data_mof_unit_50172.cif
_audit_creation_date              2013-03-05T16:00:01-0500
_audit_creation_method            fapswitch 2.2
_symmetry_space_group_name_H-M    P1
_symmetry_Int_Tables_number       1
_space_group_crystal_system       triclinic
_cell_length_a                    20.715005
_cell_length_b                    21.436213
_cell_length_c                    14.793272
_cell_angle_alpha                 90.121113
_cell_angle_beta                  129.124437
_cell_angle_gamma                 89.993545
_cell_volume                      5096.04126094

loop_
_atom_site_label
_atom_site_type_symbol
_atom_site_description
_atom_site_fract_x
_atom_site_fract_y
_atom_site_fract_z
_atom_type_partial_charge
O1    O     O_R   0.600040 0.935040 0.546740 -0.539389
O2    O     O_R   0.399960 0.064960 0.453260 -0.584350
O3    O     O_R   0.399960 0.935040 0.453260 -0.536355
O4    O     O_R   0.600040 0.064960 0.546740 -0.570956
O5    O     O_R   0.100040 0.435040 0.546740 -0.540588
O6    O     O_R   0.899960 0.564960 0.453260 -0.564579
O7    O     O_R   0.899960 0.435040 0.453260 -0.539501
O8    O     O_R   0.100040 0.564960 0.546740 -0.576949
O9    O     O_R   0.555010 0.935070 0.653220 -0.601966
O10   O     O_R   0.444990 0.064930 0.346780 -0.569590
O11   O     O_R   0.444990 0.935070 0.346780 -0.602202
O12   O     O_R   0.555010 0.064930 0.653220 -0.560242
O13   O     O_R   0.055010 0.435070 0.653220 -0.601145
O14   O     O_R   0.944990 0.564930 0.346780 -0.574027
O15   O     O_R   0.944990 0.435070 0.346780 -0.592312
O16   O     O_R   0.055010 0.564930 0.653220 -0.574148
C1    C     C_R   0.602713 0.913507 0.631418 0.807860
C2    C     C_R   0.398242 0.087097 0.370073 0.890791
C3    C     C_R   0.399449 0.911647 0.371367 0.819322
C4    C     C_R   0.603776 0.086247 0.632391 0.869701
C5    C     C_R   0.101068 0.412002 0.629324 0.813572
C6    C     C_R   0.897031 0.586694 0.368736 0.867411
C7    C     C_R   0.897583 0.413256 0.368939 0.807735
C8    C     C_R   0.102288 0.586923 0.630449 0.885807
Cu1   Cu    Cu3+1 0.526640 0.000000 0.436960 0.956048
Cu2   Cu    Cu3+1 0.473360 1.000000 0.563040 0.951850
Cu3   Cu    Cu3+1 0.026640 0.500000 0.436960 0.948460
Cu4   Cu    Cu3+1 0.973360 0.500000 0.563040 0.952534
C9    C     C_R   0.665216 0.135946 0.708016 -0.257209
C10   C     C_R   0.345538 0.857187 0.303075 -0.332679
C11   C     C_R   0.344592 0.141027 0.303683 -0.257679
C12   C     C_R   0.664450 0.865407 0.709589 -0.322800
C13   C     C_R   0.158246 0.639860 0.698734 -0.261655
C14   C     C_R   0.836474 0.364446 0.291914 -0.326833
C15   C     C_R   0.838433 0.638240 0.297129 -0.271796
C16   C     C_R   0.155820 0.358237 0.699160 -0.331456
C17   C     C_R   0.754325 0.223447 0.742514 0.440413
C18   C     C_R   0.228637 0.788760 0.233621 0.440915
C19   C     C_R   0.290289 0.243185 0.296690 0.439831
C20   C     C_R   0.797539 0.814556 0.803538 0.437753
C21   C     C_R   0.222194 0.738498 0.711890 0.440531
C22   C     C_R   0.702503 0.314323 0.194874 0.436604
C23   C     C_R   0.757156 0.728926 0.272610 0.443658
C24   C     C_R   0.271864 0.289280 0.767276 0.441294
C25   C     C_R   0.691772 0.179135 0.665008 0.380374
C26   C     C_R   0.279507 0.839473 0.302494 0.376803
C27   C     C_R   0.340923 0.191419 0.361761 0.359384
C28   C     C_R   0.741344 0.862177 0.731682 0.402589
C29   C     C_R   0.168778 0.688123 0.644178 0.361771
C30   C     C_R   0.757820 0.363090 0.264630 0.402035
C31   C     C_R   0.814860 0.681279 0.344438 0.375251
C32   C     C_R   0.222853 0.341159 0.701498 0.382055
C33   C     C_R   0.697303 0.141450 0.824491 0.139822
C34   C     C_R   0.363198 0.820315 0.241643 0.128502
C35   C     C_R   0.300891 0.144242 0.182851 0.112094
C36   C     C_R   0.646547 0.822338 0.763426 0.117730
C37   C     C_R   0.200110 0.643390 0.818881 0.117319
C38   C     C_R   0.857418 0.317891 0.246730 0.118771
C39   C     C_R   0.807064 0.646245 0.181342 0.155657
C40   C     C_R   0.138395 0.321519 0.761159 0.128062
C41   C     C_R   0.734387 0.198054 0.883444 0.035302
C42   C     C_R   0.298495 0.782910 0.148041 0.017949
C43   C     C_R   0.273443 0.202900 0.128107 -0.015797
C44   C     C_R   0.714254 0.790950 0.864741 0.015870
C45   C     C_R   0.229631 0.701747 0.874538 -0.015380
C46   C     C_R   0.791513 0.285137 0.145410 0.016011
C47   C     C_R   0.774887 0.704890 0.128528 0.043359
C48   C     C_R   0.202826 0.283660 0.853755 0.017868
C49   C     C_R   0.774552 0.233371 0.852541 -0.139279
C50   C     C_R   0.237319 0.760849 0.155139 -0.154271
C51   C     C_R   0.257744 0.249329 0.179413 -0.114886
C52   C     C_R   0.786293 0.781150 0.874862 -0.144708
C53   C     C_R   0.250330 0.746289 0.826813 -0.116389
C54   C     C_R   0.716652 0.278104 0.129014 -0.137442
C55   C     C_R   0.738819 0.741557 0.164651 -0.125425
C56   C     C_R   0.262727 0.260878 0.844768 -0.155429
C57   C     C_R   0.731618 0.220697 0.971143 -0.061811
C58   C     C_R   0.291175 0.767401 0.047562 -0.033316
C59   C     C_R   0.265005 0.218340 0.027592 -0.083832
C60   C     C_R   0.715123 0.771272 0.957975 -0.049814
C61   C     C_R   0.236162 0.718221 0.973158 -0.084678
C62   C     C_R   0.794673 0.262595 0.056923 -0.069701
C63   C     C_R   0.776675 0.727586 0.040096 -0.049358
C64   C     C_R   0.211052 0.268212 0.954883 -0.032182
C65   C     C_R   0.328682 0.803562 0.010625 0.481662
C66   C     C_R   0.660346 0.209457 0.962398 0.470745
C67   C     C_R   0.664621 0.799386 0.981817 0.476600
C68   C     C_R   0.317439 0.191048 0.007420 0.457182
C69   C     C_R   0.851156 0.286543 0.040784 0.514422
C70   C     C_R   0.181778 0.691997 0.990635 0.457906
C71   C     C_R   0.176405 0.305436 0.994896 0.480076
C72   C     C_R   0.845412 0.714120 0.043744 0.475493
C73   C     C_R   0.298218 0.797578 0.894801 -0.280105
C74   C     C_R   0.653916 0.238922 0.041317 -0.274708
C75   C     C_R   0.685755 0.789854 0.092179 -0.290738
C76   C     C_R   0.313957 0.211382 0.915158 -0.268142
C77   C     C_R   0.832633 0.277946 0.931842 -0.275015
C78   C     C_R   0.184866 0.712190 0.082639 -0.268212
C79   C     C_R   0.210411 0.300876 0.112386 -0.279210
C80   C     C_R   0.849169 0.741729 0.961183 -0.266545
H1    H     H_    0.314074 0.832746 0.859487 0.184941
H2    H     H_    0.596622 0.235261 0.028553 0.178384
H3    H     H_    0.658978 0.819650 0.119790 0.186635
H4    H     H_    0.354644 0.189262 0.902448 0.186769
H5    H     H_    0.864158 0.306225 0.909976 0.202140
H6    H     H_    0.143179 0.690437 0.093770 0.187595
H7    H     H_    0.197511 0.337313 0.149527 0.179686
H8    H     H_    0.904273 0.736001 0.968984 0.180617
N1    N     N_R   0.433280 1.000000 0.657760 -0.195987
N2    N     N_R   0.566720 1.000000 0.342240 -0.207834
N3    N     N_R   0.933280 0.500000 0.657760 -0.211604
N4    N     N_R   0.066720 0.500000 0.342240 -0.192963
C81   C     C_R   0.324422 0.030768 0.659766 -0.299261
C82   C     C_R   0.678116 0.017865 0.339967 -0.285844
C83   C     C_R   0.820631 0.501587 0.660105 -0.291131
C84   C     C_R   0.180189 0.516178 0.343939 -0.291849
C85   C     C_R   0.355001 0.020882 0.600930 0.055901
C86   C     C_R   0.648330 0.010345 0.400357 0.075257
C87   C     C_R   0.850860 0.502432 0.599677 0.064153
C88   C     C_R   0.148932 0.508404 0.402321 0.065226
C89   C     C_R   0.483685 0.987444 0.774061 0.071939
C90   C     C_R   0.512091 0.994851 0.224100 0.097716
C91   C     C_R   0.988850 0.499073 0.775959 0.096956
C92   C     C_R   0.013105 0.495900 0.223758 0.089176
C93   C     C_R   0.458824 0.001643 0.842734 -0.055284
C94   C     C_R   0.537314 0.004364 0.154966 -0.035034
C95   C     C_R   0.963030 0.501061 0.845505 -0.036838
C96   C     C_R   0.041437 0.498944 0.157645 -0.050155
C97   C     C_R   0.374644 0.019957 0.780805 0.048622
C98   C     C_R   0.623799 0.014519 0.217115 0.046397
C99   C     C_R   0.875496 0.498551 0.783626 0.058696
C100  C     C_R   0.127024 0.513205 0.221077 0.040652
C101  C     C_R   0.514870 0.002865 0.968808 -0.149572
C102  C     C_R   0.480867 0.006234 0.028707 -0.139041
C103  C     C_R   0.019459 0.504393 0.971678 -0.126097
C104  C     C_R   0.986615 0.494455 0.031953 -0.143768
C105  C     C_R   0.392795 0.015538 0.960721 0.495078
C106  C     C_R   0.603354 0.007765 0.036191 0.438655
C107  C     C_R   0.900917 0.477485 0.966306 0.417864
C108  C     C_R   0.107039 0.517268 0.040251 0.492956
C109  C     C_R   0.342376 0.028828 0.840050 0.063279
C110  C     C_R   0.654967 0.021953 0.156588 0.063009
C111  C     C_R   0.843996 0.488478 0.843987 0.079394
C112  C     C_R   0.157915 0.526849 0.161883 0.045613
H9    H     H_    0.450837 0.980958 0.188486 0.200635
H10   H     H_    0.541837 0.965841 0.809852 0.212289
H11   H     H_    0.948636 0.496059 0.183176 0.150632
H12   H     H_    0.051504 0.493380 0.810244 0.202321
H13   H     H_    0.690223 0.013882 0.494295 0.140462
H14   H     H_    0.316060 0.031043 0.508976 0.119301
H15   H     H_    0.189699 0.512626 0.496037 0.118603
H16   H     H_    0.808376 0.503697 0.505479 0.151525
H17   H     H_    0.261686 0.048304 0.608256 0.154134
H18   H     H_    0.743813 0.026414 0.391552 0.160766
H19   H     H_    0.753836 0.501000 0.606533 0.151051
H20   H     H_    0.245929 0.525457 0.396955 0.163063
O17   O     O_3   0.357544 0.022150 0.014286 -0.589939
C113  C     C_3   0.299922 0.973383 0.980783 -0.349065
H21   H     H_    0.297067 0.936396 0.925331 0.190910
H22   H     H_    0.237034 0.993421 0.934543 0.170419
H23   H     H_    0.315434 0.951044 0.059809 0.213304
O18   O     O_3   0.637908 0.010831 0.981272 -0.637504
C114  C     C_3   0.695772 0.961898 0.018762 -0.312147
H24   H     H_    0.692448 0.923914 0.066886 0.192522
H25   H     H_    0.759651 0.980888 0.074498 0.181696
H26   H     H_    0.685612 0.941460 0.941768 0.210004
O19   O     O_3   0.883356 0.430981 0.013557 -0.543272
C115  C     C_3   0.818805 0.445780 0.017605 -0.295692
H27   H     H_    0.761472 0.419530 0.949970 0.181396
H28   H     H_    0.807075 0.496213 0.011703 0.112410
H29   H     H_    0.836785 0.430032 0.102070 0.208891
O20   O     O_3   0.143617 0.525316 0.988962 -0.594938
C116  C     C_3   0.200871 0.476428 0.021267 -0.331640
H30   H     H_    0.204321 0.439481 0.076962 0.192191
H31   H     H_    0.263939 0.496292 0.068159 0.173706
H32   H     H_    0.184647 0.454066 0.941660 0.210427
C117  C     C_3   0.455043 0.804043 0.306576 -0.245120
C118  C     C_3   0.470964 0.737042 0.288850 -0.878713
H33   H     H_    0.436837 0.703334 0.302015 0.254170
H34   H     H_    0.452281 0.730623 0.200831 0.255455
H35   H     H_    0.538485 0.726654 0.353434 0.229947
H36   H     H_    0.485563 0.837659 0.287778 0.244567
H37   H     H_    0.489193 0.808654 0.401807 0.160466
C119  C     C_3   0.719029 0.083873 0.897827 -0.311811
C120  C     C_3   0.809700 0.065813 0.960448 -0.969203
H38   H     H_    0.821896 0.062597 0.897475 0.245315
H39   H     H_    0.852279 0.101146 0.027986 0.263157
H40   H     H_    0.823594 0.019837 0.003278 0.246285
H41   H     H_    0.711375 0.093289 0.964074 0.252076
H42   H     H_    0.679514 0.043327 0.845415 0.228227
C121  C     C_3   0.556804 0.798193 0.690414 -0.245213
C122  C     C_3   0.548066 0.729659 0.710305 -0.859591
H43   H     H_    0.483125 0.713989 0.640624 0.232414
H44   H     H_    0.590497 0.699884 0.707125 0.248555
H45   H     H_    0.561105 0.723153 0.794689 0.253009
H46   H     H_    0.517796 0.828290 0.699358 0.245347
H47   H     H_    0.528144 0.801268 0.596840 0.155733
C123  C     C_3   0.270153 0.084953 0.110319 -0.266580
C124  C     C_3   0.205822 0.051809 0.112262 -0.989296
H48   H     H_    0.185567 0.007962 0.060793 0.245905
H49   H     H_    0.232621 0.040024 0.202796 0.244036
H50   H     H_    0.150646 0.082204 0.073578 0.263599
H51   H     H_    0.239590 0.094942 0.017676 0.223046
H52   H     H_    0.322748 0.053122 0.143814 0.262848
C125  C     C_3   0.945980 0.291683 0.329821 -0.255472
C126  C     C_3   0.953332 0.221738 0.316439 -0.852673
H53   H     H_    0.017000 0.205701 0.390204 0.233237
H54   H     H_    0.907968 0.195003 0.317721 0.249571
H55   H     H_    0.943042 0.211450 0.234848 0.250215
H56   H     H_    0.989976 0.318915 0.327012 0.243928
H57   H     H_    0.969013 0.297489 0.420353 0.153603
C127  C     C_3   0.230001 0.584285 0.891053 -0.267432
C128  C     C_3   0.297692 0.552663 0.894863 -0.993344
H58   H     H_    0.316213 0.508155 0.943742 0.246391
H59   H     H_    0.274857 0.542421 0.805570 0.243033
H60   H     H_    0.353174 0.583468 0.939148 0.264077
H61   H     H_    0.257436 0.594296 0.982576 0.228253
H62   H     H_    0.177698 0.551565 0.854439 0.252660
C129  C     C_3   0.046662 0.305865 0.698373 -0.243248
C130  C     C_3   0.030386 0.238274 0.712537 -0.886998
H63   H     H_    0.962693 0.228232 0.648497 0.231051
H64   H     H_    0.063355 0.205394 0.695933 0.254920
H65   H     H_    0.050315 0.230281 0.800904 0.255093
H66   H     H_    0.017855 0.338676 0.721150 0.245772
H67   H     H_    0.010827 0.312274 0.603353 0.161309
C131  C     C_3   0.787835 0.590276 0.104944 -0.371846
C132  C     C_3   0.693781 0.580362 0.013796 -0.937820
H68   H     H_    0.665582 0.575618 0.057111 0.250029
H69   H     H_    0.664212 0.620062 0.951875 0.264223
H70   H     H_    0.680617 0.537124 0.963293 0.239729
H71   H     H_    0.814210 0.596427 0.059957 0.219326
H72   H     H_    0.813672 0.546665 0.156161 0.186731
O21   O     O_3   0.272522 0.864722 0.382215 -0.530233
C133  C     C_3   0.217913 0.916138 0.331799 -0.233244
H73   H     H_    0.228988 0.947234 0.282672 0.115043
H74   H     H_    0.227776 0.944090 0.402638 0.170725
H75   H     H_    0.152273 0.900572 0.275408 0.159476
O22   O     O_3   0.649103 0.182622 0.545982 -0.539303
C134  C     C_3   0.698957 0.160822 0.518229 -0.211675
H76   H     H_    0.657295 0.142112 0.428113 0.170145
H77   H     H_    0.742071 0.122532 0.576288 0.092722
H78   H     H_    0.733591 0.200135 0.517916 0.203697
O23   O     O_3   0.759413 0.901711 0.676451 -0.527162
C135  C     C_3   0.788969 0.958938 0.738032 -0.353639
H79   H     H_    0.737860 0.986647 0.723337 0.163603
H80   H     H_    0.815548 0.986806 0.705390 0.171317
H81   H     H_    0.839088 0.952338 0.833388 0.133825
O24   O     O_3   0.394625 0.193039 0.482551 -0.538918
C136  C     C_3   0.351395 0.179339 0.524953 -0.147463
H82   H     H_    0.394428 0.154562 0.609087 0.186507
H83   H     H_    0.296043 0.148596 0.466168 0.081338
H84   H     H_    0.333279 0.223279 0.543379 0.209634
O25   O     O_3   0.737434 0.405502 0.313671 -0.536588
C137  C     C_3   0.710537 0.461440 0.248640 -0.362857
H85   H     H_    0.762920 0.486744 0.262577 0.157962
H86   H     H_    0.684506 0.492457 0.278629 0.172731
H87   H     H_    0.660683 0.453167 0.153658 0.136286
O26   O     O_3   0.120099 0.689091 0.523804 -0.533310
C138  C     C_3   0.167219 0.670165 0.489685 -0.145812
H88   H     H_    0.124837 0.646789 0.403642 0.182919
H89   H     H_    0.217598 0.636269 0.550631 0.080756
H90   H     H_    0.193192 0.711602 0.477770 0.206681
O27   O     O_3   0.233584 0.368361 0.626979 -0.530516
C139  C     C_3   0.285029 0.421423 0.681269 -0.264100
H91   H     H_    0.253089 0.459144 0.690684 0.140245
H92   H     H_    0.299716 0.439103 0.625694 0.173039
H93   H     H_    0.345109 0.410964 0.767485 0.135564
O28   O     O_3   0.855636 0.681011 0.463075 -0.538433
C140  C     C_3   0.803521 0.656474 0.484996 -0.207404
H94   H     H_    0.843400 0.634947 0.572714 0.170776
H95   H     H_    0.760151 0.619571 0.421730 0.096120
H96   H     H_    0.768813 0.694646 0.488045 0.200168
O29   O     O_3   0.237354 0.783563 0.660471 -0.545300
C141  C     C_3   0.316392 0.772351 0.691674 -0.341721
H97   H     H_    0.326046 0.805674 0.643870 0.221803
H98   H     H_    0.321675 0.724396 0.668142 0.136981
H99   H     H_    0.367182 0.779807 0.786190 0.138968
O30   O     O_3   0.637943 0.299183 0.196113 -0.563049
C142  C     C_3   0.572064 0.342044 0.128922 -0.326667
H100  H     H_    0.562186 0.357538 0.049104 0.124333
H101  H     H_    0.581687 0.382658 0.182718 0.217109
H102  H     H_    0.514169 0.318917 0.100994 0.166909
O31   O     O_3   0.727737 0.767432 0.314588 -0.541227
C143  C     C_3   0.646764 0.747604 0.267049 -0.378202
H103  H     H_    0.623035 0.778767 0.300156 0.210863
H104  H     H_    0.646545 0.699162 0.293402 0.142196
H105  H     H_    0.602670 0.750223 0.170448 0.146099
O32   O     O_3   0.329928 0.268029 0.756527 -0.563609
C144  C     C_3   0.409702 0.291324 0.849611 -0.324040
H106  H     H_    0.409150 0.333824 0.892472 0.117926
H107  H     H_    0.443376 0.302844 0.816083 0.208368
H108  H     H_    0.445911 0.255179 0.917490 0.148557
O33   O     O_3   0.785600 0.262599 0.704145 -0.552237
C145  C     C_3   0.864581 0.240398 0.746938 -0.389565
H109  H     H_    0.890978 0.273584 0.720506 0.211009
H110  H     H_    0.860186 0.193958 0.710009 0.147565
H111  H     H_    0.909089 0.237176 0.843513 0.146750
O34   O     O_3   0.169656 0.767958 0.242822 -0.559276
C146  C     C_3   0.090927 0.793062 0.150909 -0.332424
H112  H     H_    0.093764 0.838551 0.117113 0.119135
H113  H     H_    0.055189 0.800390 0.182625 0.213088
H114  H     H_    0.055367 0.759721 0.077303 0.149046
O35   O     O_3   0.283126 0.291152 0.352564 -0.548905
C147  C     C_3   0.206470 0.284660 0.330551 -0.346625
H115  H     H_    0.201294 0.239148 0.361326 0.143685
H116  H     H_    0.152949 0.289480 0.236546 0.133826
H117  H     H_    0.201702 0.322097 0.377974 0.224958
O36   O     O_3   0.860771 0.798282 0.800044 -0.558957
C148  C     C_3   0.927761 0.840550 0.866812 -0.324213
H118  H     H_    0.938247 0.857319 0.946579 0.122900
H119  H     H_    0.918888 0.880413 0.812406 0.214956
H120  H     H_    0.985177 0.816491 0.895072 0.165620
O37   O     O_3   0.385916 0.850051 0.081200 -0.602221
C149  C     C_3   0.452813 0.849397 0.077841 -0.407814
H121  H     H_    0.437451 0.877802 0.003988 0.171988
H122  H     H_    0.470779 0.801324 0.072852 0.155179
H123  H     H_    0.508288 0.870744 0.158854 0.195472
O38   O     O_3   0.591279 0.181860 0.860365 -0.565950
C150  C     C_3   0.540365 0.148826 0.876186 -0.290515
H124  H     H_    0.491319 0.179717 0.860020 0.163713
H125  H     H_    0.576007 0.126817 0.963444 0.161256
H126  H     H_    0.508491 0.111646 0.809595 0.218484
O39   O     O_3   0.604662 0.843194 0.905931 -0.598309
C151  C     C_3   0.533356 0.838505 0.898765 -0.411494
H127  H     H_    0.541573 0.866885 0.968192 0.174669
H128  H     H_    0.517630 0.789315 0.902161 0.157760
H129  H     H_    0.479195 0.858010 0.814315 0.191405
O40   O     O_3   0.377512 0.147649 0.083328 -0.565831
C152  C     C_3   0.455144 0.177929 0.160347 -0.231157
H130  H     H_    0.452357 0.217252 0.207184 0.166910
H131  H     H_    0.477961 0.194645 0.113778 0.145971
H132  H     H_    0.501101 0.143773 0.226832 0.203713
O41   O     O_3   0.914281 0.326944 0.122046 -0.540518
C153  C     C_3   0.988913 0.314478 0.140743 -0.298339
H133  H     H_    0.987994 0.335412 0.071443 0.178765
H134  H     H_    0.002682 0.263630 0.149160 0.122390
H135  H     H_    0.040706 0.337364 0.223356 0.183967
O42   O     O_3   0.120728 0.649388 0.912992 -0.567052
C154  C     C_3   0.044661 0.681075 0.834009 -0.231865
H136  H     H_    0.050188 0.718930 0.787780 0.168648
H137  H     H_    0.021311 0.700060 0.878636 0.147280
H138  H     H_    0.997749 0.647278 0.767259 0.204845
O43   O     O_3   0.118924 0.351767 0.925697 -0.605977
C155  C     C_3   0.052987 0.350230 0.931063 -0.389949
H139  H     H_    0.069599 0.377125 0.007299 0.172817
H140  H     H_    0.034466 0.301826 0.933230 0.151098
H141  H     H_    0.997474 0.372682 0.852069 0.201179
O44   O     O_3   0.915565 0.686623 0.144330 -0.560599
C156  C     C_3   0.960884 0.649569 0.122821 -0.334303
H142  H     H_    0.003916 0.678485 0.120234 0.175789
H143  H     H_    0.919886 0.620759 0.042392 0.132258
H144  H     H_    0.000588 0.617847 0.197637 0.203679
C157  C     C_3   0.255719 0.057158 0.777167 -0.356710
C158  C     C_3   0.184623 0.010891 0.695430 -0.845451
H145  H     H_    0.194579 0.983663 0.641438 0.265202
H146  H     H_    0.177253 0.977029 0.744605 0.246201
H147  H     H_    0.125263 0.036946 0.636538 0.237041
H148  H     H_    0.247524 0.076345 0.839015 0.236896
H149  H     H_    0.248916 0.098850 0.727320 0.189634
C159  C     C_3   0.740789 0.051249 0.216713 -0.365912
C160  C     C_3   0.813056 0.004964 0.291765 -0.828234
H150  H     H_    0.848062 0.014416 0.385897 0.236868
H151  H     H_    0.790869 0.955874 0.273323 0.264390
H152  H     H_    0.857908 0.010378 0.274826 0.233522
H153  H     H_    0.744445 0.072747 0.151877 0.220689
H154  H     H_    0.749583 0.091543 0.270967 0.184840
C161  C     C_3   0.749777 0.484383 0.775296 -0.419680
C162  C     C_3   0.715362 0.419600 0.722056 -0.716586
H155  H     H_    0.725305 0.407992 0.658565 0.267456
H156  H     H_    0.746158 0.383327 0.790492 0.273286
H157  H     H_    0.647530 0.418299 0.676201 0.227951
H158  H     H_    0.730096 0.498549 0.826024 0.186394
H159  H     H_    0.716858 0.520473 0.706489 0.181656
C163  C     C_3   0.243649 0.557298 0.226175 -0.349371
C164  C     C_3   0.315913 0.510810 0.299380 -0.848279
H160  H     H_    0.357402 0.524968 0.392522 0.236834
H161  H     H_    0.293410 0.462597 0.292442 0.269471
H162  H     H_    0.354247 0.510400 0.270848 0.236263
H163  H     H_    0.249099 0.581498 0.164981 0.235869
H164  H     H_    0.250739 0.595686 0.282532 0.188740

loop_
_geom_bond_atom_site_label_1
_geom_bond_atom_site_label_2
_geom_bond_distance
_ccdc_geom_bond_type
C100  C112  1.403593 A    
O17   C113  1.419415 S    
C17   C49   1.417018 A    
C65   C73   1.408894 A    
C53   C73   1.393133 A    
N2    C86   1.345848 A    
C18   C50   1.413779 A    
C67   O39   1.389003 S    
O41   C153  1.413714 S    
C143  H103  1.109074 S    
C114  H25   1.103767 S    
N4    C92   1.362344 A    
C109  C157  1.533379 S    
C159  H153  1.109764 S    
C125  H57   1.108907 S    
C117  H36   1.104126 S    
C135  H79   1.109457 S    
C42   C50   1.417355 A    
C141  H97   1.109503 S    
C121  H46   1.105057 S    
C159  C160  1.537822 S    
C137  H86   1.109157 S    
C147  H117  1.109493 S    
C151  H127  1.109352 S    
O3    C3    1.304020 A    
C161  H158  1.098484 S    
C64   C71   1.426962 A    
C77   H5    1.079848 S    
C116  H31   1.106576 S    
C36   C121  1.534367 S    
C124  H48   1.110452 S    
C82   C98   1.411685 A    
C133  H74   1.107292 S    
C60   C63   1.424172 A    
C21   C29   1.410927 A    
C162  H155  1.108882 S    
O9    Cu2   1.933248 S    
O3    Cu2   1.939839 S    
Cu4   N3    2.030009 S    
C23   C55   1.415774 A    
C92   H11   1.064017 S    
C14   C30   1.410144 A    
C55   C75   1.395256 A    
C121  C122  1.531911 S    
C122  H45   1.107197 S    
C103  C104  1.438684 A    
C40   C129  1.535458 S    
C73   H1    1.080451 S    
N4    C88   1.346055 A    
C126  H53   1.110665 S    
C38   C125  1.532628 S    
C149  H121  1.108895 S    
C51   C79   1.393909 A    
O7    Cu4   1.939839 S    
C9    C25   1.417329 A    
C133  H75   1.106139 S    
C86   H13   1.080554 S    
C46   C62   1.434129 A    
O15   Cu3   1.929459 S    
C132  H68   1.111242 S    
O12   C4    1.310632 A    
O13   C5    1.305601 A    
C106  O18   1.382335 S    
C107  O19   1.392342 S    
C23   O31   1.383359 S    
C61   C70   1.421387 A    
C115  H27   1.107413 S    
C43   C51   1.407324 A    
C140  H95   1.115676 S    
C123  H52   1.103672 S    
C113  H21   1.114029 S    
O34   C146  1.415103 S    
C17   C25   1.420089 A    
C21   O29   1.383850 S    
C19   C27   1.410015 A    
C20   C28   1.403486 A    
C32   O27   1.384452 S    
C17   O33   1.382917 S    
C143  H105  1.110251 S    
C138  H89   1.115842 S    
C164  H160  1.110443 S    
C112  C163  1.533192 S    
C78   H6    1.081747 S    
C135  H81   1.113694 S    
C96   C104  1.445920 A    
C30   O25   1.383824 S    
C56   C76   1.395022 A    
C153  H135  1.108233 S    
N1    C89   1.362895 A    
C57   C62   1.423623 A    
O10   C2    1.304834 A    
C151  H129  1.107937 S    
C131  H72   1.107067 S    
O44   C156  1.410395 S    
C163  H163  1.110094 S    
C142  H101  1.108124 S    
C95   C99   1.426123 A    
C84   H20   1.077358 S    
O4    C4    1.301324 A    
C93   C97   1.421084 A    
O5    C5    1.306356 A    
C127  C128  1.526133 S    
C74   H2    1.080542 S    
C69   C77   1.413094 A    
C14   C38   1.412083 A    
C1    C12   1.474544 S    
C19   C51   1.416553 A    
C2    C11   1.470775 S    
C3    C10   1.483958 S    
C149  H122  1.113620 S    
C82   H18   1.075558 S    
C162  H157  1.110125 S    
C150  H125  1.110713 S    
C47   C63   1.418901 A    
C156  H142  1.106144 S    
C118  H33   1.110981 S    
C120  H38   1.110490 S    
C10   C34   1.414537 A    
C136  H82   1.108297 S    
C62   C69   1.429248 A    
C59   C64   1.427025 A    
C120  H39   1.111157 S    
O11   Cu1   1.929459 S    
C46   C54   1.418305 A    
C119  C120  1.530149 S    
N3    C87   1.343416 A    
C70   O42   1.384017 S    
C39   C131  1.517107 S    
C163  C164  1.537868 S    
C39   C47   1.407780 A    
C129  H66   1.103174 S    
O5    Cu3   1.944516 S    
C33   C41   1.404705 A    
C115  H29   1.108327 S    
O6    Cu4   1.944515 S    
C41   C57   1.418889 A    
C139  H91   1.107559 S    
C35   C43   1.408266 A    
C124  H50   1.111013 S    
C36   C44   1.420335 A    
O21   C133  1.410372 S    
C16   C32   1.415167 A    
C24   C32   1.404253 A    
C147  H116  1.108416 S    
C116  H30   1.113397 S    
C152  H131  1.112834 S    
C99   C111  1.416319 A    
C130  H63   1.110331 S    
C75   H3    1.080367 S    
C148  H119  1.108118 S    
C80   H8    1.079421 S    
C72   O44   1.395691 S    
C153  H133  1.109074 S    
C137  H87   1.113530 S    
Cu1   Cu2   2.700884 S    
C129  H67   1.108939 S    
C84   C88   1.378139 A    
O12   Cu2   1.929457 S    
C122  H44   1.110904 S    
C89   C93   1.431382 A    
O33   C145  1.413521 S    
C91   C95   1.428501 A    
C84   C100  1.412015 A    
C7    C14   1.473236 S    
C144  H106  1.113032 S    
C134  H77   1.115252 S    
Cu2   N1    2.030009 S    
C94   C102  1.449666 A    
C157  H149  1.110846 S    
C22   C30   1.405047 A    
C81   C85   1.377929 A    
C58   C65   1.428566 A    
C132  H69   1.110672 S    
C18   O34   1.385790 S    
C156  H144  1.103661 S    
C83   C87   1.377711 A    
C119  H42   1.105891 S    
C47   C55   1.401277 A    
O10   Cu1   1.933248 S    
C164  H162  1.109846 S    
C87   H16   1.081448 S    
C136  H84   1.109164 S    
C20   C52   1.412018 A    
C10   C26   1.414383 A    
O40   C152  1.410801 S    
C57   C66   1.418983 A    
C48   C56   1.415517 A    
O1    C1    1.303916 A    
C105  O17   1.382357 S    
O14   C6    1.310199 A    
C143  H104  1.110974 S    
O26   C138  1.411675 S    
C159  H154  1.111752 S    
C125  H56   1.105044 S    
C139  H93   1.106248 S    
O7    C7    1.302494 A    
C115  H28   1.099527 S    
O8    C8    1.296944 A    
C135  H80   1.109064 S    
C141  H98   1.111957 S    
C98   C110  1.405050 A    
C146  H114  1.106189 S    
C18   C26   1.403890 A    
C108  O20   1.380464 S    
C21   C53   1.416408 A    
C154  H138  1.109233 S    
C91   H12   1.061192 S    
C151  H128  1.114210 S    
C158  H145  1.107707 S    
O31   C143  1.413844 S    
C89   H10   1.068586 S    
C71   O43   1.384862 S    
C71   C79   1.407914 A    
C20   O36   1.387575 S    
C130  H65   1.108375 S    
C49   C77   1.396804 A    
C68   C76   1.391512 A    
C141  H99   1.109070 S    
C44   C60   1.432357 A    
C54   C74   1.394747 A    
C134  H76   1.108474 S    
C68   O40   1.384066 S    
C102  C105  1.436976 A    
C162  H156  1.106639 S    
C157  C158  1.537073 S    
N1    C85   1.348181 A    
O27   C139  1.410930 S    
C128  H58   1.110422 S    
O20   C116  1.421206 S    
C160  H151  1.110712 S    
O11   C3    1.307007 A    
C95   C103  1.449592 A    
C28   O23   1.383754 S    
C65   O37   1.386539 S    
C145  H109  1.108630 S    
C22   O30   1.387527 S    
C126  H54   1.111095 S    
C66   O38   1.395087 S    
C97   C109  1.410563 A    
C127  H61   1.109011 S    
C94   C98   1.422248 A    
C13   C29   1.412465 A    
O23   C135  1.414632 S    
O6    C6    1.300349 A    
C144  H108  1.106295 S    
C15   C39   1.407880 A    
C59   C68   1.421001 A    
C113  H23   1.107925 S    
C161  C162  1.531026 S    
C88   H15   1.079503 S    
C142  H100  1.114969 S    
O13   Cu4   1.933248 S    
O14   Cu3   1.933248 S    
C92   C96   1.424762 A    
C149  H123  1.107244 S    
C128  H59   1.107730 S    
C101  C106  1.434619 A    
C11   C27   1.410416 A    
C140  H94   1.108532 S    
C113  H22   1.107273 S    
C12   C28   1.411336 A    
C104  C107  1.431733 A    
C27   O24   1.386655 S    
C160  H152  1.110621 S    
C42   C58   1.434030 A    
O4    Cu1   1.939837 S    
C103  C108  1.439769 A    
O32   C144  1.414878 S    
C22   C54   1.412480 A    
N3    C91   1.357524 A    
C48   C64   1.434262 A    
C114  H26   1.108566 S    
C145  H111  1.110839 S    
C106  C110  1.415071 A    
C33   C119  1.514002 S    
O19   C115  1.411795 S    
C83   C99   1.419321 A    
C34   C42   1.417771 A    
C125  C126  1.532062 S    
O39   C151  1.416180 S    
C146  H112  1.115072 S    
C137  H85   1.109747 S    
C6    C15   1.482689 S    
C45   C61   1.421321 A    
C154  H136  1.113756 S    
C155  H141  1.107237 S    
C31   O28   1.386664 S    
C163  H164  1.111939 S    
C101  C102  1.440117 A    
C133  H73   1.112488 S    
C129  C130  1.532141 S    
O24   C136  1.411154 S    
O18   C114  1.416986 S    
C128  H60   1.110991 S    
C105  C109  1.416966 A    
O22   C134  1.409836 S    
C108  C112  1.412726 A    
C37   C45   1.406121 A    
C118  H34   1.107889 S    
C79   H7    1.080186 S    
C8    C13   1.472937 S    
C34   C117  1.535905 S    
C117  H37   1.112014 S    
N2    C90   1.360313 A    
C58   C61   1.426172 A    
C23   C31   1.415094 A    
O37   C149  1.417730 S    
O25   C137  1.414921 S    
C118  H35   1.110451 S    
C150  H124  1.105347 S    
O28   C140  1.410645 S    
C40   C48   1.418999 A    
C139  H92   1.108663 S    
C117  C118  1.532258 S    
C140  H96   1.108669 S    
C123  H51   1.109558 S    
C124  H49   1.108520 S    
O8    Cu3   1.939837 S    
C11   C35   1.406334 A    
C12   C36   1.414263 A    
O16   Cu4   1.929457 S    
C145  H110  1.110283 S    
O43   C155  1.417700 S    
O2    C2    1.299253 A    
C152  H130  1.114430 S    
C114  H24   1.113037 S    
C138  H90   1.109050 S    
C130  H64   1.111033 S    
C5    C16   1.485930 S    
C43   C59   1.423103 A    
C148  H118  1.115159 S    
C63   C72   1.420099 A    
C81   C97   1.411718 A    
C148  H120  1.108435 S    
C60   C67   1.430615 A    
C153  H134  1.113836 S    
C142  H102  1.108465 S    
C35   C123  1.517964 S    
C131  H71   1.103633 S    
C45   C53   1.406770 A    
C19   O35   1.383336 S    
C90   H9    1.063989 S    
C25   O22   1.386960 S    
C66   C74   1.404554 A    
C38   C46   1.420125 A    
O35   C147  1.412171 S    
C123  C124  1.526456 S    
C157  H148  1.108829 S    
O15   C7    1.302891 A    
C37   C127  1.516499 S    
C156  H143  1.113596 S    
O1    Cu1   1.944516 S    
C107  C111  1.424503 A    
C96   C100  1.420077 A    
C4    C9    1.484848 S    
C164  H161  1.111437 S    
C24   O32   1.385803 S    
C136  H83   1.115628 S    
C26   O21   1.384682 S    
O2    Cu2   1.944515 S    
C120  H40   1.108155 S    
C69   O41   1.384589 S    
C67   C75   1.413576 A    
C90   C94   1.426823 A    
O38   C150  1.407481 S    
C29   O26   1.386465 S    
C93   C101  1.447115 A    
O29   C141  1.413552 S    
C155  H139  1.109152 S    
C146  H113  1.109452 S    
C82   C86   1.378805 A    
Cu1   N2    2.030008 S    
O9    C1    1.302170 A    
C147  H115  1.110889 S    
C154  H137  1.112324 S    
C155  H140  1.113820 S    
Cu3   N4    2.030008 S    
C131  C132  1.530602 S    
C158  H146  1.105365 S    
C152  H132  1.109484 S    
C138  H88   1.108673 S    
C111  C161  1.531768 S    
O36   C148  1.410324 S    
C72   C80   1.403940 A    
C52   C80   1.395171 A    
C116  H32   1.108040 S    
C41   C49   1.398581 A    
C13   C37   1.403939 A    
C83   H19   1.076486 S    
O30   C142  1.409319 S    
C121  H47   1.111860 S    
C81   H17   1.078057 S    
C16   C40   1.418415 A    
C158  H147  1.110361 S    
C160  H150  1.109273 S    
C110  C159  1.532458 S    
C161  H159  1.107624 S    
C122  H43   1.110723 S    
C76   H4    1.081684 S    
C85   H14   1.079329 S    
C15   C31   1.417006 A    
C126  H55   1.106851 S    
C9    C33   1.406557 A    
C144  H107  1.109384 S    
C134  H78   1.108699 S    
C44   C52   1.418298 A    
C150  H126  1.103418 S    
C132  H70   1.109777 S    
O16   C8    1.308426 A    
O42   C154  1.410349 S    
Cu3   Cu4   2.700884 S    
C119  H41   1.105221 S    
C24   C56   1.413299 A    
C70   C78   1.389795 A    
C50   C78   1.394169 A    
C127  H62   1.103255 S    
