data_mof_unit_11496.cif
_audit_creation_date              2013-03-05T15:58:18-0500
_audit_creation_method            fapswitch 2.2
_symmetry_space_group_name_H-M    P1
_symmetry_Int_Tables_number       1
_space_group_crystal_system       triclinic
_cell_length_a                    12.618885
_cell_length_b                    13.193793
_cell_length_c                    15.236323
_cell_angle_alpha                 83.781174
_cell_angle_beta                  98.085811
_cell_angle_gamma                 96.644906
_cell_volume                      2483.66771838

loop_
_atom_site_label
_atom_site_type_symbol
_atom_site_description
_atom_site_fract_x
_atom_site_fract_y
_atom_site_fract_z
_atom_type_partial_charge
O1    O     O_R   0.374950 0.371210 0.521360 -0.618491
O2    O     O_R   0.542050 0.338030 0.492790 -0.571326
C1    C     C_R   0.443456 0.308511 0.509478 0.879976
O3    O     O_R   0.368720 0.526070 0.390200 -0.626870
O4    O     O_R   0.535820 0.492890 0.361630 -0.578238
C2    C     C_R   0.437471 0.516971 0.335215 0.875772
Zn1   Zn    Zn3+2 0.388420 0.522150 0.519080 0.973060
Zn2   Zn    Zn3+2 0.611580 0.477850 0.480920 0.977101
O5    O     O_R   0.457950 0.661970 0.507210 -0.575903
O6    O     O_R   0.625050 0.628790 0.478640 -0.645154
O7    O     O_R   0.464180 0.507110 0.638370 -0.607064
O8    O     O_R   0.631280 0.473930 0.609800 -0.644376
C3    C     C_R   0.555880 0.691544 0.488670 0.889529
C4    C     C_R   0.565412 0.491670 0.664288 0.882784
C5    C     C_R   0.409459 0.548790 0.240338 -0.070179
C6    C     C_R   0.610687 0.510139 0.755907 -0.133624
C7    C     C_R   0.285178 0.611503 0.115863 -0.105600
C8    C     C_R   0.306192 0.574344 0.205175 -0.171699
C9    C     C_R   0.491448 0.563115 0.186086 -0.174398
C10   C     C_R   0.472323 0.600217 0.096501 0.080850
C11   C     C_R   0.366992 0.622636 0.060865 0.089502
C12   C     C_R   0.553030 0.606501 0.039891 0.039210
C13   C     C_R   0.522008 0.616521 0.947117 -0.025811
C14   C     C_R   0.422667 0.656835 0.913475 0.275751
C15   C     C_R   0.345132 0.656653 0.970946 -0.245550
C16   C     C_R   0.662682 0.598923 0.072070 -0.163509
C17   C     C_R   0.734721 0.582499 0.015165 -0.134409
C18   C     C_R   0.697130 0.563304 0.926947 0.026664
C19   C     C_R   0.588933 0.579450 0.892997 0.091308
C20   C     C_R   0.763499 0.526724 0.872097 0.324020
C21   C     C_R   0.719819 0.502655 0.786306 -0.259983
C22   C     C_R   0.546186 0.546697 0.809966 -0.161310
H1    H     H_    0.267368 0.682816 0.945536 0.208930
H2    H     H_    0.461122 0.547592 0.787498 0.181499
H3    H     H_    0.770921 0.475577 0.744227 0.198660
H4    H     H_    0.818069 0.578638 0.042651 0.195801
H5    H     H_    0.204699 0.630085 0.089472 0.163599
H6    H     H_    0.242072 0.566078 0.246585 0.166863
H7    H     H_    0.569909 0.542388 0.214237 0.190610
H8    H     H_    0.694754 0.606757 0.140822 0.150553
C23   C     C_R   0.725561 0.932482 0.537939 0.461004
H9    H     H_    0.757335 0.778647 0.530790 0.189995
H10   H     H_    0.728615 0.101519 0.624306 0.160598
C24   C     C_R   0.591042 0.800426 0.483608 -0.246062
C25   C     C_R   0.307665 0.182853 0.442652 -0.240052
C26   C     C_R   0.295683 0.104304 0.387287 -0.206521
C27   C     C_R   0.379544 0.043174 0.388206 0.402166
C28   C     C_R   0.466465 0.046713 0.459418 0.050705
C29   C     C_R   0.480020 0.129564 0.512576 0.067481
C30   C     C_R   0.542521 0.973479 0.478294 0.036025
C31   C     C_R   0.644114 0.999385 0.528977 -0.024566
C32   C     C_R   0.657120 0.084606 0.577924 -0.150200
C33   C     C_R   0.573071 0.143997 0.574739 -0.112091
C34   C     C_R   0.514914 0.871407 0.458820 0.415606
C35   C     C_R   0.697535 0.832832 0.515668 -0.226861
C36   C     C_R   0.404898 0.202119 0.497599 -0.103107
H11   H     H_    0.248560 0.237860 0.431703 0.173311
H12   H     H_    0.226824 0.099812 0.336173 0.196147
H13   H     H_    0.583185 0.204590 0.618782 0.138096
C37   C     C_R   0.137308 0.646927 0.619358 -0.213695
H14   H     H_    0.309719 0.663657 0.630409 0.197069
H15   H     H_    0.938844 0.673121 0.643320 0.185071
H16   H     H_    0.134379 0.704631 0.664176 0.204513
N1    N     N_R   0.239390 0.551900 0.544730 -0.122006
C38   C     C_R   0.760812 0.377717 0.396422 0.445473
C39   C     C_R   0.857402 0.351412 0.376533 -0.260860
C40   C     C_R   0.953206 0.397411 0.416468 -0.261777
C41   C     C_R   0.953385 0.470771 0.477330 0.034890
C42   C     C_R   0.853134 0.495278 0.496379 0.163907
C43   C     C_R   0.049070 0.520812 0.519371 0.013140
C44   C     C_R   0.043370 0.595100 0.579000 0.146081
C45   C     C_R   0.944127 0.617113 0.597425 -0.212834
C46   C     C_R   0.850375 0.567462 0.556834 -0.193124
C47   C     C_R   0.151162 0.500585 0.504204 -0.045184
C48   C     C_R   0.235730 0.624063 0.600739 0.078446
N2    N     N_R   0.759950 0.448600 0.455730 -0.192936
H17   H     H_    0.164356 0.445482 0.460847 0.126931
H18   H     H_    0.025103 0.373818 0.397794 0.160425
H19   H     H_    0.858051 0.295264 0.329769 0.197274
H20   H     H_    0.776826 0.587439 0.573844 0.208633
N3    N     N_R   0.873720 0.510420 0.902700 0.198416
O9    O     O_R   0.946525 0.537109 0.849656 -0.383616
O10   O     O_R   0.897591 0.451234 0.975143 -0.379735
O11   O     O_3   0.830542 0.958610 0.573885 -0.744251
H21   H     H_    0.847191 0.033741 0.562888 0.337784
O12   O     O_3   0.409389 0.838763 0.428622 -0.728698
H22   H     H_    0.410048 0.787848 0.385333 0.355818
N4    N     N_R   0.383699 0.992343 0.309893 0.230633
O13   O     O_R   0.475410 0.988596 0.281086 -0.355782
O14   O     O_R   0.295286 0.960982 0.261075 -0.361993
N5    N     N_R   0.663429 0.328688 0.353726 0.231681
O15   O     O_R   0.636213 0.233126 0.379228 -0.385477
O16   O     O_R   0.628494 0.363295 0.272956 -0.395102
N6    N     N_R   0.404516 0.708370 0.825145 0.196745
O17   O     O_R   0.485291 0.754343 0.786850 -0.380694
O18   O     O_R   0.307531 0.725555 0.789735 -0.425389

loop_
_geom_bond_atom_site_label_1
_geom_bond_atom_site_label_2
_geom_bond_distance
_ccdc_geom_bond_type
C5    C8    1.401768 A    
N4    O14   1.302149 A    
C9    C10   1.396732 A    
N3    O9    1.301371 A    
C33   H13   1.083626 S    
C25   C26   1.387711 A    
H14   C48   1.080984 S    
C6    C21   1.401024 A    
C5    C9    1.396739 A    
C39   H19   1.083487 S    
C25   H11   1.083911 S    
C16   C17   1.390355 A    
C30   C34   1.404264 A    
C38   N2    1.370953 A    
C37   H16   1.083307 S    
C13   C19   1.418179 A    
C18   C19   1.421914 A    
C19   C22   1.396669 A    
C20   C21   1.400011 A    
O7    C4    1.315363 A    
H10   C32   1.082303 S    
Zn2   N2    2.050138 S    
C42   N2    1.362246 A    
Zn1   O5    1.950234 S    
O5    C3    1.312209 A    
C23   C35   1.387121 A    
C2    C5    1.466281 S    
N1    C48   1.354327 A    
C25   C36   1.398541 A    
C41   C42   1.416841 A    
C47   H17   1.075020 S    
C43   C47   1.400357 A    
C13   C14   1.425337 A    
C42   C46   1.401236 A    
C43   C44   1.420883 A    
N4    O13   1.302011 A    
C28   C30   1.419213 A    
C39   C40   1.379628 A    
C26   H12   1.082951 S    
C40   H18   1.076166 S    
O3    Zn1   1.940122 S    
N3    O10   1.301156 A    
C30   C31   1.426172 A    
C31   C32   1.397099 A    
C14   C15   1.401443 A    
O3    C2    1.311221 A    
N5    O15   1.299921 A    
C34   O12   1.381381 S    
O12   H22   0.992573 S    
C37   C44   1.396174 A    
C23   O11   1.380167 S    
C7    C11   1.404004 A    
C40   C41   1.410717 A    
O1    C1    1.306283 A    
C22   H2    1.080857 S    
Zn1   O7    1.932291 S    
C14   N6    1.441213 S    
H9    C35   1.083444 S    
N5    O16   1.299825 A    
C1    C36   1.453317 S    
C27   C28   1.430682 A    
Zn2   O8    1.940122 S    
C7    C8    1.395158 A    
H15   C45   1.084409 S    
C7    H5    1.083748 S    
O11   H21   0.990222 S    
N6    O18   1.300861 A    
C9    H7    1.075565 S    
Zn2   O6    1.975951 S    
C28   C29   1.410573 A    
O8    C4    1.310008 A    
C21   H3    1.083406 S    
C32   C33   1.382344 A    
C38   N5    1.426200 S    
C11   C15   1.394139 A    
C26   C27   1.400526 A    
O1    Zn1   1.975952 S    
O2    Zn2   1.950235 S    
C10   C12   1.414249 A    
C45   C46   1.383409 A    
O6    C3    1.304965 A    
O4    Zn2   1.932291 S    
C17   H4    1.080760 S    
C6    C22   1.392495 A    
C29   C36   1.403173 A    
C37   C48   1.385028 A    
C27   N4    1.440611 S    
C20   N3    1.436402 S    
C18   C20   1.417942 A    
O2    C1    1.311345 A    
C8    H6    1.083019 S    
C44   C45   1.390056 A    
C24   C35   1.398174 A    
C16   H8    1.079950 S    
O4    C2    1.313843 A    
C29   C33   1.409448 A    
C46   H20   1.066348 S    
C4    C6    1.466811 S    
N6    O17   1.301863 A    
Zn1   N1    2.062584 S    
C24   C34   1.404301 A    
C10   C11   1.414973 A    
C41   C43   1.411969 A    
C38   C39   1.386537 A    
C12   C16   1.412627 A    
C17   C18   1.400855 A    
N1    C47   1.342349 A    
C12   C13   1.408773 A    
C23   C31   1.413677 A    
C3    C24   1.450744 S    
C15   H1    1.083768 S    
