data_mof_unit_12761.cif
_audit_creation_date              2012-12-10T17:40:58-0500
_audit_creation_method            fapswitch 2.2
_symmetry_space_group_name_H-M    P1
_symmetry_Int_Tables_number       1
_space_group_crystal_system       triclinic
_cell_length_a                    14.991415
_cell_length_b                    15.269532
_cell_length_c                    9.931827
_cell_angle_alpha                 90.007294
_cell_angle_beta                  92.611369
_cell_angle_gamma                 90.000098
_cell_volume                      2271.15234949

loop_
_atom_site_label
_atom_site_type_symbol
_atom_type_description
_atom_site_fract_x
_atom_site_fract_y
_atom_site_fract_z
_atom_type_partial_charge
C1    C     C_R   0.383982 0.876601 0.497690 0.855171
C2    C     C_R   0.383973 0.123391 0.497701 0.855159
C3    C     C_R   0.883980 0.376602 0.497690 0.855168
C4    C     C_R   0.883972 0.623390 0.497702 0.855150
C5    C     C_R   0.256161 0.195538 0.388956 -0.198119
C6    C     C_R   0.256174 0.804428 0.388930 -0.198074
C7    C     C_R   0.756153 0.695530 0.388963 -0.198107
C8    C     C_R   0.756163 0.304440 0.388938 -0.198059
C9    C     C_R   0.686473 0.753540 0.395777 -0.195120
C10   C     C_R   0.686465 0.246452 0.395785 -0.194843
C11   C     C_R   0.186481 0.253547 0.395771 -0.195144
C12   C     C_R   0.186474 0.746443 0.395780 -0.194846
C13   C     C_R   0.678210 0.804087 0.511939 -0.115305
C14   C     C_R   0.678199 0.195931 0.511956 -0.115361
C15   C     C_R   0.178212 0.304087 0.511939 -0.115303
C16   C     C_R   0.178199 0.695933 0.511959 -0.115363
C17   C     C_R   0.337483 0.999954 0.130251 -0.162578
C18   C     C_R   0.837482 0.499959 0.130251 -0.162567
C19   C     C_R   0.256764 0.999934 0.055644 -0.192343
C20   C     C_R   0.756763 0.499941 0.055645 -0.192331
C21   C     C_R   0.256121 0.999943 0.916277 -0.148379
C22   C     C_R   0.756120 0.499950 0.916277 -0.148364
C23   C     C_R   0.336174 0.999971 0.850701 -0.114032
C24   C     C_R   0.836174 0.499975 0.850702 -0.114027
C25   C     C_R   0.419522 0.999977 0.922895 0.177468
C26   C     C_R   0.919522 0.499980 0.922895 0.177482
C27   C     C_R   0.419767 0.999970 0.067328 0.156456
C28   C     C_R   0.919767 0.499974 0.067328 0.156463
C29   C     C_R   0.577778 0.000061 0.075180 0.033472
C30   C     C_R   0.077779 0.500053 0.075179 0.033471
C31   C     C_R   0.616414 0.123739 0.503103 0.876745
C32   C     C_R   0.616420 0.876268 0.503095 0.876724
C33   C     C_R   0.116414 0.623740 0.503104 0.876751
C34   C     C_R   0.116420 0.376269 0.503095 0.876724
C35   C     C_R   0.576453 0.000045 0.932110 -0.018232
C36   C     C_R   0.076454 0.500043 0.932109 -0.018244
C37   C     C_R   0.395868 0.270402 0.686796 -0.136639
C38   C     C_R   0.395874 0.729632 0.686782 -0.136574
C39   C     C_R   0.895871 0.770416 0.686779 -0.136620
C40   C     C_R   0.895886 0.229615 0.686748 -0.136560
C41   C     C_R   0.386631 0.317977 0.805187 -0.152907
C42   C     C_R   0.386620 0.682159 0.805244 -0.153103
C43   C     C_R   0.886640 0.818010 0.805155 -0.152906
C44   C     C_R   0.886644 0.182106 0.805179 -0.153090
C45   C     C_R   0.801667 0.840607 0.843767 -0.157500
C46   C     C_R   0.801666 0.159553 0.843814 -0.157302
C47   C     C_R   0.301656 0.340569 0.843795 -0.157475
C48   C     C_R   0.301639 0.659626 0.843875 -0.157251
C49   C     C_R   0.727489 0.824467 0.756866 0.174173
C50   C     C_R   0.727490 0.175635 0.756888 0.174200
C51   C     C_R   0.227481 0.324447 0.756878 0.174148
C52   C     C_R   0.227470 0.675675 0.756915 0.174187
C53   C     C_R   0.740175 0.794861 0.623726 0.054015
C54   C     C_R   0.740178 0.205171 0.623724 0.053879
C55   C     C_R   0.240174 0.294856 0.623731 0.054026
C56   C     C_R   0.240170 0.705183 0.623737 0.053877
C57   C     C_R   0.320792 0.253666 0.600091 0.059171
C58   C     C_R   0.320801 0.746341 0.600065 0.059188
C59   C     C_R   0.820792 0.753669 0.600086 0.059175
C60   C     C_R   0.820805 0.246337 0.600054 0.059202
C61   C     C_R   0.322650 0.194897 0.491972 -0.096854
C62   C     C_R   0.322668 0.805082 0.491936 -0.096876
C63   C     C_R   0.822646 0.694894 0.491974 -0.096852
C64   C     C_R   0.822663 0.305087 0.491936 -0.096874
H1    H     H_    0.257887 0.151223 0.303892 0.165577
H2    H     H_    0.257906 0.848719 0.303855 0.165569
H3    H     H_    0.757876 0.651210 0.303904 0.165570
H4    H     H_    0.757889 0.348739 0.303871 0.165560
H5    H     H_    0.193147 0.999937 0.858356 0.161886
H6    H     H_    0.693146 0.499945 0.858356 0.161888
H7    H     H_    0.329447 0.000000 0.743734 0.202781
H8    H     H_    0.829447 0.500001 0.743734 0.202777
H9    H     H_    0.638100 0.000070 0.879415 0.194331
H10   H     H_    0.138101 0.500065 0.879414 0.194322
H11   H     H_    0.461227 0.247393 0.661820 0.172364
H12   H     H_    0.461238 0.752606 0.661782 0.172373
H13   H     H_    0.961228 0.747406 0.661798 0.172359
H14   H     H_    0.961248 0.252597 0.661746 0.172364
H15   H     H_    0.443948 0.330469 0.872494 0.183975
H16   H     H_    0.443930 0.669711 0.872583 0.184045
H17   H     H_    0.943960 0.830517 0.872448 0.183980
H18   H     H_    0.943961 0.169638 0.872492 0.184044
H19   H     H_    0.792971 0.863589 0.945340 0.208138
H20   H     H_    0.792969 0.136656 0.945424 0.208781
H21   H     H_    0.292956 0.363530 0.945377 0.208073
H22   H     H_    0.292933 0.636779 0.945502 0.208745
H23   H     H_    0.638316 0.758046 0.311264 0.179230
H24   H     H_    0.638300 0.241941 0.311284 0.179244
H25   H     H_    0.138327 0.258056 0.311254 0.179231
H26   H     H_    0.138315 0.741927 0.311273 0.179254
H27   H     H_    0.332977 0.999969 0.236849 0.200055
H28   H     H_    0.832977 0.499971 0.236850 0.200049
H29   H     H_    0.194367 0.999920 0.106433 0.153807
H30   H     H_    0.694366 0.499929 0.106433 0.153802
N1    N     N_R   0.498810 1.000000 0.142780 -0.168859
N2    N     N_R   0.998810 0.500000 0.142780 -0.168847
N3    N     N_R   0.498740 0.000000 0.857170 -0.128931
N4    N     N_R   0.998740 0.500000 0.857170 -0.128920
O1    O     O_R   0.408390 0.908380 0.614690 -0.627638
O2    O     O_R   0.408390 0.091620 0.614690 -0.627642
O3    O     O_R   0.908390 0.408380 0.614690 -0.627632
O4    O     O_R   0.908390 0.591620 0.614690 -0.627635
O5    O     O_R   0.408370 0.908380 0.385360 -0.637592
O6    O     O_R   0.408370 0.091620 0.385360 -0.637591
O7    O     O_R   0.908370 0.408380 0.385360 -0.637590
O8    O     O_R   0.908370 0.591620 0.385360 -0.637588
O9    O     O_R   0.591620 0.091610 0.614640 -0.598892
O10   O     O_R   0.591620 0.908390 0.614640 -0.598881
O11   O     O_R   0.091620 0.591610 0.614640 -0.598886
O12   O     O_R   0.091620 0.408390 0.614640 -0.598875
O13   O     O_R   0.591610 0.091610 0.385310 -0.647271
O14   O     O_R   0.591610 0.908390 0.385310 -0.647410
O15   O     O_R   0.091610 0.591610 0.385310 -0.647248
O16   O     O_R   0.091610 0.408390 0.385310 -0.647414
Zn1   Zn    Zn3+2 0.500010 1.000000 0.653130 0.963296
Zn2   Zn    Zn3+2 0.000010 0.500000 0.653130 0.963311
Zn3   Zn    Zn3+2 0.499980 1.000000 0.346870 0.929513
Zn4   Zn    Zn3+2 0.999980 0.500000 0.346870 0.929524
I1    I     I_    0.611763 0.788397 0.858116 -0.448618
I2    I     I_    0.611734 0.211683 0.858085 -0.448299
I3    I     I_    0.111741 0.288391 0.858103 -0.448654
I4    I     I_    0.111690 0.711697 0.858071 -0.448315
C65   C     C_2   0.666654 0.000175 0.147616 0.413654
H31   H     H_    0.674282 0.999898 0.255132 0.154833
O17   O     O_2   0.735255 0.000530 0.085819 -0.641578
C66   C     C_2   0.166667 0.500149 0.147608 0.413780
H32   H     H_    0.174310 0.499900 0.255113 0.154855
O18   O     O_2   0.235242 0.500556 0.085863 -0.641652

loop_
_geom_bond_atom_site_label_1
_geom_bond_atom_site_label_2
_ccdc_geom_bond_type
C58   C62   A    
C30   C66   S    
C42   H16   S    
C66   H32   S    
C40   C60   A    
C13   C32   S    
C27   N1    A    
C17   H27   S    
C14   C31   S    
C1    C62   S    
C1    O1    A    
C53   C59   A    
C65   H31   S    
C54   C60   A    
C3    C64   S    
N1    Zn3   S    
C4    C63   S    
C10   H24   S    
C50   C54   A    
C6    H2    S    
C50   I2    S    
C39   H13   S    
O10   Zn1   S    
N2    Zn4   S    
C19   C21   A    
C24   C26   A    
C5    C11   A    
C44   H18   S    
O1    Zn1   S    
O14   Zn3   S    
C65   O17   D    
C9    C13   A    
C30   N2    A    
O11   Zn2   S    
C38   C58   A    
C11   C15   A    
C12   C16   A    
C4    O4    A    
C45   C49   A    
N3    Zn1   S    
C1    O5    A    
C15   C34   S    
C51   C55   A    
C19   H29   S    
C2    C61   S    
C33   O15   A    
C3    O3    A    
C22   C24   A    
C37   H11   S    
C2    O2    A    
C38   H12   S    
O5    Zn3   S    
O2    Zn1   S    
C52   I4    S    
C26   C28   A    
C44   C46   A    
C46   C50   A    
C13   C53   A    
C17   C27   A    
C23   H7    S    
C45   H19   S    
C18   C28   A    
C5    H1    S    
C10   C14   A    
C29   N1    A    
C39   C43   A    
C4    O8    A    
C3    O7    A    
C21   H5    S    
C60   C64   A    
C15   C55   A    
C16   C56   A    
C16   C33   S    
C11   H25   S    
N4    Zn2   S    
C47   H21   S    
C2    O6    A    
C39   C59   A    
C41   C47   A    
C5    C61   A    
C42   C48   A    
C43   C45   A    
C7    C63   A    
O16   Zn4   S    
C36   H10   S    
C8    C64   A    
C46   H20   S    
C40   H14   S    
C25   N3    A    
C14   C54   A    
C26   N4    A    
C8    H4    S    
C21   C23   A    
C51   I3    S    
C48   H22   S    
O7    Zn4   S    
C34   O16   A    
C40   C44   A    
O12   Zn2   S    
C24   H8    S    
O6    Zn3   S    
C12   H26   S    
C7    C9    A    
C20   H30   S    
C35   H9    S    
C66   O18   D    
C32   O14   A    
C43   H17   S    
C31   O9    A    
C20   C22   A    
C41   H15   S    
C47   C51   A    
C57   C61   A    
C30   C36   A    
C25   C27   A    
C29   C35   A    
C59   C63   A    
O13   Zn3   S    
C28   N2    A    
C18   H28   S    
C6    C62   A    
C55   C57   A    
C9    H23   S    
C6    C12   A    
C49   I1    S    
C49   C53   A    
C29   C65   S    
C17   C19   A    
C56   C58   A    
O9    Zn1   S    
C18   C20   A    
C23   C25   A    
C37   C41   A    
C37   C57   A    
O4    Zn2   S    
C7    H3    S    
O15   Zn4   S    
C38   C42   A    
C48   C52   A    
C33   O11   A    
C8    C10   A    
C32   O10   A    
O3    Zn2   S    
C31   O13   A    
C36   N4    A    
C34   O12   A    
C35   N3    A    
C22   H6    S    
O8    Zn4   S    
C52   C56   A    
