data_mof_unit_56421.cif
_audit_creation_date              2012-12-10T17:19:00-0500
_audit_creation_method            fapswitch 2.2
_symmetry_space_group_name_H-M    P1
_symmetry_Int_Tables_number       1
_space_group_crystal_system       triclinic
_cell_length_a                    10.20794
_cell_length_b                    10.791076
_cell_length_c                    13.604653
_cell_angle_alpha                 91.583124
_cell_angle_beta                  100.159536
_cell_angle_gamma                 97.362974
_cell_volume                      1461.01657136

loop_
_atom_site_label
_atom_site_type_symbol
_atom_type_description
_atom_site_fract_x
_atom_site_fract_y
_atom_site_fract_z
_atom_type_partial_charge
C1    C     C_R   0.055781 0.732737 0.496045 0.970598
C2    C     C_2   0.986178 0.057893 0.473905 0.330443
C3    C     C_2   0.432049 0.520533 0.497365 0.349308
C4    C     C_2   0.568952 0.476021 0.510068 0.394121
C5    C     C_R   0.094583 0.515618 0.685685 0.874843
C6    C     C_R   0.906821 0.488755 0.314222 0.881878
C7    C     C_R   0.152415 0.543927 0.791098 -0.062522
C8    C     C_R   0.860636 0.495534 0.206971 -0.058972
C9    C     C_R   0.154018 0.644214 0.952537 -0.194468
C10   C     C_R   0.885889 0.468630 0.034791 -0.210581
C11   C     C_R   0.086304 0.604471 0.856302 -0.181708
C12   C     C_R   0.943832 0.267200 0.503161 0.969918
C13   C     C_R   0.936535 0.462986 0.136380 -0.174458
C14   C     C_R   0.285116 0.523829 0.822432 -0.234237
C15   C     C_R   0.737619 0.538532 0.175814 -0.245830
C16   C     C_R   0.358140 0.572557 0.914517 0.094854
C17   C     C_R   0.686164 0.547708 0.074813 0.096578
C18   C     C_R   0.289413 0.627942 0.982300 0.172793
C19   C     C_R   0.760229 0.508481 0.003512 0.172868
C20   C     C_R   0.496387 0.562156 0.941985 0.071840
C21   C     C_R   0.557963 0.585171 0.043290 0.075343
C22   C     C_3   0.536770 0.276336 0.563716 0.064790
C23   C     C_R   0.488322 0.642615 0.109564 -0.224976
C24   C     C_3   0.643177 0.284755 0.659692 -0.345795
C25   C     C_3   0.588553 0.214494 0.742897 -0.919919
C26   C     C_3   0.407212 0.719502 0.447863 0.130786
C27   C     C_3   0.541575 0.778613 0.422929 -0.458612
C28   C     C_3   0.521565 0.880142 0.347867 -0.888289
C29   C     C_R   0.575092 0.530204 0.871493 -0.212368
C30   C     C_R   0.356761 0.665589 0.078657 -0.226935
C31   C     C_R   0.706146 0.506211 0.902148 -0.231930
C32   C     C_2   0.085237 0.864884 0.483995 -0.411887
C33   C     C_2   0.912827 0.134513 0.512488 -0.390561
C34   C     C_2   0.012880 0.942243 0.522864 0.340567
Cl1   Cl    Cl    0.049920 0.095755 0.362836 -0.642507
Cl2   Cl    Cl    0.951920 0.906200 0.635401 -0.645179
H1    H     H_    0.306400 0.709672 0.131187 0.145273
H2    H     H_    0.538442 0.525810 0.791837 0.157389
H3    H     H_    0.852491 0.105218 0.567869 0.165080
H4    H     H_    0.143053 0.892293 0.426622 0.160987
H5    H     H_    0.667441 0.642579 0.563041 0.181619
H6    H     H_    0.332718 0.359180 0.432657 0.176271
H7    H     H_    0.517217 0.177672 0.533538 0.174717
H8    H     H_    0.440225 0.298377 0.582494 0.121369
H9    H     H_    0.732130 0.243680 0.644817 0.237908
H10   H     H_    0.675539 0.383980 0.685856 0.210840
H11   H     H_    0.501808 0.256309 0.762197 0.264616
H12   H     H_    0.763441 0.480716 0.846697 0.145350
H13   H     H_    0.668222 0.220865 0.810641 0.274479
H14   H     H_    0.556377 0.114282 0.719118 0.278256
H15   H     H_    0.355361 0.797329 0.469852 0.186730
H16   H     H_    0.342037 0.670713 0.379611 0.134887
H17   H     H_    0.608114 0.822151 0.492052 0.261024
H18   H     H_    0.591133 0.705518 0.390536 0.215203
H19   H     H_    0.451539 0.841671 0.278815 0.255277
H20   H     H_    0.619649 0.916932 0.327935 0.284342
H21   H     H_    0.480237 0.958638 0.380874 0.270767
H22   H     H_    0.679681 0.559085 0.231649 0.159855
H23   H     H_    0.330571 0.468895 0.773664 0.155639
H24   H     H_    0.032912 0.430691 0.159474 0.174898
H25   H     H_    0.983797 0.622392 0.832680 0.175513
H26   H     H_    0.101293 0.688843 0.003146 0.157385
H27   H     H_    0.943086 0.438628 0.980736 0.154403
H28   H     H_    0.534618 0.674163 0.185050 0.153384
N1    N     N_2   0.322180 0.446120 0.460900 -0.232470
N2    N     N_2   0.677820 0.553880 0.539100 -0.226677
O1    O     O_R   0.935190 0.693030 0.507870 -0.562448
O2    O     O_3   0.424646 0.641720 0.530520 -0.631700
O3    O     O_R   0.064810 0.306970 0.492130 -0.563266
O4    O     O_R   0.142080 0.658430 0.482770 -0.610775
O5    O     O_R   0.857920 0.341570 0.517230 -0.578542
O6    O     O_R   0.969700 0.527180 0.651960 -0.614392
O7    O     O_R   0.030300 0.472820 0.348040 -0.608066
O8    O     O_R   0.176600 0.492580 0.626860 -0.594803
O9    O     O_R   0.823400 0.507420 0.373140 -0.604139
O10   O     O_3   0.580751 0.351932 0.488719 -0.617120
Zn1   Zn    Zn3+2 0.861850 0.523100 0.516760 0.991776
Zn2   Zn    Zn3+2 0.138150 0.476900 0.483240 0.989365

loop_
_geom_bond_atom_site_label_1
_geom_bond_atom_site_label_2
_ccdc_geom_bond_type
C2    Cl1   S    
C12   O3    A    
C8    C13   A    
O4    Zn2   S    
C3    O2    S    
O1    Zn1   S    
C22   O10   S    
C19   C31   A    
C28   H20   S    
C27   H18   S    
C6    O9    A    
C13   H24   S    
C28   H21   S    
C7    C11   A    
C14   H23   S    
C26   C27   S    
C33   H3    S    
C24   H9    S    
C5    O6    A    
C5    O8    A    
C25   H14   S    
C17   C19   A    
C7    C14   A    
C22   H8    S    
C10   H27   S    
C29   H2    S    
H6    N1    S    
O7    Zn2   S    
C18   C30   A    
C25   H11   S    
C34   Cl2   S    
C2    C34   S    
O3    Zn2   S    
C3    N1    D    
C28   H19   S    
C20   C29   A    
C9    H26   S    
C23   C30   A    
C24   C25   S    
C5    C7    S    
C6    C8    S    
C1    C32   S    
C17   C21   A    
C30   H1    S    
C32   C34   D    
O6    Zn1   S    
C26   H16   S    
C9    C11   A    
C22   H7    S    
C10   C19   A    
C16   C20   A    
O9    Zn1   S    
C2    C33   D    
C23   H28   S    
C12   O5    A    
C8    C15   A    
C31   H12   S    
C21   C23   A    
C15   H22   S    
C14   C16   A    
C3    C4    S    
O5    Zn1   S    
C6    O7    A    
C15   C17   A    
N2    Zn1   S    
N1    Zn2   S    
C11   H25   S    
C10   C13   A    
C27   H17   S    
H5    N2    S    
C1    O4    A    
C24   H10   S    
C26   O2    S    
C29   C31   A    
C26   H15   S    
C4    N2    D    
C1    O1    A    
C22   C24   S    
C32   H4    S    
C25   H13   S    
C4    O10   S    
C9    C18   A    
C20   C21   A    
C16   C18   A    
O8    Zn2   S    
C27   C28   S    
C12   C33   S    
