data_mof_unit_15412.cif
_audit_creation_date              2013-03-05T15:40:26-0500
_audit_creation_method            fapswitch 2.2
_symmetry_space_group_name_H-M    P1
_symmetry_Int_Tables_number       1
_space_group_crystal_system       triclinic
_cell_length_a                    19.033964
_cell_length_b                    10.956257
_cell_length_c                    18.754903
_cell_angle_alpha                 89.619243
_cell_angle_beta                  90.004259
_cell_angle_gamma                 90.025641
_cell_volume                      3911.07948704

loop_
_atom_site_label
_atom_site_type_symbol
_atom_site_description
_atom_site_fract_x
_atom_site_fract_y
_atom_site_fract_z
_atom_type_partial_charge
O1    O     O_R   0.215090 0.709860 0.828130 -0.514535
O2    O     O_R   0.784910 0.709860 0.171870 -0.512440
O3    O     O_R   0.715090 0.209860 0.828130 -0.514544
O4    O     O_R   0.284910 0.209860 0.171870 -0.512431
O5    O     O_R   0.236990 0.958390 0.823710 -0.496273
O6    O     O_R   0.763010 0.958390 0.176290 -0.499948
O7    O     O_R   0.736990 0.458390 0.823710 -0.496239
O8    O     O_R   0.263010 0.458390 0.176290 -0.499976
C1    C     C_R   0.272456 0.042188 0.853507 0.557759
C2    C     C_R   0.727514 0.042614 0.146473 0.554122
C3    C     C_R   0.772456 0.542188 0.853507 0.557818
C4    C     C_R   0.227515 0.542614 0.146473 0.554105
O9    O     O_R   0.332380 0.074750 0.830850 -0.508874
O10   O     O_R   0.667620 0.074750 0.169150 -0.510207
O11   O     O_R   0.832380 0.574750 0.830850 -0.508866
O12   O     O_R   0.167620 0.574750 0.169150 -0.510196
O13   O     O_R   0.445800 0.917770 0.825070 -0.505556
O14   O     O_R   0.554200 0.917770 0.174930 -0.507075
O15   O     O_R   0.945800 0.417770 0.825070 -0.505552
O16   O     O_R   0.054200 0.417770 0.174930 -0.507089
C5    C     C_R   0.471237 0.821668 0.853355 0.544427
C6    C     C_R   0.527924 0.822893 0.147238 0.543603
C7    C     C_R   0.971237 0.321668 0.853355 0.544366
C8    C     C_R   0.027924 0.322893 0.147238 0.543612
O17   O     O_R   0.456410 0.716580 0.829970 -0.517103
O18   O     O_R   0.543590 0.716580 0.170030 -0.520589
O19   O     O_R   0.956410 0.216580 0.829970 -0.517146
O20   O     O_R   0.043590 0.216580 0.170030 -0.520540
O21   O     O_R   0.321080 0.625290 0.822650 -0.501080
O22   O     O_R   0.678920 0.625290 0.177350 -0.500849
O23   O     O_R   0.821080 0.125290 0.822650 -0.501073
O24   O     O_R   0.178920 0.125290 0.177350 -0.500827
C9    C     C_R   0.260898 0.635685 0.851346 0.551298
C10   C     C_R   0.739056 0.636249 0.148602 0.553054
C11   C     C_R   0.760898 0.135685 0.851346 0.551303
C12   C     C_R   0.239056 0.136249 0.148602 0.553084
O25   O     O_R   0.214930 0.711450 0.668160 -0.438408
O26   O     O_R   0.785070 0.711450 0.331840 -0.442274
O27   O     O_R   0.714930 0.211450 0.668160 -0.438405
O28   O     O_R   0.285070 0.211450 0.331840 -0.442254
O29   O     O_R   0.236850 0.959870 0.675420 -0.457837
O30   O     O_R   0.763150 0.959870 0.324580 -0.474756
O31   O     O_R   0.736850 0.459870 0.675420 -0.457763
O32   O     O_R   0.263150 0.459870 0.324580 -0.474954
C13   C     C_R   0.273962 0.042728 0.646077 0.583500
C14   C     C_R   0.726203 0.042509 0.353758 0.560033
C15   C     C_R   0.773966 0.542716 0.646071 0.583669
C16   C     C_R   0.226203 0.542508 0.353758 0.559863
O33   O     O_R   0.332230 0.076350 0.670880 -0.498024
O34   O     O_R   0.667770 0.076350 0.329120 -0.493414
O35   O     O_R   0.832230 0.576350 0.670880 -0.498019
O36   O     O_R   0.167770 0.576350 0.329120 -0.493364
O37   O     O_R   0.445660 0.919250 0.676780 -0.489343
O38   O     O_R   0.554340 0.919250 0.323220 -0.480538
O39   O     O_R   0.945660 0.419250 0.676780 -0.489310
O40   O     O_R   0.054340 0.419250 0.323220 -0.480637
C17   C     C_R   0.473581 0.824780 0.650348 0.591175
C18   C     C_R   0.530667 0.822650 0.353438 0.586249
C19   C     C_R   0.973567 0.324766 0.650325 0.591098
C20   C     C_R   0.030601 0.322671 0.353393 0.586308
O41   O     O_R   0.456260 0.718170 0.670000 -0.448082
O42   O     O_R   0.543740 0.718170 0.330000 -0.445957
O43   O     O_R   0.956260 0.218170 0.670000 -0.447986
O44   O     O_R   0.043740 0.218170 0.330000 -0.445883
O45   O     O_R   0.320940 0.626760 0.674370 -0.502860
O46   O     O_R   0.679060 0.626760 0.325630 -0.488518
O47   O     O_R   0.820940 0.126760 0.674370 -0.502796
O48   O     O_R   0.179060 0.126760 0.325630 -0.488828
C21   C     C_R   0.259689 0.633225 0.647807 0.572451
C22   C     C_R   0.740331 0.632667 0.352202 0.575059
C23   C     C_R   0.759689 0.133226 0.647807 0.572460
C24   C     C_R   0.240325 0.132675 0.352206 0.575015
Cr1   Cr    Cr6+3 0.230530 0.836340 0.748870 1.107569
Cr2   Cr    Cr6+3 0.769470 0.836340 0.251130 1.091905
Cr3   Cr    Cr6+3 0.730530 0.336340 0.748870 1.107674
Cr4   Cr    Cr6+3 0.269470 0.336340 0.251130 1.091703
Cr5   Cr    Cr6+3 0.387420 0.989430 0.750820 1.076395
Cr6   Cr    Cr6+3 0.612580 0.989430 0.249180 1.073749
Cr7   Cr    Cr6+3 0.887420 0.489430 0.750820 1.076421
Cr8   Cr    Cr6+3 0.112580 0.489430 0.249180 1.073738
Cr9   Cr    Cr6+3 0.385640 0.677860 0.749230 1.081349
Cr10  Cr    Cr6+3 0.614360 0.677860 0.250770 1.085229
Cr11  Cr    Cr6+3 0.885640 0.177860 0.749230 1.081401
Cr12  Cr    Cr6+3 0.114360 0.177860 0.250770 1.085196
O49   O     O_3   0.334530 0.834540 0.749640 -0.287967
O50   O     O_3   0.665470 0.834540 0.250360 -0.284823
O51   O     O_3   0.834530 0.334540 0.749640 -0.288011
O52   O     O_3   0.165470 0.334540 0.250360 -0.284753
H1    H     H_    0.483348 0.632271 0.942052 0.139759
H2    H     H_    0.485461 0.636982 0.067765 0.140840
H3    H     H_    0.983347 0.132271 0.942052 0.139755
H4    H     H_    0.985460 0.136982 0.067766 0.140856
C25   C     C_R   0.497915 0.833527 0.075671 0.000954
C26   C     C_R   0.497060 0.828236 0.926579 0.005445
C27   C     C_R   0.997915 0.333527 0.075672 0.000959
C28   C     C_R   0.997059 0.328236 0.926580 0.005433
C29   C     C_R   0.500097 0.945285 0.036664 0.022452
C30   C     C_R   0.506668 0.941280 0.961550 0.020733
C31   C     C_R   0.000097 0.445285 0.036664 0.022451
C32   C     C_R   0.006667 0.441280 0.961550 0.020734
C33   C     C_R   0.490551 0.720508 0.966757 -0.150480
C34   C     C_R   0.489177 0.723487 0.039617 -0.154321
C35   C     C_R   0.990550 0.220508 0.966757 -0.150489
C36   C     C_R   0.989176 0.223487 0.039618 -0.154312
C37   C     C_R   0.496486 0.060599 0.069999 -0.080455
C38   C     C_R   0.522365 0.050219 0.923939 -0.086307
C39   C     C_R   0.996484 0.560598 0.069999 -0.080453
C40   C     C_R   0.022364 0.550220 0.923940 -0.086311
C41   C     C_R   0.008240 0.667719 0.031228 -0.127176
C42   C     C_R   0.023358 0.662183 0.958791 -0.127905
C43   C     C_R   0.508241 0.167719 0.031228 -0.127178
C44   C     C_R   0.523359 0.162183 0.958790 -0.127906
H5    H     H_    0.482889 0.069530 0.125676 0.147225
H6    H     H_    0.535313 0.049632 0.867796 0.147295
H7    H     H_    0.982888 0.569530 0.125677 0.147229
H8    H     H_    0.035312 0.549632 0.867796 0.147287
H9    H     H_    0.006404 0.755192 0.057672 0.113307
H10   H     H_    0.034711 0.745090 0.929245 0.119014
H11   H     H_    0.506405 0.255192 0.057671 0.113298
H12   H     H_    0.534712 0.245090 0.929244 0.119016
C45   C     C_2   0.249029 0.578859 0.920555 -0.108578
C46   C     C_2   0.751058 0.579928 0.079596 -0.109497
C47   C     C_2   0.749029 0.078859 0.920555 -0.108564
C48   C     C_2   0.251058 0.079927 0.079596 -0.109504
C49   C     C_2   0.249981 0.587268 0.076951 -0.104236
C50   C     C_2   0.749883 0.586449 0.922803 -0.101291
C51   C     C_2   0.749981 0.087268 0.076951 -0.104224
C52   C     C_2   0.249883 0.086449 0.922803 -0.101317
C53   C     C_2   0.295088 0.521769 0.037633 -0.165709
C54   C     C_2   0.705407 0.520298 0.963024 -0.163392
C55   C     C_2   0.795088 0.021769 0.037633 -0.165704
C56   C     C_2   0.205407 0.020298 0.963024 -0.163395
C57   C     C_2   0.303793 0.545700 0.961406 -0.163127
C58   C     C_2   0.696485 0.545378 0.039020 -0.163450
C59   C     C_2   0.803793 0.045700 0.961406 -0.163126
C60   C     C_2   0.196485 0.045377 0.039020 -0.163453
H13   H     H_    0.325032 0.447044 0.060837 0.154692
H14   H     H_    0.676055 0.444536 0.940718 0.153183
H15   H     H_    0.825032 0.947044 0.060837 0.154697
H16   H     H_    0.176056 0.944535 0.940718 0.153184
H17   H     H_    0.356485 0.539365 0.939537 0.151163
H18   H     H_    0.643782 0.538505 0.060925 0.155795
H19   H     H_    0.856485 0.039364 0.939537 0.151165
H20   H     H_    0.143782 0.038505 0.060925 0.155794
H21   H     H_    0.221848 0.664190 0.053749 0.113429
H22   H     H_    0.777489 0.664206 0.945146 0.113742
H23   H     H_    0.721848 0.164190 0.053749 0.113425
H24   H     H_    0.277489 0.164206 0.945146 0.113743
H25   H     H_    0.196164 0.581396 0.942448 0.114641
H26   H     H_    0.803907 0.583140 0.057674 0.113024
H27   H     H_    0.696164 0.081396 0.942448 0.114641
H28   H     H_    0.303908 0.083140 0.057674 0.113026
C61   C     C_2   0.511115 0.838786 0.583746 -0.086878
C62   C     C_2   0.509252 0.828508 0.427830 -0.128993
C63   C     C_2   0.011012 0.338697 0.583662 -0.087130
C64   C     C_2   0.009028 0.328580 0.427732 -0.128496
C65   C     C_2   0.515820 0.728436 0.470863 0.133881
C66   C     C_2   0.530505 0.738551 0.548048 0.143443
C67   C     C_2   0.015345 0.228434 0.470724 0.133902
C68   C     C_2   0.030184 0.238401 0.547883 0.143259
H29   H     H_    0.508041 0.920094 0.448578 0.119475
H30   H     H_    0.501828 0.925508 0.557810 0.117150
H31   H     H_    0.008005 0.420137 0.448525 0.119375
H32   H     H_    0.001779 0.425463 0.557767 0.117179
C69   C     C_2   0.246133 0.562840 0.583968 -0.093342
C70   C     C_2   0.753920 0.560957 0.416075 -0.097734
C71   C     C_2   0.746132 0.062843 0.583969 -0.093293
C72   C     C_2   0.253885 0.060993 0.416092 -0.097758
C73   C     C_2   0.237217 0.567201 0.428559 -0.107744
C74   C     C_2   0.763594 0.567289 0.571002 -0.100450
C75   C     C_2   0.737218 0.067207 0.428558 -0.107660
C76   C     C_2   0.263588 0.067307 0.571011 -0.100478
C77   C     C_2   0.182760 0.544333 0.472736 -0.130941
C78   C     C_2   0.817702 0.541638 0.527131 -0.140153
C79   C     C_2   0.682757 0.044361 0.472734 -0.131038
C80   C     C_2   0.317678 0.041580 0.527133 -0.140069
C81   C     C_2   0.184488 0.567358 0.549419 0.172181
C82   C     C_2   0.815866 0.563648 0.450124 0.167865
C83   C     C_2   0.684488 0.067385 0.549417 0.172170
C84   C     C_2   0.315838 0.063597 0.450128 0.167947
H33   H     H_    0.132760 0.513692 0.451211 0.168346
H34   H     H_    0.867289 0.509211 0.549018 0.169054
H35   H     H_    0.632753 0.013742 0.451210 0.168349
H36   H     H_    0.367253 0.009083 0.549014 0.168998
H37   H     H_    0.288434 0.596809 0.447049 0.125696
H38   H     H_    0.712942 0.598945 0.551987 0.145271
H39   H     H_    0.788438 0.096797 0.447050 0.126078
H40   H     H_    0.212951 0.099047 0.552005 0.145116
H41   H     H_    0.291793 0.522227 0.558693 0.104465
H42   H     H_    0.708179 0.521278 0.441972 0.127700
H43   H     H_    0.791788 0.022214 0.558695 0.104554
H44   H     H_    0.208116 0.021409 0.441999 0.127108
N1    N     N_R   0.119647 0.596645 0.585122 0.097511
O53   O     O_R   0.069130 0.650203 0.550197 -0.265820
O54   O     O_R   0.107254 0.554794 0.649029 -0.330449
N2    N     N_R   0.880808 0.589741 0.413533 0.099861
O55   O     O_R   0.932774 0.639790 0.447678 -0.273049
O56   O     O_R   0.891696 0.547714 0.349716 -0.333317
N3    N     N_R   0.619652 0.096715 0.585116 0.097506
O57   O     O_R   0.569161 0.150365 0.550198 -0.265695
O58   O     O_R   0.607238 0.054839 0.649014 -0.330418
N4    N     N_R   0.380785 0.089601 0.413524 0.099821
O59   O     O_R   0.432778 0.139592 0.447657 -0.273215
O60   O     O_R   0.391643 0.047559 0.349705 -0.333352
N5    N     N_R   0.509346 0.607365 0.442216 0.148338
O61   O     O_R   0.563428 0.534805 0.440708 -0.271910
O62   O     O_R   0.450704 0.573396 0.412683 -0.303343
N6    N     N_R   0.555434 0.633002 0.587092 0.111462
O63   O     O_R   0.524103 0.528012 0.580871 -0.223773
O64   O     O_R   0.601292 0.647099 0.637863 -0.346051
N7    N     N_R   0.008538 0.107449 0.442033 0.148060
O65   O     O_R   0.062402 0.034375 0.440590 -0.270705
O66   O     O_R   0.949913 0.074233 0.412149 -0.304224
N8    N     N_R   0.055031 0.132692 0.586825 0.111754
O67   O     O_R   0.023408 0.027926 0.580744 -0.223847
O68   O     O_R   0.101076 0.146504 0.637453 -0.346058

loop_
_geom_bond_atom_site_label_1
_geom_bond_atom_site_label_2
_geom_bond_distance
_ccdc_geom_bond_type
C18   O42   1.253981 A    
Cr11  O51   1.973557 S    
O4    C12   1.267526 A    
O47   Cr11  1.952128 S    
C65   C66   1.479183 S    
O39   C19   1.267793 A    
O20   Cr12  2.068613 S    
O5    Cr1   1.948889 S    
C39   C41   1.394522 A    
C62   H29   1.078907 S    
C71   C83   1.341114 D    
C43   C44   1.390439 A    
C78   H34   1.088056 S    
O29   Cr1   1.928463 S    
Cr7   O51   1.973010 S    
C29   C30   1.415275 A    
C50   H22   1.087094 S    
C17   C61   1.446275 S    
C41   H9    1.082590 S    
C38   C44   1.393921 A    
N5    O61   1.301340 A    
C14   C75   1.445737 S    
O7    C3    1.271673 A    
C80   C84   1.463069 S    
C33   C34   1.367347 A    
N4    O60   1.301903 A    
C38   H6    1.081500 S    
C46   H26   1.087218 S    
C37   H5    1.080922 S    
C12   C48   1.455585 S    
C84   N4    1.441484 S    
C22   C70   1.451504 S    
O26   Cr2   2.055376 S    
C27   C31   1.422766 A    
O46   Cr10  1.947086 S    
C5    C26   1.460796 S    
C26   C30   1.417097 A    
C48   H28   1.087217 S    
C51   C55   1.342971 D    
O21   C9    1.271156 A    
O8    Cr4   1.936121 S    
O23   Cr11  1.930528 S    
C7    C28   1.460797 S    
C43   H11   1.082591 S    
O30   C14   1.273188 A    
C61   C66   1.341899 D    
O32   Cr4   1.941346 S    
C1    O9    1.267469 A    
C46   C58   1.343406 D    
O25   Cr1   2.068550 S    
C18   C62   1.455414 S    
C3    O11   1.267469 A    
O11   Cr7   2.060093 S    
C67   C68   1.479133 S    
C26   C33   1.401536 A    
O33   Cr5   2.059107 S    
N6    O63   1.301382 A    
N1    O54   1.301963 A    
C69   H41   1.086856 S    
C70   C82   1.341254 D    
C7    O19   1.266519 A    
O3    Cr3   2.046631 S    
C73   H37   1.084909 S    
C78   C82   1.463090 S    
O47   C23   1.269620 A    
O2    Cr2   2.060144 S    
C56   C60   1.463259 S    
C45   C57   1.342401 D    
C29   C37   1.415053 A    
O2    C10   1.267526 A    
C59   H19   1.086022 S    
C37   C43   1.394521 A    
C77   H33   1.087587 S    
N3    O57   1.301269 A    
C10   C46   1.455582 S    
C23   C71   1.451472 S    
C9    C45   1.453510 S    
C24   C72   1.451443 S    
C42   H10   1.082598 S    
C54   C58   1.463258 S    
C52   C56   1.342854 D    
O6    Cr2   1.936121 S    
C47   H27   1.087245 S    
N5    O62   1.301339 A    
O31   Cr3   1.928463 S    
O24   Cr12  1.936310 S    
O9    Cr5   2.060093 S    
C32   C40   1.414199 A    
C1    C52   1.455146 S    
O30   Cr2   1.941346 S    
N4    O59   1.301238 A    
O22   C10   1.270583 A    
O1    C9    1.267328 A    
O48   Cr12  1.947086 S    
C4    O12   1.267654 A    
C3    C50   1.455146 S    
C65   N5    1.439694 S    
C64   H31   1.078859 S    
C62   C65   1.362888 D    
N2    O56   1.301904 A    
C2    O10   1.267654 A    
C8    C27   1.462622 S    
C44   H12   1.082599 S    
O16   Cr8   1.950363 S    
N8    O67   1.301516 A    
C52   H24   1.087095 S    
C48   C60   1.343406 D    
O7    Cr3   1.948889 S    
C4    C49   1.453863 S    
O27   C23   1.269287 A    
Cr10  O50   1.972711 S    
C75   C79   1.349360 D    
O13   C5    1.271797 A    
Cr4   O52   1.979672 S    
O28   Cr4   2.055376 S    
C47   C59   1.342400 D    
O48   C24   1.269929 A    
O12   Cr8   2.050592 S    
O22   Cr10  1.936310 S    
O15   C7    1.271797 A    
C20   C64   1.455320 S    
N7    O65   1.301489 A    
O5    C1    1.271672 A    
C15   O35   1.258563 A    
C58   H18   1.086433 S    
O39   Cr7   1.939976 S    
O25   C21   1.269295 A    
C55   C59   1.461190 S    
O45   Cr9   1.952128 S    
C31   C32   1.415275 A    
C13   O33   1.258562 A    
C69   C81   1.341103 D    
O8    C4    1.270569 A    
C68   N8    1.444861 S    
C74   H38   1.084242 S    
O13   Cr5   1.943298 S    
C53   H13   1.086357 S    
O29   C13   1.272321 A    
Cr2   O50   1.979672 S    
O15   Cr7   1.943298 S    
O32   C16   1.273185 A    
O35   Cr7   2.059107 S    
Cr1   O49   1.979692 S    
O18   Cr10  2.068613 S    
C81   N1    1.441488 S    
C53   C57   1.461188 S    
Cr3   O51   1.979692 S    
O26   C22   1.269278 A    
N7    O66   1.301527 A    
O21   Cr9   1.930528 S    
O27   Cr3   2.068550 S    
O37   Cr5   1.939976 S    
C6    C25   1.462622 S    
O23   C11   1.271155 A    
O3    C11   1.267329 A    
C2    C51   1.453862 S    
C54   H14   1.086423 S    
C13   C76   1.445164 S    
C25   C29   1.422768 A    
O34   Cr6   2.067865 S    
C15   C74   1.445206 S    
C71   H43   1.086849 S    
C27   C36   1.396097 A    
C8    O20   1.273596 A    
O14   Cr6   1.950363 S    
O38   C18   1.279066 A    
C80   H36   1.088060 S    
C5    O17   1.266518 A    
O37   C17   1.267615 A    
O28   C24   1.269319 A    
H1    C33   1.083470 S    
C63   C68   1.342068 D    
O14   C6    1.267713 A    
C79   H35   1.087583 S    
C57   H17   1.086022 S    
C64   C67   1.362659 D    
Cr12  O52   1.972711 S    
H3    C35   1.083469 S    
N2    O55   1.301239 A    
O17   Cr9   2.072485 S    
C72   H44   1.086277 S    
C25   C34   1.396097 A    
O6    C2    1.270570 A    
C79   C83   1.462155 S    
O24   C12   1.270582 A    
C17   O41   1.266029 A    
C74   C78   1.349120 D    
C63   H32   1.079100 S    
C56   H16   1.086422 S    
C31   C39   1.415052 A    
C14   O34   1.259375 A    
C82   N2    1.441482 S    
C19   O43   1.265945 A    
C30   C38   1.414199 A    
C19   C63   1.446348 S    
C75   H39   1.084910 S    
C61   H30   1.079179 S    
C20   O44   1.254144 A    
C66   N6    1.444953 S    
C40   H8    1.081501 S    
H2    C34   1.084094 S    
C11   C47   1.453510 S    
O40   Cr8   1.932251 S    
O1    Cr1   2.046631 S    
Cr8   O52   1.973532 S    
N6    O64   1.301588 A    
C72   C84   1.341241 D    
C41   C42   1.390441 A    
C73   C77   1.349362 D    
Cr6   O50   1.973532 S    
O46   C22   1.269999 A    
C40   C42   1.393920 A    
C83   N3    1.441469 S    
C76   H40   1.084228 S    
O45   C21   1.269610 A    
C28   C32   1.417098 A    
O19   Cr11  2.072485 S    
C45   H25   1.087245 S    
C39   H7    1.080921 S    
N8    O68   1.301649 A    
O10   Cr6   2.050592 S    
O42   Cr10  2.054133 S    
O16   C8    1.267715 A    
C21   C69   1.451486 S    
O4    Cr4   2.060144 S    
C55   H15   1.086357 S    
H4    C36   1.084094 S    
Cr5   O49   1.973010 S    
C16   C73   1.445742 S    
C49   C53   1.342972 D    
C16   O36   1.259371 A    
O40   C20   1.278949 A    
O44   Cr12  2.054133 S    
C60   H20   1.086433 S    
N1    O53   1.301249 A    
C6    O18   1.273596 A    
C28   C35   1.401537 A    
O43   Cr11  2.049623 S    
C35   C36   1.367346 A    
N3    O58   1.301975 A    
C50   C54   1.342854 D    
O41   Cr9   2.049623 S    
C70   H42   1.086185 S    
C77   C81   1.462172 S    
O36   Cr8   2.067865 S    
C67   N7    1.439693 S    
O31   C15   1.272325 A    
C49   H21   1.087134 S    
Cr9   O49   1.973557 S    
C76   C80   1.349105 D    
C51   H23   1.087134 S    
O38   Cr6   1.932251 S    
