data_mof_unit_38172.cif
_audit_creation_date              2012-12-11T17:41:21-0500
_audit_creation_method            fapswitch 2.2
_symmetry_space_group_name_H-M    P1
_symmetry_Int_Tables_number       1
_space_group_crystal_system       triclinic
_cell_length_a                    15.576173
_cell_length_b                    15.17199
_cell_length_c                    15.098726
_cell_angle_alpha                 109.452426
_cell_angle_beta                  121.274307
_cell_angle_gamma                 58.349833
_cell_volume                      2587.06170177

loop_
_atom_site_label
_atom_site_type_symbol
_atom_type_description
_atom_site_fract_x
_atom_site_fract_y
_atom_site_fract_z
_atom_type_partial_charge
C1    C     C_R   0.778203 0.970891 0.787928 0.309295
C2    C     C_R   0.197547 0.058789 0.224945 0.332956
C3    C     C_R   0.134928 0.272034 0.477917 0.053019
C4    C     C_R   0.791856 0.700545 0.437256 0.045061
C5    C     C_R   0.501786 0.309841 0.461008 -0.028229
C6    C     C_R   0.499540 0.698282 0.558132 -0.017567
C7    C     C_R   0.495967 0.958981 0.808297 0.036867
C8    C     C_R   0.505794 0.057643 0.200488 0.024632
C9    C     C_R   0.686246 0.624056 0.898484 -0.069579
C10   C     C_R   0.313493 0.394796 0.122109 -0.058827
C11   C     C_R   0.613980 0.728429 0.910093 -0.113054
C12   C     C_R   0.387596 0.291918 0.108249 -0.115947
C13   C     C_R   0.656105 0.802204 0.966053 0.076842
C14   C     C_R   0.347412 0.217838 0.045891 0.073840
C15   C     C_R   0.771927 0.770006 0.012558 -0.137339
C16   C     C_R   0.231778 0.248212 0.995879 -0.135432
C17   C     C_R   0.844103 0.665624 0.000673 0.000505
C18   C     C_R   0.157774 0.351041 0.010227 -0.017869
C19   C     C_R   0.801311 0.592645 0.943796 -0.007002
C20   C     C_R   0.198591 0.424343 0.073156 0.000372
C21   C     C_R   0.588831 0.945156 0.084207 -0.148723
C22   C     C_R   0.417988 0.076998 0.927184 -0.152927
C23   C     C_R   0.197691 0.273577 0.440134 0.000448
C24   C     C_R   0.759710 0.710966 0.511769 -0.012412
C25   C     C_R   0.511067 0.042930 0.104873 0.113663
C26   C     C_R   0.494199 0.978173 0.906299 0.111804
C27   C     C_R   0.425813 0.110696 0.026507 0.021548
C28   C     C_R   0.579993 0.910861 0.984928 0.013720
C29   C     C_2   0.014669 0.333871 0.436046 0.223823
C30   C     C_2   0.862282 0.600867 0.399492 0.254455
C31   C     C_2   0.976292 0.434121 0.470935 0.219520
C32   C     C_2   0.867171 0.512799 0.408622 0.234851
C33   C     C_2   0.874068 0.086810 0.900414 -0.147841
C34   C     C_2   0.028875 0.018627 0.142969 -0.119868
C35   C     C_R   0.246684 0.823088 0.672171 0.383563
C36   C     C_R   0.755861 0.195720 0.348903 0.409755
C37   C     C_R   0.337200 0.741456 0.652764 -0.211997
C38   C     C_R   0.666129 0.275501 0.370678 -0.171396
C39   C     C_R   0.319137 0.677241 0.559620 0.052857
C40   C     C_R   0.685590 0.332549 0.468114 0.084421
C41   C     C_R   0.208816 0.696582 0.485768 -0.110344
C42   C     C_R   0.796359 0.308853 0.543302 -0.126078
C43   C     C_R   0.118652 0.778942 0.504744 -0.107801
C44   C     C_R   0.885662 0.228630 0.521712 -0.144435
C45   C     C_R   0.593987 0.222081 0.505923 -0.184689
C46   C     C_R   0.406890 0.780981 0.503364 -0.155243
C47   C     C_R   0.137514 0.841945 0.597908 -0.160026
C48   C     C_R   0.865463 0.171867 0.424810 -0.113736
C49   C     C_R   0.415467 0.493163 0.505867 -0.188004
C50   C     C_R   0.591817 0.513756 0.527299 -0.166033
C51   C     C_R   0.500713 0.408878 0.480173 0.076341
C52   C     C_R   0.504386 0.599211 0.548833 0.070439
C53   C     C_R   0.591102 0.418352 0.491906 0.025906
C54   C     C_R   0.414773 0.589617 0.538708 0.030439
C55   C     C_2   0.866961 0.086722 0.985363 -0.107137
C56   C     C_2   0.949821 0.101085 0.087743 0.011633
C57   C     C_R   0.404677 0.001190 0.719308 -0.122580
C58   C     C_R   0.595396 0.010654 0.287127 -0.146532
C59   C     C_R   0.408675 0.294494 0.423278 0.312429
C60   C     C_R   0.591465 0.712599 0.588935 0.294549
C61   C     C_R   0.589995 0.926886 0.796204 -0.071111
C62   C     C_R   0.411665 0.081272 0.207967 -0.031652
C63   C     C_R   0.196335 0.182673 0.528391 -0.087844
C64   C     C_R   0.759837 0.800103 0.419302 -0.076762
C65   C     C_R   0.769722 0.072220 0.701253 -0.165735
C66   C     C_R   0.201490 0.962292 0.312440 -0.166179
C67   C     C_R   0.811731 0.044034 0.799828 0.059179
C68   C     C_R   0.138335 0.013494 0.222837 0.051245
H1    H     H_    0.857246 0.511824 0.934939 0.109687
H2    H     H_    0.141274 0.503964 0.083992 0.113065
H3    H     H_    0.653162 0.567435 0.855202 0.125502
H4    H     H_    0.345078 0.451683 0.170295 0.133952
H5    H     H_    0.525802 0.751486 0.879068 0.151201
H6    H     H_    0.475824 0.270378 0.142967 0.153979
H7    H     H_    0.933184 0.641234 0.036059 0.118009
H8    H     H_    0.068817 0.373999 0.972170 0.117193
H9    H     H_    0.067319 0.905164 0.612444 0.149533
H10   H     H_    0.935031 0.110222 0.408331 0.148709
H11   H     H_    0.164036 0.321308 0.380455 0.200325
H12   H     H_    0.777298 0.649569 0.547953 0.178813
H13   H     H_    0.421369 0.727475 0.709716 0.140258
H14   H     H_    0.581560 0.293704 0.312337 0.133462
H15   H     H_    0.680866 0.204115 0.538432 0.123805
H16   H     H_    0.319944 0.798022 0.469942 0.123878
H17   H     H_    0.317475 0.029836 0.699757 0.129227
H18   H     H_    0.682301 0.987981 0.310589 0.126965
H19   H     H_    0.164117 0.148837 0.549851 0.099350
H20   H     H_    0.775371 0.819922 0.368271 0.122147
H21   H     H_    0.954036 0.174394 0.109200 0.211600
H22   H     H_    0.812022 0.059963 0.980341 0.180353
N1    N     N_R   0.705410 0.966550 0.689210 -0.068883
N2    N     N_R   0.294590 0.033450 0.310790 -0.074835
N3    N     N_R   0.294590 0.188320 0.465660 -0.058299
N4    N     N_R   0.705410 0.811680 0.534340 -0.043020
N5    N     N_R   0.556610 0.157790 0.497330 -0.056990
N6    N     N_R   0.443390 0.842210 0.502670 -0.057284
N7    N     N_R   0.443390 0.997080 0.657540 -0.051135
N8    N     N_R   0.556610 0.002920 0.342460 -0.050369
N9    N     N_R   0.443390 0.203250 0.451380 -0.068285
N10   N     N_R   0.556610 0.796750 0.548620 -0.066777
N11   N     N_R   0.556610 0.951620 0.703500 -0.047424
N12   N     N_R   0.443390 0.048380 0.296500 -0.043239
N13   N     N_R   0.294590 0.131500 0.522480 -0.056118
N14   N     N_R   0.705410 0.868500 0.477520 -0.057354
N15   N     N_R   0.705410 0.023370 0.632390 -0.060549
N16   N     N_R   0.294590 0.976630 0.367610 -0.063009
Ni1   Ni    Ni4+2 0.629830 0.882720 0.617850 0.301519
Ni2   Ni    Ni4+2 0.370170 0.117280 0.382150 0.282373
Ni3   Ni    Ni4+2 0.629830 0.013030 0.487540 0.217446
Ni4   Ni    Ni4+2 0.370170 0.986970 0.512460 0.209904
Br1   Br    Br    0.867598 0.857186 0.873679 -0.556564
Br2   Br    Br    0.138841 0.168262 0.144378 -0.601222
H23   H     H_    0.018245 0.947887 0.121164 0.165791
H24   H     H_    0.928709 0.114323 0.905946 0.172108
H25   H     H_    0.805999 0.825741 0.057879 0.151846
H26   H     H_    0.199263 0.192210 0.946208 0.156267
H27   H     H_    0.651705 0.891003 0.143790 0.131553
H28   H     H_    0.355425 0.130696 0.867151 0.134100
Br3   Br    Br    0.734626 0.504251 0.377392 -0.535217
Br4   Br    Br    0.067384 0.481771 0.605065 -0.472745
Br5   Br    Br    0.978944 0.596657 0.382804 -0.526830
Br6   Br    Br    0.927706 0.280741 0.305427 -0.500496
Br7   Br    Br    0.271340 0.907931 0.800538 -0.615531
Br8   Br    Br    0.729769 0.120650 0.215063 -0.606834
H29   H     H_    0.192611 0.648697 0.412918 0.167682
H30   H     H_    0.813459 0.351892 0.619011 0.144078
H31   H     H_    0.034052 0.793837 0.447261 0.161114
H32   H     H_    0.970601 0.210638 0.580040 0.137093
H33   H     H_    0.350551 0.483431 0.504279 0.178159
H34   H     H_    0.658110 0.522234 0.530441 0.192431
Br9   Br    Br    0.266821 0.366884 0.315068 -0.577849
Br10  Br    Br    0.732867 0.653541 0.704332 -0.586546
H35   H     H_    0.674652 0.885753 0.849329 0.176312
H36   H     H_    0.327929 0.123089 0.154232 0.176471
H37   H     H_    0.786029 0.123368 0.683134 0.120840
H38   H     H_    0.174317 0.929380 0.341024 0.123259

loop_
_geom_bond_atom_site_label_1
_geom_bond_atom_site_label_2
_ccdc_geom_bond_type
C33   C55   D    
C66   C68   A    
C55   C56   S    
C34   C56   D    
C12   H6    S    
C59   N9    A    
N1    N15   A    
C3    C23   A    
C58   N8    A    
C35   C47   A    
N3    N13   A    
C61   H35   S    
C39   C41   A    
C34   H23   S    
N9    Ni2   S    
C59   Br9   S    
C33   H24   S    
C7    C26   S    
N13   Ni4   S    
C36   Br8   S    
C41   H29   S    
C9    C19   A    
C55   H22   S    
C2    C68   A    
N3    Ni2   S    
N14   Ni3   S    
C4    C24   A    
N5    N9    A    
C64   H20   S    
C39   C54   S    
C49   C54   A    
C16   H26   S    
C22   H28   S    
C48   H10   S    
C3    C29   S    
C7    C61   A    
C21   H27   S    
C50   H34   S    
C8    C58   A    
C24   H12   S    
N2    Ni2   S    
C10   C20   A    
C49   C51   A    
C50   C52   A    
C13   C28   S    
N12   Ni2   S    
C14   C27   S    
C18   C20   A    
C63   H19   S    
C40   C42   A    
N4    N14   A    
C1    N1    A    
N8    Ni3   S    
N6    Ni4   S    
C38   H14   S    
C8    C25   S    
C41   C43   A    
C37   H13   S    
C45   H15   S    
C42   C44   A    
C66   N16   A    
C58   H18   S    
C65   N15   A    
N15   Ni3   S    
C52   C54   A    
N4    Ni1   S    
C50   C53   A    
C5    C59   A    
C6    C60   A    
C63   N13   A    
N5    Ni3   S    
C34   C68   S    
C2    Br2   S    
C65   C67   A    
N8    N12   A    
C49   H33   S    
C23   N3    A    
C51   C53   A    
C61   N11   A    
C24   N4    A    
C31   C32   S    
C30   Br5   S    
C57   N7    A    
C29   Br6   S    
C16   C18   A    
C2    N2    A    
C9    C11   A    
C65   H37   S    
C10   C12   A    
C66   H38   S    
N2    N16   A    
C56   H21   S    
C21   C28   A    
C12   C14   A    
C22   C27   A    
C13   C15   A    
C11   H5    S    
C14   C16   A    
C19   H1    S    
C47   H9    S    
C32   Br3   S    
C43   H31   S    
C45   N5    A    
C20   H2    S    
N16   Ni4   S    
C64   N14   A    
C21   C25   A    
C44   H32   S    
N10   Ni1   S    
C18   H8    S    
C60   Br10  S    
C6    C46   A    
C35   C37   A    
C9    H3    S    
C60   N10   A    
C15   C17   A    
C3    C63   A    
C25   C27   A    
C4    C64   A    
C26   C28   A    
C6    C52   S    
C62   H36   S    
C36   C38   A    
C29   C31   D    
C33   C67   S    
C1    Br1   S    
C30   C32   D    
N7    Ni4   S    
C11   C13   A    
C38   C40   A    
C5    C45   A    
N6    N10   A    
C35   Br7   S    
C1    C67   A    
C57   H17   S    
C36   C48   A    
C15   H25   S    
N7    N11   A    
C31   Br4   S    
C46   H16   S    
C42   H30   S    
C17   C19   A    
C46   N6    A    
C37   C39   A    
C40   C53   S    
C22   C26   A    
N11   Ni1   S    
C17   H7    S    
C5    C51   S    
C23   H11   S    
C43   C47   A    
C7    C57   A    
C4    C30   S    
C44   C48   A    
C8    C62   A    
C62   N12   A    
N1    Ni1   S    
C10   H4    S    
