data_mof_unit_65520.cif
_audit_creation_date              2013-03-05T15:52:55-0500
_audit_creation_method            fapswitch 2.2
_symmetry_space_group_name_H-M    P1
_symmetry_Int_Tables_number       1
_space_group_crystal_system       triclinic
_cell_length_a                    30.23799
_cell_length_b                    30.237751
_cell_length_c                    38.710575
_cell_angle_alpha                 90.000533
_cell_angle_beta                  90.000874
_cell_angle_gamma                 90.005094
_cell_volume                      35394.19392

loop_
_atom_site_label
_atom_site_type_symbol
_atom_site_description
_atom_site_fract_x
_atom_site_fract_y
_atom_site_fract_z
_atom_type_partial_charge
O1    O     O_R   0.537270 0.933900 0.000070 -0.583422
O2    O     O_R   0.066100 0.537270 0.000070 -0.583083
O3    O     O_R   0.462730 0.066100 0.000070 -0.583421
O4    O     O_R   0.933900 0.462730 0.000070 -0.583223
O5    O     O_R   0.537270 0.066100 0.999930 -0.583439
O6    O     O_R   0.066100 0.462730 0.999930 -0.583117
O7    O     O_R   0.462730 0.933900 0.999930 -0.583435
O8    O     O_R   0.933900 0.537270 0.999930 -0.583213
O9    O     O_R   0.037270 0.433900 0.500070 -0.583395
O10   O     O_R   0.566100 0.037270 0.500070 -0.583224
O11   O     O_R   0.962730 0.566100 0.500070 -0.583408
O12   O     O_R   0.433900 0.962730 0.500070 -0.583176
O13   O     O_R   0.037270 0.566100 0.499930 -0.583421
O14   O     O_R   0.566100 0.962730 0.499930 -0.583215
O15   O     O_R   0.962730 0.433900 0.499930 -0.583408
O16   O     O_R   0.433900 0.037270 0.499930 -0.583182
O17   O     O_R   0.433830 0.500000 0.028800 -0.602533
O18   O     O_R   0.500000 0.433830 0.028800 -0.602579
O19   O     O_R   0.566170 0.500000 0.028800 -0.602542
O20   O     O_R   0.500000 0.566170 0.028800 -0.602499
O21   O     O_R   0.433830 0.500000 0.971200 -0.602475
O22   O     O_R   0.500000 0.566170 0.971200 -0.602575
O23   O     O_R   0.566170 0.500000 0.971200 -0.602541
O24   O     O_R   0.500000 0.433830 0.971200 -0.602497
O25   O     O_R   0.933830 0.000000 0.528800 -0.602541
O26   O     O_R   1.000000 0.933830 0.528800 -0.602519
O27   O     O_R   0.066170 0.000000 0.528800 -0.602530
O28   O     O_R   1.000000 0.066170 0.528800 -0.602545
O29   O     O_R   0.933830 0.000000 0.471200 -0.602536
O30   O     O_R   0.000000 0.066170 0.471200 -0.602517
O31   O     O_R   0.066170 0.000000 0.471200 -0.602519
O32   O     O_R   1.000000 0.933830 0.471200 -0.602551
C1    C     C_R   0.499998 0.913410 0.000000 0.968438
C2    C     C_R   0.086590 0.500004 0.999999 0.967630
C3    C     C_R   0.500002 0.086590 0.000000 0.968445
C4    C     C_R   0.913410 0.499998 1.000000 0.967909
C5    C     C_R   0.999998 0.413410 0.500000 0.968385
C6    C     C_R   0.586590 0.000002 0.500000 0.967903
C7    C     C_R   0.000002 0.586590 0.500000 0.968403
C8    C     C_R   0.413410 0.999997 0.499999 0.967809
O33   O     O_R   0.537260 0.999970 0.050990 -0.602248
O34   O     O_R   0.000030 0.537260 0.050990 -0.601190
O35   O     O_R   0.462740 0.000030 0.050990 -0.602247
O36   O     O_R   0.999970 0.462740 0.050990 -0.601145
O37   O     O_R   0.537260 0.000030 0.949010 -0.602277
O38   O     O_R   0.000030 0.462740 0.949010 -0.601146
O39   O     O_R   0.462740 0.999970 0.949010 -0.602281
O40   O     O_R   0.999970 0.537260 0.949010 -0.601081
O41   O     O_R   0.037260 0.499970 0.550990 -0.602248
O42   O     O_R   0.500030 0.037260 0.550990 -0.601147
O43   O     O_R   0.962740 0.500030 0.550990 -0.602240
O44   O     O_R   0.499970 0.962740 0.550990 -0.601158
O45   O     O_R   0.037260 0.500030 0.449010 -0.602271
O46   O     O_R   0.500030 0.962740 0.449010 -0.601123
O47   O     O_R   0.962740 0.499970 0.449010 -0.602279
O48   O     O_R   0.499970 0.037260 0.449010 -0.601146
C9    C     C_R   0.500000 1.000000 0.067216 0.924063
C10   C     C_R   0.000001 0.500000 0.067226 0.922795
C11   C     C_R   0.500000 0.000000 0.932783 0.924099
C12   C     C_R   0.000002 0.499999 0.932774 0.922790
C13   C     C_R   0.000000 0.500001 0.567217 0.923999
C14   C     C_R   0.500000 0.000000 0.567226 0.922908
C15   C     C_R   1.000000 0.500000 0.432783 0.924029
C16   C     C_R   0.499999 1.000000 0.432774 0.922918
Zn1   Zn    Zn3+2 0.549780 0.000000 0.000000 1.147089
Zn2   Zn    Zn3+2 0.000000 0.549780 0.000000 1.150391
Zn3   Zn    Zn3+2 0.450220 0.000000 0.000000 1.147099
Zn4   Zn    Zn3+2 0.000000 0.450220 0.000000 1.150263
Zn5   Zn    Zn3+2 0.049780 0.500000 0.500000 1.147132
Zn6   Zn    Zn3+2 0.500000 0.049780 0.500000 1.150227
Zn7   Zn    Zn3+2 0.950220 0.500000 0.500000 1.147133
Zn8   Zn    Zn3+2 0.500000 0.950220 0.500000 1.150271
C17   C     C_R   0.413250 0.500004 0.999999 0.843705
C18   C     C_R   0.500000 0.413246 1.000000 0.843727
C19   C     C_R   0.586753 0.500000 0.000000 0.843687
C20   C     C_R   0.499999 0.586754 0.000000 0.843695
C21   C     C_R   0.913247 0.000000 0.500000 0.843688
C22   C     C_R   0.000001 0.913246 0.500000 0.843706
C23   C     C_R   0.086752 0.999999 0.500000 0.843698
C24   C     C_R   0.999999 0.086753 0.500000 0.843720
C25   C     C_R   0.474660 0.968433 0.123177 -0.130964
C26   C     C_R   0.030364 0.473216 0.123218 -0.129485
C27   C     C_R   0.525341 0.031562 0.123179 -0.130961
C28   C     C_R   0.969623 0.526782 0.123214 -0.129378
C29   C     C_R   0.474629 0.031535 0.876819 -0.130974
C30   C     C_R   0.030403 0.526764 0.876789 -0.129441
C31   C     C_R   0.525370 0.968464 0.876821 -0.130968
C32   C     C_R   0.969627 0.473227 0.876781 -0.129380
C33   C     C_R   0.974664 0.468439 0.623180 -0.130972
C34   C     C_R   0.530380 0.973225 0.623215 -0.129404
C35   C     C_R   0.025344 0.531568 0.623177 -0.130959
C36   C     C_R   0.469627 0.026778 0.623216 -0.129439
C37   C     C_R   0.974630 0.531539 0.376821 -0.130968
C38   C     C_R   0.530374 0.026781 0.376783 -0.129397
C39   C     C_R   0.025364 0.468463 0.376819 -0.130984
C40   C     C_R   0.469619 0.973220 0.376784 -0.129420
C41   C     C_R   0.474375 0.968546 0.159419 0.260353
C42   C     C_R   0.030284 0.473006 0.159465 0.257785
C43   C     C_R   0.525625 0.031447 0.159422 0.260352
C44   C     C_R   0.969693 0.526989 0.159461 0.257743
C45   C     C_R   0.474341 0.031416 0.840578 0.260330
C46   C     C_R   0.030334 0.526974 0.840542 0.257791
C47   C     C_R   0.525661 0.968585 0.840579 0.260346
C48   C     C_R   0.969708 0.473018 0.840534 0.257739
C49   C     C_R   0.974383 0.468555 0.659422 0.260362
C50   C     C_R   0.530308 0.973019 0.659462 0.257756
C51   C     C_R   0.025635 0.531453 0.659419 0.260357
C52   C     C_R   0.469704 0.026987 0.659463 0.257764
C53   C     C_R   0.974338 0.531420 0.340580 0.260338
C54   C     C_R   0.530297 0.026989 0.340537 0.257748
C55   C     C_R   0.025651 0.468583 0.340577 0.260340
C56   C     C_R   0.469693 0.973010 0.340537 0.257767
C57   C     C_R   0.499999 0.999996 0.177473 -0.169753
C58   C     C_R   0.999987 0.499998 0.177416 -0.169979
C59   C     C_R   0.500002 0.000002 0.822526 -0.169743
C60   C     C_R   0.000023 0.499997 0.822585 -0.169993
C61   C     C_R   0.000012 0.500004 0.677473 -0.169758
C62   C     C_R   0.500007 0.000004 0.677415 -0.169975
C63   C     C_R   0.999993 0.500001 0.322526 -0.169750
C64   C     C_R   0.499995 0.999999 0.322584 -0.169978
C65   C     C_R   0.500001 0.999998 0.105066 -0.149758
C66   C     C_R   0.999996 0.500000 0.105093 -0.149353
C67   C     C_R   0.499999 0.999999 0.894933 -0.149769
C68   C     C_R   0.000010 0.499997 0.894907 -0.149380
C69   C     C_R   0.000002 0.500003 0.605066 -0.149777
C70   C     C_R   0.500002 0.000001 0.605093 -0.149348
C71   C     C_R   0.999998 0.500001 0.394933 -0.149782
C72   C     C_R   0.499997 1.000000 0.394907 -0.149345
N1    N     N_R   0.493677 0.038182 0.232969 -0.075563
N2    N     N_R   0.006200 0.538211 0.232715 -0.077441
N3    N     N_R   0.506315 0.961811 0.232970 -0.075558
N4    N     N_R   0.993771 0.461789 0.232716 -0.077424
N5    N     N_R   0.493717 0.961811 0.767029 -0.075569
N6    N     N_R   0.006254 0.461793 0.767284 -0.077440
N7    N     N_R   0.506295 0.038195 0.767031 -0.075569
N8    N     N_R   0.993796 0.538208 0.767287 -0.077436
N9    N     N_R   0.993706 0.538188 0.732972 -0.075561
N10   N     N_R   0.506211 0.038217 0.732716 -0.077422
N11   N     N_R   0.006337 0.461816 0.732969 -0.075566
N12   N     N_R   0.493805 0.961790 0.732714 -0.077428
N13   N     N_R   0.993687 0.461810 0.267031 -0.075576
N14   N     N_R   0.506227 0.961790 0.267285 -0.077429
N15   N     N_R   0.006288 0.538190 0.267030 -0.075582
N16   N     N_R   0.493763 0.038204 0.267285 -0.077434
C73   C     C_R   0.499994 0.999998 0.284911 0.412041
C74   C     C_R   0.999989 0.500001 0.284719 0.405531
C75   C     C_R   0.500008 0.000004 0.715089 0.412010
C76   C     C_R   0.000019 0.500003 0.715282 0.405499
C77   C     C_R   0.000026 0.500000 0.784911 0.412061
C78   C     C_R   0.500005 0.000003 0.784718 0.405510
C79   C     C_R   0.999985 0.499999 0.215089 0.412013
C80   C     C_R   0.499997 0.999997 0.215281 0.405490
Zn9   Zn    Zn3+2 0.500000 0.500000 0.038450 1.111768
Zn10  Zn    Zn3+2 0.500000 0.500000 0.961550 1.111827
Zn11  Zn    Zn3+2 0.000000 0.000000 0.538450 1.111790
Zn12  Zn    Zn3+2 1.000000 0.000000 0.461550 1.111803
C81   C     C_R   0.471158 0.657399 0.977992 -0.057856
C82   C     C_R   0.342590 0.471109 0.978088 -0.057875
C83   C     C_R   0.528837 0.342600 0.977991 -0.057905
C84   C     C_R   0.657404 0.528860 0.978019 -0.057928
C85   C     C_R   0.471184 0.342591 0.022016 -0.057846
C86   C     C_R   0.342635 0.529069 0.021863 -0.058113
C87   C     C_R   0.528816 0.657410 0.022015 -0.057877
C88   C     C_R   0.657397 0.471128 0.021979 -0.057938
C89   C     C_R   0.971137 0.157396 0.478012 -0.057914
C90   C     C_R   0.842595 0.971136 0.478020 -0.057928
C91   C     C_R   0.028851 0.842601 0.478002 -0.057895
C92   C     C_R   0.157406 0.028874 0.478045 -0.057902
C93   C     C_R   0.971169 0.842592 0.522003 -0.057889
C94   C     C_R   0.842603 0.028876 0.521975 -0.057927
C95   C     C_R   0.028843 0.157406 0.521994 -0.057889
C96   C     C_R   0.157386 0.971059 0.521938 -0.057989
C97   C     C_R   0.499992 0.634632 0.000001 -0.152614
C98   C     C_R   0.365379 0.500050 0.999993 -0.152514
C99   C     C_R   0.500005 0.365368 0.000001 -0.152638
C100  C     C_R   0.634629 0.499997 0.000000 -0.152695
C101  C     C_R   0.999994 0.134630 0.500001 -0.152615
C102  C     C_R   0.865371 0.000004 0.499999 -0.152673
C103  C     C_R   0.000006 0.865369 0.500000 -0.152627
C104  C     C_R   0.134626 0.999981 0.499998 -0.152615
C105  C     C_R   0.524193 0.703443 0.025590 -0.014020
C106  C     C_R   0.296585 0.524546 0.025430 -0.014113
C107  C     C_R   0.475807 0.296557 0.025591 -0.014042
C108  C     C_R   0.703434 0.475734 0.025556 -0.014239
C109  C     C_R   0.524227 0.296563 0.974420 -0.014025
C110  C     C_R   0.296565 0.475750 0.974479 -0.014201
C111  C     C_R   0.475767 0.703436 0.974422 -0.014032
C112  C     C_R   0.703439 0.524245 0.974438 -0.014241
C113  C     C_R   0.024227 0.203441 0.525572 -0.014026
C114  C     C_R   0.796567 0.024270 0.525552 -0.014235
C115  C     C_R   0.975790 0.796559 0.525580 -0.014027
C116  C     C_R   0.203428 0.975636 0.525511 -0.014188
C117  C     C_R   0.024245 0.796564 0.474430 -0.014027
C118  C     C_R   0.796561 0.975749 0.474440 -0.014232
C119  C     C_R   0.975741 0.203434 0.474438 -0.014017
C120  C     C_R   0.203437 0.024251 0.474455 -0.014223
C121  C     C_R   0.499979 0.726817 0.000006 0.023389
C122  C     C_R   0.273194 0.500152 0.999956 0.023166
C123  C     C_R   0.500018 0.273183 0.000005 0.023383
C124  C     C_R   0.726815 0.499989 0.999997 0.023144
C125  C     C_R   0.999983 0.226815 0.500005 0.023381
C126  C     C_R   0.773185 0.000011 0.499996 0.023151
C127  C     C_R   0.000019 0.773184 0.500005 0.023382
C128  C     C_R   0.226812 0.999941 0.499983 0.023157
C129  C     C_R   0.542585 0.726486 0.053941 0.241042
C130  C     C_R   0.273546 0.543221 0.053665 0.241164
C131  C     C_R   0.457420 0.273514 0.053943 0.241047
C132  C     C_R   0.726472 0.457287 0.053884 0.241055
C133  C     C_R   0.542626 0.273522 0.946072 0.241042
C134  C     C_R   0.273531 0.457200 0.946191 0.241070
C135  C     C_R   0.457365 0.726477 0.946075 0.241049
C136  C     C_R   0.726478 0.542686 0.946107 0.241055
C137  C     C_R   0.042654 0.226484 0.553909 0.241054
C138  C     C_R   0.773531 0.042723 0.553879 0.241061
C139  C     C_R   0.957382 0.773516 0.553924 0.241042
C140  C     C_R   0.226466 0.957108 0.553807 0.241094
C141  C     C_R   0.042665 0.773523 0.446090 0.241048
C142  C     C_R   0.773521 0.957302 0.446111 0.241060
C143  C     C_R   0.957304 0.226473 0.446106 0.241051
C144  C     C_R   0.226474 0.042734 0.446140 0.241067
C145  C     C_R   0.541140 0.772719 0.054741 -0.142232
C146  C     C_R   0.227315 0.541779 0.054487 -0.142055
C147  C     C_R   0.458865 0.227282 0.054743 -0.142224
C148  C     C_R   0.772703 0.458738 0.054693 -0.141467
C149  C     C_R   0.541182 0.227289 0.945272 -0.142266
C150  C     C_R   0.227304 0.458664 0.945367 -0.141476
C151  C     C_R   0.458809 0.772710 0.945275 -0.142259
C152  C     C_R   0.772708 0.541232 0.945297 -0.141446
C153  C     C_R   0.041206 0.272716 0.554713 -0.142279
C154  C     C_R   0.727299 0.041271 0.554689 -0.141472
C155  C     C_R   0.958829 0.727284 0.554726 -0.142250
C156  C     C_R   0.272697 0.958555 0.554620 -0.141678
C157  C     C_R   0.041220 0.727291 0.445288 -0.142289
C158  C     C_R   0.727290 0.958755 0.445300 -0.141461
C159  C     C_R   0.958750 0.272706 0.445302 -0.142318
C160  C     C_R   0.272703 0.041276 0.445324 -0.141466
C161  C     C_R   0.522877 0.796579 0.026541 -0.055295
C162  C     C_R   0.203424 0.523193 0.026420 -0.055925
C163  C     C_R   0.477125 0.203421 0.026541 -0.055295
C164  C     C_R   0.796575 0.477067 0.026522 -0.055890
C165  C     C_R   0.522910 0.203424 0.973468 -0.055295
C166  C     C_R   0.203432 0.477094 0.973498 -0.055988
C167  C     C_R   0.477085 0.796575 0.973470 -0.055291
C168  C     C_R   0.796578 0.522908 0.973470 -0.055895
C169  C     C_R   0.022905 0.296578 0.526528 -0.055312
C170  C     C_R   0.703426 0.022936 0.526519 -0.055891
C171  C     C_R   0.977110 0.703422 0.526534 -0.055304
C172  C     C_R   0.296576 0.976975 0.526485 -0.055899
C173  C     C_R   0.022926 0.703424 0.473476 -0.055300
C174  C     C_R   0.703421 0.977087 0.473472 -0.055898
C175  C     C_R   0.977061 0.296574 0.473482 -0.055308
C176  C     C_R   0.296574 0.022911 0.473481 -0.055931
C177  C     C_R   0.499979 0.773353 0.000006 0.007263
C178  C     C_R   0.226652 0.500149 0.999958 0.007153
C179  C     C_R   0.500018 0.226647 0.000005 0.007258
C180  C     C_R   0.773353 0.499988 0.999996 0.007089
C181  C     C_R   0.999982 0.273352 0.500005 0.007267
C182  C     C_R   0.726647 0.000012 0.499996 0.007094
C183  C     C_R   0.000019 0.726648 0.500005 0.007261
C184  C     C_R   0.273351 0.999941 0.499983 0.007115
C185  C     C_R   0.525564 0.843027 0.024469 0.227428
C186  C     C_R   0.156955 0.525706 0.024406 0.227284
C187  C     C_R   0.474438 0.156973 0.024470 0.227428
C188  C     C_R   0.843029 0.474424 0.024468 0.226868
C189  C     C_R   0.525582 0.156974 0.975535 0.227477
C190  C     C_R   0.156982 0.474421 0.975564 0.226802
C191  C     C_R   0.474415 0.843026 0.975536 0.227484
C192  C     C_R   0.843031 0.525559 0.975526 0.226851
C193  C     C_R   0.025581 0.343028 0.524459 0.227473
C194  C     C_R   0.656972 0.025579 0.524466 0.226873
C195  C     C_R   0.974428 0.656973 0.524463 0.227446
C196  C     C_R   0.343035 0.974378 0.524445 0.227010
C197  C     C_R   0.025593 0.656974 0.475542 0.227498
C198  C     C_R   0.656967 0.974439 0.475527 0.226864
C199  C     C_R   0.974400 0.343025 0.475546 0.227508
C200  C     C_R   0.343027 0.025566 0.475539 0.226847
C201  C     C_R   0.499993 0.865581 0.000001 -0.269524
C202  C     C_R   0.134422 0.500027 0.999997 -0.269050
C203  C     C_R   0.500007 0.134419 0.000001 -0.269526
C204  C     C_R   0.865581 0.499993 0.999998 -0.269243
C205  C     C_R   0.999993 0.365580 0.500001 -0.269498
C206  C     C_R   0.634419 0.000006 0.499998 -0.269232
C207  C     C_R   0.000007 0.634420 0.500001 -0.269515
C208  C     C_R   0.365580 0.999986 0.499997 -0.269164
C209  C     C_1   0.448711 0.935793 0.104661 0.368470
N17   N     N_1   0.428067 0.909731 0.089839 -0.113423
C210  C     C_1   0.063769 0.448191 0.104763 0.368876
N18   N     N_1   0.090458 0.428309 0.089993 -0.113138
C211  C     C_1   0.551291 0.064202 0.104666 0.368473
N19   N     N_1   0.571936 0.090264 0.089846 -0.113447
C212  C     C_1   0.936220 0.551805 0.104754 0.368744
N20   N     N_1   0.909531 0.571684 0.089980 -0.113424
C213  C     C_1   0.448650 0.064147 0.895333 0.368517
N21   N     N_1   0.427982 0.090187 0.910153 -0.113346
C214  C     C_1   0.063825 0.551763 0.895252 0.368486
N22   N     N_1   0.090528 0.571624 0.910029 -0.113432
C215  C     C_1   0.551345 0.935849 0.895335 0.368509
N23   N     N_1   0.572010 0.909807 0.910155 -0.113374
C216  C     C_1   0.936206 0.448217 0.895235 0.368750
N24   N     N_1   0.909503 0.428347 0.910004 -0.113442
C217  C     C_1   0.948713 0.435799 0.604667 0.368463
N25   N     N_1   0.928067 0.409736 0.589848 -0.113409
C218  C     C_1   0.563787 0.948208 0.604756 0.368731
N26   N     N_1   0.590479 0.928332 0.589984 -0.113422
C219  C     C_1   0.051290 0.564209 0.604661 0.368467
N27   N     N_1   0.071932 0.590271 0.589838 -0.113428
C220  C     C_1   0.436217 0.051793 0.604758 0.368791
N28   N     N_1   0.409522 0.071667 0.589986 -0.113325
C221  C     C_1   0.948658 0.564155 0.395336 0.368504
N29   N     N_1   0.927995 0.590199 0.410157 -0.113359
C222  C     C_1   0.563784 0.051802 0.395241 0.368732
N30   N     N_1   0.590479 0.071681 0.410012 -0.113421
C223  C     C_1   0.051339 0.435848 0.395332 0.368501
N31   N     N_1   0.072004 0.409805 0.410152 -0.113336
C224  C     C_1   0.436207 0.948203 0.395243 0.368642
N32   N     N_1   0.409511 0.928328 0.410016 -0.113418
N33   N     N_R   0.446879 0.937726 0.177878 0.219978
O49   O     O_R   0.417571 0.951961 0.199838 -0.290536
O50   O     O_R   0.450610 0.895431 0.172416 -0.306937
N34   N     N_R   0.062011 0.446658 0.178049 0.220264
O51   O     O_R   0.087225 0.464672 0.201379 -0.298033
O52   O     O_R   0.066350 0.404740 0.171249 -0.300264
N35   N     N_R   0.553120 0.062265 0.177883 0.219976
O53   O     O_R   0.582427 0.048029 0.199845 -0.290533
O54   O     O_R   0.549391 0.104561 0.172422 -0.306951
N36   N     N_R   0.937960 0.553336 0.178041 0.220245
O55   O     O_R   0.912745 0.535320 0.201370 -0.298070
O56   O     O_R   0.933616 0.595252 0.171238 -0.300292
N37   N     N_R   0.446809 0.062195 0.822116 0.219981
O57   O     O_R   0.417527 0.047917 0.800148 -0.290540
O58   O     O_R   0.450474 0.104497 0.827587 -0.306937
N38   N     N_R   0.062081 0.553310 0.821962 0.220258
O59   O     O_R   0.087276 0.535290 0.798625 -0.298130
O60   O     O_R   0.066457 0.595222 0.828776 -0.300251
N39   N     N_R   0.553192 0.937806 0.822118 0.219973
O61   O     O_R   0.582483 0.952084 0.800159 -0.290548
O62   O     O_R   0.549515 0.895505 0.827581 -0.306947
N40   N     N_R   0.937968 0.446682 0.821947 0.220251
O63   O     O_R   0.912773 0.464704 0.798610 -0.298093
O64   O     O_R   0.933597 0.404768 0.828753 -0.300279
N41   N     N_R   0.946888 0.437739 0.677884 0.219974
O65   O     O_R   0.917585 0.451977 0.699848 -0.290525
O66   O     O_R   0.950614 0.395442 0.672422 -0.306944
N42   N     N_R   0.562046 0.946680 0.678043 0.220247
O67   O     O_R   0.587257 0.964703 0.701372 -0.298072
O68   O     O_R   0.566398 0.904764 0.671242 -0.300282
N43   N     N_R   0.053135 0.562270 0.677877 0.219973
O69   O     O_R   0.082446 0.548033 0.699835 -0.290546
O70   O     O_R   0.049406 0.604567 0.672416 -0.306948
N44   N     N_R   0.437968 0.053328 0.678046 0.220257
O71   O     O_R   0.412761 0.035308 0.701377 -0.298054
O72   O     O_R   0.433613 0.095243 0.671241 -0.300274
N45   N     N_R   0.946808 0.562202 0.322120 0.219976
O73   O     O_R   0.917520 0.547927 0.300155 -0.290553
O74   O     O_R   0.950483 0.604503 0.327588 -0.306945
N46   N     N_R   0.562031 0.053336 0.321953 0.220251
O75   O     O_R   0.587237 0.035322 0.298621 -0.298092
O76   O     O_R   0.566384 0.095252 0.328758 -0.300272
N47   N     N_R   0.053180 0.437803 0.322115 0.219978
O77   O     O_R   0.082461 0.452079 0.300146 -0.290551
O78   O     O_R   0.049510 0.395502 0.327585 -0.306930
N48   N     N_R   0.437958 0.946662 0.321955 0.220254
O79   O     O_R   0.412753 0.964674 0.298620 -0.298105
O80   O     O_R   0.433601 0.904747 0.328763 -0.300261
C225  C     C_1   0.434770 0.633623 0.961876 0.298154
N49   N     N_1   0.405786 0.614527 0.949252 -0.107858
C226  C     C_1   0.366337 0.434603 0.962115 0.297944
N50   N     N_1   0.385410 0.405527 0.949605 -0.107864
C227  C     C_1   0.565225 0.366374 0.961874 0.298108
N51   N     N_1   0.594209 0.385470 0.949251 -0.107746
C228  C     C_1   0.633638 0.565279 0.961941 0.298117
N52   N     N_1   0.614550 0.594286 0.949348 -0.107606
C229  C     C_1   0.434791 0.366351 0.038133 0.298195
N53   N     N_1   0.405803 0.385433 0.050758 -0.107894
C230  C     C_1   0.366467 0.565527 0.037832 0.298021
N54   N     N_1   0.385611 0.594565 0.050337 -0.107809
C231  C     C_1   0.565212 0.633650 0.038129 0.298105
N55   N     N_1   0.594203 0.614567 0.050751 -0.107752
C232  C     C_1   0.633620 0.434714 0.038057 0.298108
N56   N     N_1   0.614522 0.405709 0.050651 -0.107601
C233  C     C_1   0.934732 0.133618 0.461920 0.298085
N57   N     N_1   0.905736 0.114519 0.449316 -0.107810
C234  C     C_1   0.866362 0.934716 0.461945 0.298116
N58   N     N_1   0.885451 0.905707 0.449354 -0.107620
C235  C     C_1   0.065247 0.866378 0.461898 0.298117
N59   N     N_1   0.094237 0.885476 0.449284 -0.107820
C236  C     C_1   0.133645 0.065324 0.462006 0.298066
N60   N     N_1   0.114561 0.094356 0.449443 -0.107722
C237  C     C_1   0.934767 0.866354 0.538106 0.298102
N61   N     N_1   0.905772 0.885439 0.550719 -0.107786
C238  C     C_1   0.866382 0.065293 0.538050 0.298116
N62   N     N_1   0.885480 0.094299 0.550642 -0.107633
C239  C     C_1   0.065252 0.133643 0.538087 0.298119
N63   N     N_1   0.094252 0.114556 0.550692 -0.107855
C240  C     C_1   0.133591 0.934628 0.537976 0.298076
N64   N     N_1   0.114477 0.905610 0.550537 -0.107689
N65   N     N_R   0.558150 0.703088 0.083936 0.196754
O81   O     O_R   0.531223 0.677936 0.101311 -0.317943
O82   O     O_R   0.598152 0.709404 0.095319 -0.321315
N66   N     N_R   0.296948 0.559104 0.083557 0.196605
O83   O     O_R   0.321944 0.532312 0.101193 -0.318664
O84   O     O_R   0.290772 0.599288 0.094595 -0.321104
N67   N     N_R   0.441858 0.296913 0.083939 0.196746
O85   O     O_R   0.468788 0.322065 0.101313 -0.318041
O86   O     O_R   0.401858 0.290597 0.095324 -0.321310
N68   N     N_R   0.703067 0.441655 0.083856 0.196733
O87   O     O_R   0.677944 0.468552 0.101280 -0.318719
O88   O     O_R   0.709351 0.401617 0.095170 -0.320827
N69   N     N_R   0.558198 0.296922 0.916079 0.196742
O89   O     O_R   0.531269 0.322054 0.898691 -0.317970
O90   O     O_R   0.598207 0.290624 0.904710 -0.321331
N70   N     N_R   0.296939 0.441438 0.916264 0.196756
O91   O     O_R   0.322107 0.468248 0.898793 -0.318721
O92   O     O_R   0.290624 0.401363 0.905039 -0.320821
N71   N     N_R   0.441788 0.703076 0.916083 0.196735
O93   O     O_R   0.468715 0.677946 0.898692 -0.318028
O94   O     O_R   0.401777 0.709373 0.904717 -0.321329
N72   N     N_R   0.703074 0.558315 0.916134 0.196738
O95   O     O_R   0.677935 0.531419 0.898718 -0.318720
O96   O     O_R   0.709372 0.598348 0.904814 -0.320815
N73   N     N_R   0.058262 0.203086 0.583890 0.196739
O97   O     O_R   0.031356 0.177945 0.601295 -0.318012
O98   O     O_R   0.098284 0.209393 0.595232 -0.321332
N74   N     N_R   0.796936 0.058361 0.583849 0.196730
O99   O     O_R   0.822059 0.031467 0.601277 -0.318717
O100  O     O_R   0.790654 0.098402 0.595158 -0.320830
N75   N     N_R   0.941796 0.796915 0.583912 0.196750
O101  O     O_R   0.968713 0.822064 0.601301 -0.317981
O102  O     O_R   0.901785 0.790603 0.595276 -0.321318
N76   N     N_R   0.203063 0.941388 0.583750 0.196690
O103  O     O_R   0.177982 0.968248 0.601248 -0.318688
O104  O     O_R   0.209310 0.901299 0.594968 -0.320927
N77   N     N_R   0.058260 0.796924 0.416105 0.196734
O105  O     O_R   0.031343 0.822049 0.398700 -0.318013
O106  O     O_R   0.098281 0.790630 0.404758 -0.321344
N78   N     N_R   0.796923 0.941666 0.416140 0.196734
O107  O     O_R   0.822057 0.968558 0.398718 -0.318709
O108  O     O_R   0.790628 0.901628 0.404827 -0.320824
N79   N     N_R   0.941688 0.203072 0.416127 0.196730
O109  O     O_R   0.968594 0.177949 0.398710 -0.317991
O110  O     O_R   0.901658 0.209363 0.404797 -0.321351
N80   N     N_R   0.203068 0.058413 0.416184 0.196739
O111  O     O_R   0.177921 0.031549 0.398745 -0.318720
O112  O     O_R   0.209370 0.098464 0.404902 -0.320825
C241  C     C_1   0.553767 0.794232 0.086794 0.424260
N81   N     N_1   0.563763 0.811072 0.112496 -0.048044
C242  C     C_1   0.205852 0.554875 0.086441 0.421139
N82   N     N_1   0.189057 0.565259 0.112068 -0.051435
C243  C     C_1   0.446243 0.205769 0.086797 0.424242
N83   N     N_1   0.436251 0.188930 0.112499 -0.048051
C244  C     C_1   0.794197 0.446014 0.086730 0.420921
N84   N     N_1   0.811018 0.435936 0.112418 -0.051724
C245  C     C_1   0.553822 0.205780 0.913221 0.424270
N85   N     N_1   0.563830 0.188945 0.887522 -0.048068
C246  C     C_1   0.205816 0.445835 0.913355 0.420936
N86   N     N_1   0.189000 0.435671 0.887685 -0.051723
C247  C     C_1   0.446165 0.794217 0.913224 0.424256
N87   N     N_1   0.436154 0.811052 0.887525 -0.048073
C248  C     C_1   0.794203 0.553946 0.913258 0.420908
N88   N     N_1   0.811026 0.564015 0.887568 -0.051732
C249  C     C_1   0.053880 0.294225 0.586756 0.424271
N89   N     N_1   0.063915 0.311060 0.612450 -0.048046
C250  C     C_1   0.705808 0.054002 0.586725 0.420928
N90   N     N_1   0.688989 0.064085 0.612412 -0.051719
C251  C     C_1   0.946182 0.705774 0.586776 0.424258
N91   N     N_1   0.936170 0.688937 0.612473 -0.048050
C252  C     C_1   0.294181 0.945698 0.586627 0.421003
N92   N     N_1   0.310993 0.935511 0.612294 -0.051619
C253  C     C_1   0.053887 0.705784 0.413243 0.424268
N93   N     N_1   0.063918 0.688950 0.387549 -0.048072
C254  C     C_1   0.705794 0.946031 0.413263 0.420918
N94   N     N_1   0.688971 0.935953 0.387575 -0.051727
C255  C     C_1   0.946059 0.294209 0.413262 0.424280
N95   N     N_1   0.936009 0.311041 0.387571 -0.048054
C256  C     C_1   0.294194 0.054036 0.413296 0.420925
N96   N     N_1   0.311013 0.064143 0.387613 -0.051728
N97   N     N_R   0.555005 0.867623 0.046380 0.204119
O113  O     O_R   0.539437 0.895772 0.068712 -0.413223
O114  O     O_R   0.597573 0.862979 0.043060 -0.320287
N98   N     N_R   0.132280 0.555034 0.046345 0.204032
O115  O     O_R   0.104411 0.539315 0.068830 -0.416225
O116  O     O_R   0.136325 0.597631 0.042727 -0.319090
N99   N     N_R   0.444998 0.132377 0.046382 0.204121
O117  O     O_R   0.460569 0.104228 0.068712 -0.413229
O118  O     O_R   0.402430 0.137023 0.043064 -0.320266
N100  N     N_R   0.867645 0.445045 0.046411 0.204342
O119  O     O_R   0.895734 0.460688 0.068761 -0.416262
O120  O     O_R   0.863145 0.402465 0.043058 -0.318972
N101  N     N_R   0.555006 0.132375 0.953616 0.204094
O121  O     O_R   0.539417 0.104241 0.931279 -0.413233
O122  O     O_R   0.597577 0.136993 0.956940 -0.320311
N102  N     N_R   0.132378 0.444969 0.953670 0.204345
O123  O     O_R   0.104298 0.460540 0.931284 -0.416046
O124  O     O_R   0.136868 0.402400 0.957112 -0.318926
N103  N     N_R   0.444989 0.867624 0.953618 0.204093
O125  O     O_R   0.460576 0.895757 0.931280 -0.413228
O126  O     O_R   0.402419 0.863008 0.956944 -0.320292
N104  N     N_R   0.867648 0.554942 0.953584 0.204351
O127  O     O_R   0.895742 0.539306 0.931239 -0.416254
O128  O     O_R   0.863141 0.597522 0.956933 -0.318956
N105  N     N_R   0.055024 0.367629 0.546364 0.204094
O129  O     O_R   0.039455 0.395755 0.568712 -0.413186
O130  O     O_R   0.097592 0.363028 0.543011 -0.320290
N106  N     N_R   0.632356 0.054958 0.546409 0.204339
O131  O     O_R   0.604271 0.039316 0.568760 -0.416264
O132  O     O_R   0.636850 0.097538 0.543051 -0.318971
N107  N     N_R   0.944985 0.632376 0.546370 0.204111
O133  O     O_R   0.960552 0.604237 0.568710 -0.413200
O134  O     O_R   0.902417 0.637003 0.543035 -0.320288
N108  N     N_R   0.367673 0.945016 0.546385 0.204232
O135  O     O_R   0.395682 0.960684 0.568785 -0.416257
O136  O     O_R   0.363335 0.902429 0.542935 -0.319009
N109  N     N_R   0.055020 0.632373 0.453628 0.204082
O137  O     O_R   0.039434 0.604250 0.431281 -0.413208
O138  O     O_R   0.097591 0.636969 0.456972 -0.320308
N110  N     N_R   0.632347 0.945057 0.453584 0.204342
O139  O     O_R   0.604259 0.960696 0.431235 -0.416266
O140  O     O_R   0.636842 0.902477 0.456939 -0.318962
N111  N     N_R   0.944971 0.367627 0.453635 0.204066
O141  O     O_R   0.960556 0.395739 0.431280 -0.413187
O142  O     O_R   0.902399 0.363054 0.456996 -0.320315
N112  N     N_R   0.367640 0.054970 0.453613 0.204341
O143  O     O_R   0.395724 0.039353 0.431252 -0.416194
O144  O     O_R   0.363150 0.097547 0.456998 -0.318951

loop_
_geom_bond_atom_site_label_1
_geom_bond_atom_site_label_2
_geom_bond_distance
_ccdc_geom_bond_type
C185  N97   1.436988 S    
C248  N88   1.157779 T    
O4    C4    1.286050 A    
C141  N77   1.438877 S    
O29   C21   1.276828 A    
C50   N42   1.439737 S    
C247  N87   1.157778 T    
C212  N20   1.157467 T    
C198  C206  1.399995 A    
N75   O101  1.301408 A    
O17   Zn9   2.035418 S    
N98   O115  1.301406 A    
O34   C10   1.290113 A    
C22   C103  1.447693 S    
C33   C69   1.410503 A    
C217  N25   1.157485 T    
C190  C202  1.399847 A    
C162  C178  1.424171 A    
C20   C97   1.447711 S    
N67   O86   1.301403 A    
C167  C191  1.409144 A    
N65   O82   1.301400 A    
C142  N78   1.438886 S    
N107  O134  1.301178 A    
C157  C253  1.452056 S    
O39   Zn3   2.009839 S    
C91   C235  1.454847 S    
C48   C60   1.410120 A    
C196  N108  1.436919 S    
C34   C218  1.450318 S    
C82   C98   1.399840 A    
N103  O125  1.301331 A    
C94   C238  1.454854 S    
N36   O55   1.301359 A    
C88   C108  1.405830 A    
C120  C128  1.420074 A    
C186  N98   1.436844 S    
C154  C170  1.420395 A    
C48   N40   1.439737 S    
O2    C2    1.285987 A    
O30   Zn12  2.035402 S    
C2    C202  1.446341 S    
O45   Zn5   2.009827 S    
O41   Zn5   2.009835 S    
C50   C62   1.410123 A    
O7    C1    1.286057 A    
C158  C174  1.420386 A    
O43   Zn7   2.009824 S    
C89   C119  1.405819 A    
N45   O74   1.301219 A    
C92   C236  1.454842 S    
C127  C183  1.407153 A    
N8    C77   1.354913 A    
C194  N106  1.436959 S    
C10   C66   1.465853 S    
N35   O53   1.301322 A    
C31   C215  1.450266 S    
C35   C51   1.402984 A    
C136  N72   1.438884 S    
N1    C80   1.355955 A    
O20   Zn9   2.035408 S    
C141  C157  1.398995 A    
C14   C70   1.465842 S    
N16   C73   1.354917 A    
C253  N93   1.157784 T    
C30   C214  1.450311 S    
C145  C161  1.420304 A    
O12   C8    1.286023 A    
O44   Zn8   2.009825 S    
O14   C6    1.286052 A    
C218  N26   1.157477 T    
C152  C168  1.420379 A    
C41   N33   1.438813 S    
N104  O127  1.301351 A    
C34   C70   1.411206 A    
O16   Zn6   2.034183 S    
C32   C216  1.450311 S    
C26   C210  1.450317 S    
C40   C224  1.450315 S    
C39   C223  1.450250 S    
O16   C8    1.286072 A    
C31   C47   1.402973 A    
N35   O54   1.301196 A    
N66   O84   1.301481 A    
C94   C102  1.399986 A    
C163  C179  1.423942 A    
C237  N61   1.157684 T    
O19   Zn9   2.035426 S    
N68   O88   1.301401 A    
C193  C205  1.400034 A    
C197  N109  1.436970 S    
C236  N60   1.157690 T    
C137  C153  1.398983 A    
N106  O131  1.301347 A    
C176  C184  1.424064 A    
O37   C11   1.289946 A    
C35   C69   1.410508 A    
C156  C252  1.452011 S    
O38   C12   1.290106 A    
C19   C100  1.447680 S    
C155  C171  1.420315 A    
N110  O139  1.301353 A    
C170  C194  1.409190 A    
C167  C177  1.423944 A    
C135  C151  1.399001 A    
C230  N54   1.157695 T    
C119  C125  1.420063 A    
C36   C220  1.450313 S    
C143  N79   1.438872 S    
C239  N63   1.157687 T    
C117  C127  1.420059 A    
O10   C6    1.286050 A    
C24   C101  1.447678 S    
O13   Zn5   2.034231 S    
O42   Zn6   2.009832 S    
N97   O114  1.301177 A    
C147  C163  1.420301 A    
C225  N49   1.157685 T    
C112  C136  1.413867 A    
C123  C179  1.407144 A    
C195  N107  1.436979 S    
C200  N112  1.436947 S    
C146  C162  1.420586 A    
C29   C67   1.410525 A    
C174  C198  1.409184 A    
C241  N81   1.157782 T    
N76   O104  1.301429 A    
C42   C58   1.410120 A    
O39   C11   1.289949 A    
N39   O61   1.301329 A    
C215  N23   1.157472 T    
C168  C180  1.424035 A    
N47   O77   1.301337 A    
C156  C172  1.420467 A    
N69   O89   1.301408 A    
C26   C66   1.411206 A    
O47   Zn7   2.009839 S    
C196  C208  1.399980 A    
C131  C147  1.398984 A    
N73   O97   1.301408 A    
C87   C105  1.405797 A    
C107  C131  1.413913 A    
C154  C250  1.452048 S    
N9    C76   1.355955 A    
C105  C129  1.413910 A    
O22   C20   1.276842 A    
C32   C68   1.411208 A    
C105  C121  1.420053 A    
C119  C143  1.413900 A    
O31   Zn12  2.035415 S    
C27   C211  1.450285 S    
C56   C64   1.410120 A    
C147  C243  1.452057 S    
N1    N16   1.328368 A    
C249  N89   1.157771 T    
C151  C247  1.452055 S    
C63   C74   1.463554 S    
C117  C141  1.413916 A    
N75   O102  1.301395 A    
O26   C22   1.276835 A    
C61   C76   1.463593 S    
C56   N48   1.439742 S    
C116  C140  1.413856 A    
N70   O91   1.301410 A    
N79   O110  1.301413 A    
C150  C166  1.420398 A    
N48   O79   1.301356 A    
C112  C124  1.420064 A    
C191  N103  1.436974 S    
O21   C17   1.276766 A    
C42   N34   1.439732 S    
O15   C5    1.286058 A    
N108  O136  1.301259 A    
C238  N62   1.157684 T    
O32   Zn12  2.035411 S    
C188  N100  1.436960 S    
C36   C52   1.403162 A    
N71   O93   1.301407 A    
C108  C124  1.420064 A    
O47   C15   1.289948 A    
O1    Zn1   2.034168 S    
N71   O94   1.301400 A    
C52   N44   1.439738 S    
C33   C217  1.450271 S    
C165  C189  1.409141 A    
C153  C169  1.420323 A    
C122  C178  1.407327 A    
N105  O129  1.301325 A    
O17   C17   1.276793 A    
N37   O58   1.301224 A    
C163  C187  1.409119 A    
O26   Zn11  2.035405 S    
N100  O119  1.301348 A    
C153  C249  1.452053 S    
C160  C176  1.420391 A    
N12   C75   1.354929 A    
O9    C5    1.286060 A    
C60   C77   1.458351 S    
C32   C48   1.403155 A    
N72   O96   1.301401 A    
N41   O66   1.301204 A    
N11   C76   1.355953 A    
C164  C180  1.424037 A    
C38   C222  1.450315 S    
C161  C185  1.409118 A    
C143  C159  1.398989 A    
C44   C58   1.410120 A    
N38   O59   1.301357 A    
N47   O78   1.301223 A    
O36   C10   1.290116 A    
N6    N11   1.328368 A    
O4    Zn4   2.034249 S    
C114  C126  1.420069 A    
C200  C208  1.399936 A    
N6    C77   1.354913 A    
C109  C123  1.420050 A    
N109  O138  1.301185 A    
N34   O52   1.301192 A    
O38   Zn4   2.009836 S    
C213  N21   1.157492 T    
C148  C164  1.420388 A    
C195  C207  1.400042 A    
N99   O117  1.301326 A    
O3    C3    1.286056 A    
C29   C213  1.450254 S    
N46   O76   1.301196 A    
C211  N19   1.157489 T    
O18   Zn9   2.035405 S    
C194  C206  1.399998 A    
N101  O122  1.301179 A    
C113  C137  1.413901 A    
C124  C180  1.407197 A    
C90   C102  1.399978 A    
C35   C219  1.450273 S    
N74   O99   1.301404 A    
C95   C239  1.454838 S    
N40   O64   1.301201 A    
C220  N28   1.157470 T    
O37   Zn1   2.009827 S    
C25   C209  1.450286 S    
C93   C115  1.405799 A    
C30   C46   1.403158 A    
C5    C205  1.446253 S    
C87   C231  1.454846 S    
C88   C232  1.454849 S    
N4    N13   1.328364 A    
N111  O142  1.301200 A    
C53   N45   1.438784 S    
C8    C208  1.446289 S    
N68   O87   1.301409 A    
O14   Zn8   2.034180 S    
N5    C78   1.355969 A    
C90   C118  1.405824 A    
N8    N9    1.328368 A    
O2    Zn2   2.034246 S    
N98   O116  1.301360 A    
C132  C148  1.398980 A    
N7    C78   1.355963 A    
C55   N47   1.438783 S    
C192  N104  1.436966 S    
N78   O107  1.301411 A    
C83   C109  1.405815 A    
O44   C14   1.290115 A    
N65   O81   1.301410 A    
C30   C68   1.411204 A    
O45   C15   1.289950 A    
O46   C16   1.290119 A    
C130  C146  1.398962 A    
O42   C14   1.290112 A    
O5    C3    1.286060 A    
C47   N39   1.438772 S    
C166  C190  1.409132 A    
C199  C205  1.400041 A    
C125  C181  1.407165 A    
N112  O143  1.301358 A    
O35   C9    1.289936 A    
C199  N111  1.436968 S    
C244  N84   1.157780 T    
C43   N35   1.438813 S    
C224  N32   1.157472 T    
C185  C201  1.400043 A    
N42   O67   1.301361 A    
O35   Zn3   2.009824 S    
C243  N83   1.157782 T    
C33   C49   1.402987 A    
C95   C101  1.400001 A    
N36   O56   1.301195 A    
O40   Zn2   2.009829 S    
N80   O111  1.301411 A    
N80   O112  1.301399 A    
C93   C103  1.400010 A    
C148  C244  1.452042 S    
C37   C53   1.402962 A    
C87   C97   1.400020 A    
N15   C74   1.355954 A    
C91   C103  1.400019 A    
C26   C42   1.403163 A    
C193  N105  1.436964 S    
N14   C73   1.354916 A    
C134  N70   1.438868 S    
N45   O73   1.301333 A    
C157  C173  1.420335 A    
C232  N56   1.157688 T    
C115  C127  1.420061 A    
C161  C177  1.423940 A    
O9    Zn5   2.034168 S    
N72   O95   1.301408 A    
C106  C130  1.413821 A    
O11   Zn7   2.034165 S    
C149  C165  1.420324 A    
C228  N52   1.157689 T    
C118  C126  1.420069 A    
C149  C245  1.452056 S    
C89   C101  1.400003 A    
N102  O123  1.301373 A    
C40   C72   1.411211 A    
O8    C4    1.286052 A    
C17   C98   1.447527 S    
N33   O50   1.301185 A    
C4    C204  1.446262 S    
C115  C139  1.413909 A    
C172  C184  1.424090 A    
C83   C227  1.454843 S    
C226  N50   1.157686 T    
O24   Zn10  2.035411 S    
N77   O106  1.301404 A    
C106  C122  1.420080 A    
O28   Zn11  2.035408 S    
N104  O128  1.301184 A    
C165  C179  1.423944 A    
C169  C181  1.423966 A    
C96   C104  1.399955 A    
C90   C234  1.454858 S    
O12   Zn8   2.034249 S    
C64   C73   1.458355 S    
N79   O109  1.301418 A    
C27   C43   1.402987 A    
O27   Zn11  2.035426 S    
C57   C80   1.463581 S    
C49   C61   1.411726 A    
N3    C80   1.355956 A    
C133  C149  1.399003 A    
C58   C79   1.458363 S    
C51   N43   1.438799 S    
C82   C110  1.405743 A    
N106  O132  1.301175 A    
C96   C240  1.454852 S    
N44   O71   1.301359 A    
C11   C67   1.465207 S    
O41   C13   1.289938 A    
C189  N101  1.436977 S    
C242  N82   1.157880 T    
C81   C111  1.405816 A    
N107  O133  1.301328 A    
C34   C50   1.403154 A    
N110  O140  1.301187 A    
N43   O69   1.301326 A    
N66   O83   1.301473 A    
C54   N46   1.439741 S    
C221  N29   1.157490 T    
C37   C221  1.450250 S    
C38   C54   1.403151 A    
C96   C116  1.405871 A    
C250  N90   1.157773 T    
C28   C44   1.403165 A    
C85   C107  1.405795 A    
C47   C59   1.411690 A    
C254  N94   1.157784 T    
N97   O113  1.301325 A    
N78   O108  1.301405 A    
C171  C195  1.409120 A    
C210  N18   1.157464 T    
C172  C196  1.409237 A    
C137  N73   1.438871 S    
C176  C200  1.409167 A    
N100  O120  1.301183 A    
C3    C203  1.446232 S    
N13   C74   1.355953 A    
O29   Zn12  2.035429 S    
O10   Zn6   2.034246 S    
N99   O118  1.301180 A    
C89   C233  1.454844 S    
C110  C134  1.413777 A    
C129  N65   1.438878 S    
C162  C186  1.409331 A    
C49   N41   1.438800 S    
C138  C154  1.398979 A    
C214  N22   1.157476 T    
C135  N71   1.438876 S    
C53   C63   1.411687 A    
N39   O62   1.301214 A    
C235  N59   1.157686 T    
C246  N86   1.157757 T    
C62   C75   1.458355 S    
O23   C19   1.276826 A    
C36   C70   1.411203 A    
C43   C57   1.411739 A    
C240  N64   1.157690 T    
C38   C72   1.411211 A    
O15   Zn7   2.034234 S    
C192  C204  1.399997 A    
C108  C132  1.413868 A    
N70   O92   1.301398 A    
C134  C150  1.398874 A    
O33   C9    1.289940 A    
C18   C99   1.447717 S    
C92   C104  1.399931 A    
C175  C181  1.423963 A    
C128  C184  1.407249 A    
C223  N31   1.157481 T    
N48   O80   1.301196 A    
C187  C203  1.400044 A    
O19   C19   1.276833 A    
C88   C100  1.399985 A    
C91   C117  1.405821 A    
C152  C248  1.452047 S    
C144  N80   1.438874 S    
C6    C206  1.446265 S    
C136  C152  1.398971 A    
C39   C71   1.410515 A    
N5    N12   1.328356 A    
C219  N27   1.157485 T    
O23   Zn10  2.035415 S    
C25   C65   1.410512 A    
C86   C230  1.454850 S    
N4    C79   1.354925 A    
C46   N38   1.439742 S    
C23   C104  1.447626 S    
C110  C122  1.420098 A    
N2    C79   1.354922 A    
C51   C61   1.411719 A    
C81   C97   1.400028 A    
N7    N10   1.328364 A    
C31   C67   1.410513 A    
C222  N30   1.157469 T    
O8    Zn2   2.034183 S    
O25   Zn11  2.035418 S    
N37   O57   1.301334 A    
N67   O85   1.301410 A    
O43   C13   1.289945 A    
C159  C175  1.420341 A    
C82   C226  1.454828 S    
C216  N24   1.157473 T    
O6    C2    1.286105 A    
O1    C1    1.286058 A    
N111  O141  1.301337 A    
C118  C142  1.413868 A    
C1    C201  1.446238 S    
N41   O65   1.301325 A    
C40   C56   1.403154 A    
O20   C20   1.276836 A    
C209  N17   1.157488 T    
C187  N99   1.436988 S    
C111  C121  1.420056 A    
O25   C21   1.276828 A    
N44   O72   1.301195 A    
C55   C63   1.411691 A    
N38   O60   1.301202 A    
C86   C106  1.405944 A    
O27   C23   1.276817 A    
C126  C182  1.407200 A    
C84   C228  1.454847 S    
C151  C167  1.420326 A    
C85   C99   1.400023 A    
C140  N76   1.438872 S    
C28   C66   1.411216 A    
C186  C202  1.399963 A    
C138  N74   1.438882 S    
C95   C113  1.405805 A    
N109  O137  1.301332 A    
C129  C145  1.398987 A    
C12   C68   1.465834 S    
N76   O103  1.301430 A    
C131  N67   1.438880 S    
C140  C156  1.398976 A    
C7    C207  1.446250 S    
C16   C72   1.465849 S    
C44   N36   1.439739 S    
O21   Zn10  2.035429 S    
C85   C229  1.454848 S    
C45   N37   1.438796 S    
C130  N66   1.438847 S    
N69   O90   1.301398 A    
N101  O121  1.301329 A    
C198  N110  1.436966 S    
O30   C24   1.276829 A    
O6    Zn4   2.034180 S    
C121  C177  1.407144 A    
N73   O98   1.301402 A    
C83   C99   1.400028 A    
C84   C100  1.399982 A    
N33   O49   1.301318 A    
C173  C183  1.423957 A    
C81   C225  1.454842 S    
C120  C144  1.413842 A    
O40   C12   1.290125 A    
C116  C128  1.420067 A    
C197  C207  1.400050 A    
C52   C62   1.410126 A    
C142  C158  1.398970 A    
O5    Zn1   2.034231 S    
C54   C64   1.410116 A    
C256  N96   1.157769 T    
C189  C203  1.400053 A    
O33   Zn1   2.009835 S    
C113  C125  1.420062 A    
C255  N95   1.157797 T    
O7    Zn3   2.034234 S    
C191  C201  1.400057 A    
C107  C123  1.420056 A    
C168  C192  1.409179 A    
C169  C193  1.409128 A    
C37   C71   1.410515 A    
N108  O135  1.301373 A    
C170  C182  1.424044 A    
C145  C241  1.452059 S    
N43   O70   1.301204 A    
C252  N92   1.157806 T    
N10   C75   1.354932 A    
O48   C16   1.290111 A    
C251  N91   1.157778 T    
C133  N69   1.438876 S    
N103  O126  1.301178 A    
C27   C65   1.410509 A    
O11   C7    1.286060 A    
N2    N15   1.328364 A    
C114  C138  1.413873 A    
C231  N55   1.157686 T    
N3    N14   1.328372 A    
N112  O144  1.301188 A    
O32   C22   1.276835 A    
N42   O68   1.301191 A    
N40   O63   1.301356 A    
O48   Zn6   2.009829 S    
N105  O130  1.301176 A    
C166  C178  1.424105 A    
C173  C197  1.409146 A    
O36   Zn4   2.009825 S    
C175  C199  1.409150 A    
C84   C112  1.405818 A    
C41   C57   1.411740 A    
C29   C45   1.402965 A    
C227  N51   1.157685 T    
O22   Zn10  2.035402 S    
C144  C160  1.398937 A    
O3    Zn3   2.034165 S    
C111  C135  1.413918 A    
C171  C183  1.423952 A    
O31   C23   1.276804 A    
C86   C98   1.399912 A    
C94   C114  1.405827 A    
C190  N102  1.436906 S    
C21   C102  1.447674 S    
N34   O51   1.301358 A    
C155  C251  1.452057 S    
C93   C237  1.454849 S    
C139  N75   1.438880 S    
C39   C55   1.402969 A    
C229  N53   1.157685 T    
C132  N68   1.438883 S    
C158  C254  1.452050 S    
O24   C18   1.276844 A    
C233  N57   1.157687 T    
C28   C212  1.450323 S    
C25   C41   1.402983 A    
C150  C246  1.451964 S    
C45   C59   1.411691 A    
C59   C78   1.463558 S    
N74   O100  1.301396 A    
N46   O75   1.301359 A    
C188  C204  1.400002 A    
N102  O124  1.301198 A    
C109  C133  1.413920 A    
C245  N85   1.157779 T    
O28   C24   1.276829 A    
O13   C7    1.286058 A    
C46   C60   1.410121 A    
C164  C188  1.409192 A    
C9    C65   1.465184 S    
O46   Zn8   2.009836 S    
O18   C18   1.276837 A    
N77   O105  1.301414 A    
C92   C120  1.405793 A    
O34   Zn2   2.009832 S    
C146  C242  1.451943 S    
C139  C155  1.398985 A    
C13   C69   1.465188 S    
C159  C255  1.452042 S    
C160  C256  1.452019 S    
C174  C182  1.424044 A    
C15   C71   1.465199 S    
C234  N58   1.157688 T    
