data_mof_unit_9862.cif
_audit_creation_date              2012-12-10T17:05:16-0500
_audit_creation_method            fapswitch 2.2
_symmetry_space_group_name_H-M    P1
_symmetry_Int_Tables_number       1
_space_group_crystal_system       triclinic
_cell_length_a                    10.015427
_cell_length_b                    10.606676
_cell_length_c                    15.506263
_cell_angle_alpha                 89.645145
_cell_angle_beta                  68.718403
_cell_angle_gamma                 88.530346
_cell_volume                      1534.39427892

loop_
_atom_site_label
_atom_site_type_symbol
_atom_type_description
_atom_site_fract_x
_atom_site_fract_y
_atom_site_fract_z
_atom_type_partial_charge
C1    C     C_R   0.490947 0.736554 0.513102 0.911742
C2    C     C_R   0.702992 0.370085 0.048052 0.178785
C3    C     C_R   0.565066 0.423306 0.097043 0.092413
C4    C     C_R   0.411312 0.499909 0.676095 0.896606
C5    C     C_R   0.805839 0.362650 0.090004 -0.224020
C6    C     C_R   0.773685 0.410807 0.179073 -0.202663
C7    C     C_R   0.539007 0.478492 0.182868 -0.261558
C8    C     C_2   0.556782 0.070496 0.560870 -0.156932
C9    C     C_2   0.508625 0.128121 0.500559 -0.297768
C10   C     C_2   0.564349 0.933206 0.564303 -0.004335
C11   C     C_2   0.464887 0.866383 0.545343 -0.161489
C12   C     C_R   0.406958 0.437251 0.916566 0.040996
C13   C     C_2   0.111465 0.442233 0.437721 -0.113235
C14   C     C_2   0.963031 0.449251 0.434522 -0.125543
C15   C     C_R   0.502620 0.261835 0.498834 0.915744
C16   C     C_R   0.588807 0.496848 0.324353 0.869920
C17   C     C_R   0.358526 0.487870 0.777313 -0.055724
C18   C     C_R   0.639441 0.468529 0.225662 -0.054081
C19   C     C_R   0.161616 0.475834 0.924603 -0.213820
C20   C     C_R   0.210872 0.486807 0.828701 -0.241493
C21   C     C_R   0.457242 0.472204 0.822608 0.044796
C22   C     C_2   0.681617 0.875614 0.589994 0.915802
C23   C     C_R   0.258917 0.453507 0.969212 0.158232
C24   C     C_R   0.501603 0.401677 0.961795 0.061167
C25   C     C_R   0.458666 0.424580 0.057285 0.076463
C26   C     C_R   0.311220 0.445821 0.109354 -0.225600
C27   C     C_R   0.211812 0.453521 0.065708 -0.223312
C28   C     C_R   0.635813 0.341405 0.915247 -0.242979
C29   C     C_R   0.734913 0.324396 0.958446 -0.238298
H1    H     H_    0.099192 0.467017 0.107242 0.144997
H2    H     H_    0.851129 0.399060 0.212530 0.148161
H3    H     H_    0.837789 0.279081 0.920833 0.154200
H4    H     H_    0.047913 0.486457 0.963720 0.151930
H5    H     H_    0.133582 0.500338 0.795277 0.169124
H6    H     H_    0.269988 0.450845 0.184065 0.142059
H7    H     H_    0.662679 0.302778 0.846623 0.155955
H8    H     H_    0.743381 0.740676 0.660975 0.331042
H9    H     H_    0.304238 0.915031 0.499493 0.201955
H10   H     H_    0.248999 0.870098 0.611513 0.208594
H11   H     H_    0.633790 0.565309 0.826241 0.197219
H12   H     H_    0.909579 0.317460 0.054769 0.140984
H13   H     H_    0.671884 0.444807 0.746401 0.183516
H14   H     H_    0.596713 0.124753 0.605391 0.162165
H15   H     H_    0.473882 0.077846 0.452044 0.152498
H16   H     H_    0.192708 0.388115 0.383929 0.159087
H17   H     H_    0.074249 0.556060 0.546737 0.159367
H18   H     H_    0.948024 0.408089 0.374910 0.151945
H19   H     H_    0.864369 0.530933 0.558028 0.169433
H20   H     H_    0.439253 0.529433 0.218017 0.158592
N1    N     N_2   0.148330 0.498670 0.499030 -0.187613
N2    N     N_2   0.852680 0.498640 0.499000 -0.180435
N3    N     N_3   0.325335 0.922317 0.560557 -0.435134
N4    N     N_3   0.600370 0.518314 0.778801 -0.417581
O1    O     O_R   0.386950 0.680940 0.500010 -0.617780
O2    O     O_R   0.655697 0.769925 0.647604 -0.784493
O3    O     O_R   0.613110 0.680900 0.499990 -0.579124
O4    O     O_R   0.322330 0.500030 0.632270 -0.630303
O5    O     O_R   0.548480 0.499990 0.632240 -0.575524
O6    O     O_R   0.386890 0.319100 0.500010 -0.597124
O7    O     O_R   0.613050 0.319060 0.499990 -0.606070
O8    O     O_R   0.451520 0.500010 0.367760 -0.614238
O9    O     O_R   0.677670 0.499970 0.367730 -0.614391
O10   O     O_2   0.798981 0.924322 0.564235 -0.637570
Zn1   Zn    Zn3+2 0.349000 0.500030 0.500020 0.943498
Zn2   Zn    Zn3+2 0.651000 0.499970 0.499980 0.971242

loop_
_geom_bond_atom_site_label_1
_geom_bond_atom_site_label_2
_ccdc_geom_bond_type
C4    O4    A    
O8    Zn1   S    
C19   C23   A    
C1    O1    A    
C14   H18   S    
C23   C27   A    
C2    C3    A    
N1    Zn1   S    
C15   O7    A    
C12   C24   A    
O5    Zn2   S    
C14   N2    D    
C1    C11   S    
C8    H14   S    
C7    C18   A    
C20   H5    S    
C19   C20   A    
H10   N3    S    
C9    C15   S    
C7    H20   S    
C13   C14   S    
C10   C22   S    
C27   H1    S    
C21   N4    S    
C12   C23   A    
C28   H7    S    
C26   C27   A    
C22   O2    S    
C16   O9    A    
O4    Zn1   S    
C2    C29   A    
O1    Zn1   S    
C16   O8    A    
C8    C10   S    
C28   C29   A    
C25   C26   A    
C1    O3    A    
O7    Zn2   S    
C6    H2    S    
C29   H3    S    
C3    C7    A    
H13   N4    S    
C19   H4    S    
C5    C6    A    
C6    C18   A    
C2    C5    A    
H9    N3    S    
C10   C11   D    
C4    C17   S    
O3    Zn2   S    
H8    O2    S    
O6    Zn1   S    
C26   H6    S    
C3    C25   A    
C17   C20   A    
C24   C25   A    
C13   H16   S    
C24   C28   A    
C16   C18   S    
H11   N4    S    
N2    Zn2   S    
C4    O5    A    
H17   N1    S    
C9    H15   S    
C5    H12   S    
C11   N3    S    
O9    Zn2   S    
C22   O10   D    
C15   O6    A    
C12   C21   A    
H19   N2    S    
C17   C21   A    
C13   N1    D    
C8    C9    D    
