data_mof_unit_36126.cif
_audit_creation_date              2012-12-11T14:28:28-0500
_audit_creation_method            fapswitch 2.2
_symmetry_space_group_name_H-M    P1
_symmetry_Int_Tables_number       1
_space_group_crystal_system       triclinic
_cell_length_a                    10.91771
_cell_length_b                    18.996186
_cell_length_c                    18.726649
_cell_angle_alpha                 90.000062
_cell_angle_beta                  89.806993
_cell_angle_gamma                 90.000534
_cell_volume                      3883.78852167

loop_
_atom_site_label
_atom_site_type_symbol
_atom_type_description
_atom_site_fract_x
_atom_site_fract_y
_atom_site_fract_z
_atom_type_partial_charge
C1    C     C_R   0.317940 0.966031 0.645448 0.585670
C2    C     C_3   0.211293 0.727128 0.043154 -0.122247
C3    C     C_3   0.042146 0.192388 0.975983 -0.112522
C4    C     C_3   0.542188 0.307624 0.475970 -0.112542
C5    C     C_3   0.591403 0.319390 0.037054 -0.123733
C6    C     C_3   0.591414 0.680604 0.537058 -0.123768
C7    C     C_3   0.542146 0.692388 0.975983 -0.112523
C8    C     C_3   0.176962 0.818293 0.499630 -0.141056
C9    C     C_3   0.217389 0.798989 0.004300 -0.143096
C10   C     C_3   0.217434 0.201052 0.504294 -0.143121
C11   C     C_3   0.176927 0.181695 0.999638 -0.141055
C12   C     C_3   0.676970 0.318292 0.499628 -0.141084
C13   C     C_3   0.211261 0.272913 0.543141 -0.122247
C14   C     C_3   0.717388 0.298989 0.004300 -0.143099
C15   C     C_3   0.717397 0.701012 0.504302 -0.143136
C16   C     C_3   0.676928 0.681695 0.999638 -0.141056
C17   C     C_3   0.156244 0.764552 0.559619 0.038421
C18   C     C_3   0.150014 0.765847 0.940542 0.039041
C19   C     C_3   0.149993 0.234155 0.440543 0.039059
C20   C     C_3   0.156236 0.235447 0.059621 0.038457
C21   C     C_3   0.656237 0.264557 0.559620 0.038433
C22   C     C_3   0.650014 0.265847 0.940542 0.039041
C23   C     C_3   0.650018 0.734151 0.440545 0.039064
C24   C     C_3   0.218723 0.241994 0.949789 -0.132104
C25   C     C_3   0.656236 0.735447 0.059621 0.038454
C26   C     C_3   0.023507 0.753253 0.536673 -0.127050
C27   C     C_3   0.025032 0.786397 0.972082 -0.125118
C28   C     C_3   0.025056 0.213554 0.472103 -0.125098
C29   C     C_3   0.023504 0.246764 0.036675 -0.127006
C30   C     C_3   0.523500 0.253265 0.536672 -0.127014
C31   C     C_3   0.525032 0.286397 0.972082 -0.125118
C32   C     C_3   0.525039 0.713594 0.472085 -0.125083
C33   C     C_3   0.523504 0.746763 0.036675 -0.127005
C34   C     C_3   0.066378 0.693432 0.487355 -0.110481
C35   C     C_3   0.718728 0.257976 0.449793 -0.132091
C36   C     C_3   0.020413 0.714607 0.010390 -0.101929
C37   C     C_3   0.020363 0.285343 0.510406 -0.101886
C38   C     C_3   0.066401 0.306573 0.987350 -0.110438
C39   C     C_3   0.566360 0.193438 0.487359 -0.110448
C40   C     C_3   0.520413 0.214607 0.010390 -0.101926
C41   C     C_3   0.520410 0.785383 0.510394 -0.101790
C42   C     C_3   0.566401 0.806572 0.987351 -0.110438
C43   C     C_3   0.199959 0.704307 0.510930 -0.106673
C44   C     C_3   0.145688 0.694420 0.978795 -0.100083
C45   C     C_3   0.145588 0.305581 0.478790 -0.100027
C46   C     C_3   0.711293 0.227128 0.043154 -0.122249
C47   C     C_3   0.199980 0.295681 0.010926 -0.106668
C48   C     C_3   0.699942 0.204306 0.510936 -0.106672
C49   C     C_3   0.645688 0.194420 0.978795 -0.100082
C50   C     C_3   0.645680 0.805577 0.478800 -0.099906
C51   C     C_3   0.699979 0.795681 0.010926 -0.106669
C52   C     C_3   0.711289 0.772872 0.543158 -0.122300
C53   C     C_3   0.718723 0.741994 0.949789 -0.132104
C54   C     C_3   0.085524 0.747785 0.427493 0.059432
C55   C     C_3   0.086779 0.748018 0.073893 0.059230
C56   C     C_3   0.086796 0.251972 0.573903 0.059207
C57   C     C_R   0.317777 0.963580 0.855996 0.587209
C58   C     C_3   0.085522 0.252211 0.927494 0.059414
C59   C     C_3   0.585524 0.247784 0.427494 0.059426
C60   C     C_3   0.586779 0.248018 0.073893 0.059230
C61   C     C_3   0.586780 0.751977 0.573897 0.059171
C62   C     C_3   0.585522 0.752211 0.927494 0.059413
C63   C     C_R   0.315818 0.015671 0.429415 -0.013026
C64   C     C_R   0.315119 0.006944 0.074196 -0.009188
C65   C     C_R   0.315144 0.993007 0.574177 -0.009232
C66   C     C_R   0.315801 0.984282 0.929434 -0.013116
C67   C     C_R   0.815818 0.515694 0.429424 -0.013100
C68   C     C_R   0.317781 0.036402 0.355986 0.587234
C69   C     C_R   0.815119 0.506944 0.074196 -0.009192
C70   C     C_R   0.815132 0.493026 0.574185 -0.009218
C71   C     C_R   0.815801 0.484282 0.929434 -0.013117
C72   C     C_R   0.538472 0.982530 0.430531 0.119374
C73   C     C_R   0.537010 0.973912 0.073432 0.117629
C74   C     C_R   0.537036 0.026053 0.573399 0.117622
C75   C     C_R   0.538429 0.017443 0.930569 0.119462
C76   C     C_R   0.038479 0.482561 0.430556 0.119418
C77   C     C_R   0.037010 0.473912 0.073432 0.117623
C78   C     C_R   0.037012 0.526067 0.573427 0.117640
C79   C     C_R   0.317936 0.033951 0.145455 0.585668
C80   C     C_R   0.038429 0.517443 0.930569 0.119459
C81   C     C_R   0.648560 0.992363 0.467120 -0.147248
C82   C     C_R   0.647732 0.980992 0.036470 -0.141996
C83   C     C_R   0.647755 0.019010 0.536428 -0.142005
C84   C     C_R   0.648522 0.007659 0.967169 -0.147143
C85   C     C_R   0.148560 0.492363 0.467166 -0.147210
C86   C     C_R   0.147732 0.480992 0.036470 -0.141996
C87   C     C_R   0.147743 0.519019 0.536471 -0.141970
C88   C     C_R   0.148522 0.507659 0.967169 -0.147143
C89   C     C_R   0.426179 0.007989 0.538798 -0.003203
C90   C     C_R   0.817938 0.466036 0.645448 0.585658
C91   C     C_R   0.426592 0.999541 0.964864 -0.008968
C92   C     C_R   0.426616 0.000394 0.464835 -0.008777
C93   C     C_R   0.426149 0.991947 0.038825 -0.003208
C94   C     C_R   0.926168 0.508012 0.538813 -0.003232
C95   C     C_R   0.926592 0.499541 0.964864 -0.008968
C96   C     C_R   0.926618 0.500429 0.464850 -0.008890
C97   C     C_R   0.926149 0.491947 0.038825 -0.003209
C98   C     C_R   0.200863 0.992279 0.535676 -0.015995
C99   C     C_R   0.202397 0.978967 0.968668 -0.008249
C100  C     C_R   0.202422 0.020991 0.468658 -0.008256
C101  C     C_R   0.817777 0.463580 0.855996 0.587204
C102  C     C_R   0.200837 0.007674 0.035691 -0.015961
C103  C     C_R   0.700855 0.492295 0.535680 -0.015967
C104  C     C_R   0.702398 0.478967 0.968668 -0.008248
C105  C     C_R   0.702416 0.521008 0.468661 -0.008253
C106  C     C_R   0.700837 0.507674 0.035691 -0.015960
C107  C     C_R   0.085493 0.962292 0.558143 -0.082717
C108  C     C_R   0.088415 0.950621 0.943871 -0.076746
C109  C     C_R   0.088447 0.049363 0.443882 -0.076752
C110  C     C_R   0.085470 0.037674 0.058150 -0.082736
C111  C     C_R   0.585486 0.462303 0.558143 -0.082724
C112  C     C_R   0.817781 0.536411 0.355991 0.587203
C113  C     C_R   0.588415 0.450621 0.943871 -0.076745
C114  C     C_R   0.588438 0.549370 0.443878 -0.076744
C115  C     C_R   0.585470 0.537674 0.058150 -0.082736
C116  C     C_R   0.975714 0.981335 0.527144 -0.153299
C117  C     C_R   0.977027 0.969898 0.973172 -0.152236
C118  C     C_R   0.977059 0.030105 0.473198 -0.152225
C119  C     C_R   0.975692 0.018658 0.027129 -0.153321
C120  C     C_R   0.475708 0.481337 0.527137 -0.153319
C121  C     C_R   0.477027 0.469898 0.973172 -0.152236
C122  C     C_R   0.477050 0.530103 0.473188 -0.152239
C123  C     C_R   0.817936 0.533951 0.145455 0.585652
C124  C     C_R   0.475692 0.518658 0.027129 -0.153322
C125  C     C_R   0.186189 0.771742 0.636164 0.556836
C126  C     C_R   0.183710 0.771618 0.864138 0.554886
C127  C     C_R   0.183701 0.228384 0.364140 0.554917
C128  C     C_R   0.186190 0.228258 0.136164 0.556872
C129  C     C_R   0.686188 0.271742 0.636164 0.556855
C130  C     C_R   0.683710 0.271618 0.864138 0.554885
C131  C     C_R   0.683712 0.728382 0.364139 0.554935
C132  C     C_R   0.686190 0.728258 0.136164 0.556874
C133  C     C_R   0.545199 0.768801 0.645732 0.543425
C134  C     C_3   0.218729 0.757984 0.449789 -0.132081
C135  C     C_R   0.542212 0.769822 0.855823 0.543179
C136  C     C_R   0.542211 0.230177 0.355823 0.543212
C137  C     C_R   0.545196 0.231197 0.145729 0.543451
C138  C     C_R   0.045210 0.268797 0.645737 0.543417
C139  C     C_R   0.042211 0.269822 0.855823 0.543171
C140  C     C_R   0.042210 0.730177 0.355823 0.543203
C141  C     C_R   0.045195 0.731197 0.145729 0.543448
C142  C     C_3   0.042178 0.807618 0.475975 -0.112512
C143  C     C_3   0.091403 0.819390 0.037054 -0.123730
C144  C     C_3   0.091495 0.180599 0.537070 -0.123752
Cr1   Cr    Cr6+3 0.488160 0.884660 0.750000 1.009739
Cr2   Cr    Cr6+3 0.333410 0.272740 0.250000 0.999012
Cr3   Cr    Cr6+3 0.833410 0.227260 0.750000 0.999011
Cr4   Cr    Cr6+3 0.833410 0.772740 0.250000 0.999000
Cr5   Cr    Cr6+3 0.488160 0.115340 0.250000 1.009526
Cr6   Cr    Cr6+3 0.988160 0.384660 0.750000 1.009816
Cr7   Cr    Cr6+3 0.988160 0.615340 0.250000 1.009667
Cr8   Cr    Cr6+3 0.173480 0.883120 0.750000 0.987289
Cr9   Cr    Cr6+3 0.173480 0.116880 0.250000 0.987307
Cr10  Cr    Cr6+3 0.673480 0.383120 0.750000 0.987293
Cr11  Cr    Cr6+3 0.673480 0.616880 0.250000 0.987308
Cr12  Cr    Cr6+3 0.333410 0.727260 0.750000 0.999012
H1    H     H_    0.234067 0.865774 0.502981 0.111871
H2    H     H_    0.893226 0.947923 0.952353 0.102976
H3    H     H_    0.893265 0.052105 0.452402 0.102946
H4    H     H_    0.890921 0.041581 0.045850 0.104031
H5    H     H_    0.390932 0.458426 0.545867 0.104051
H6    H     H_    0.393226 0.447923 0.952353 0.102977
H7    H     H_    0.393252 0.552094 0.452386 0.102956
H8    H     H_    0.390921 0.541581 0.045850 0.104032
H9    H     H_    0.976163 0.849010 0.459870 0.130895
H10   H     H_    0.068631 0.868773 0.065703 0.144433
H11   H     H_    0.068819 0.131210 0.565726 0.144442
H12   H     H_    0.298109 0.834195 0.000483 0.104020
H13   H     H_    0.976109 0.151004 0.959886 0.130884
H14   H     H_    0.476186 0.349018 0.459857 0.130916
H15   H     H_    0.568631 0.368773 0.065703 0.144432
H16   H     H_    0.568651 0.631222 0.565709 0.144442
H17   H     H_    0.476109 0.651003 0.959885 0.130884
H18   H     H_    0.950685 0.747045 0.577127 0.122787
H19   H     H_    0.950688 0.812267 0.941767 0.108485
H20   H     H_    0.950708 0.187668 0.441808 0.108454
H21   H     H_    0.950673 0.252992 0.077123 0.122815
H22   H     H_    0.450665 0.247085 0.577121 0.122827
H23   H     H_    0.298187 0.165875 0.500467 0.104005
H24   H     H_    0.450688 0.312266 0.941767 0.108485
H25   H     H_    0.450696 0.687721 0.441773 0.108474
H26   H     H_    0.450674 0.752991 0.077123 0.122821
H27   H     H_    0.018885 0.642488 0.479952 0.126352
H28   H     H_    0.940824 0.678630 0.014620 0.105926
H29   H     H_    0.940741 0.321287 0.514653 0.105922
H30   H     H_    0.018923 0.357520 0.979942 0.126383
H31   H     H_    0.518869 0.142492 0.479959 0.126351
H32   H     H_    0.440824 0.178630 0.014620 0.105928
H33   H     H_    0.440818 0.821356 0.514625 0.105967
H34   H     H_    0.234003 0.134203 0.003000 0.111859
H35   H     H_    0.518923 0.857520 0.979942 0.126384
H36   H     H_    0.265404 0.662296 0.526279 0.120195
H37   H     H_    0.176636 0.644136 0.955850 0.125887
H38   H     H_    0.176435 0.355879 0.455851 0.125896
H39   H     H_    0.265438 0.337688 0.026271 0.120189
H40   H     H_    0.765375 0.162291 0.526291 0.120191
H41   H     H_    0.676636 0.144136 0.955850 0.125886
H42   H     H_    0.676629 0.855870 0.455880 0.125802
H43   H     H_    0.765437 0.837689 0.026271 0.120188
H44   H     H_    0.295194 0.761981 0.410917 0.119798
H45   H     H_    0.734063 0.365778 0.502979 0.111858
H46   H     H_    0.279539 0.697851 0.075044 0.113762
H47   H     H_    0.279485 0.302225 0.575018 0.113766
H48   H     H_    0.295187 0.237980 0.910918 0.119716
H49   H     H_    0.795206 0.261957 0.410928 0.119749
H50   H     H_    0.779540 0.197851 0.075044 0.113759
H51   H     H_    0.779522 0.802158 0.575051 0.113767
H52   H     H_    0.795187 0.737980 0.910918 0.119716
H53   H     H_    0.080219 0.089124 0.404237 0.179818
H54   H     H_    0.074885 0.080071 0.095493 0.178715
H55   H     H_    0.074912 0.919890 0.595481 0.178717
H56   H     H_    0.798109 0.334195 0.000483 0.104019
H57   H     H_    0.080177 0.910870 0.904216 0.179831
H58   H     H_    0.580210 0.589130 0.404233 0.179821
H59   H     H_    0.574885 0.580071 0.095493 0.178716
H60   H     H_    0.574905 0.419903 0.595484 0.178714
H61   H     H_    0.580177 0.410871 0.904216 0.179831
H62   H     H_    0.734052 0.979975 0.440918 0.103523
H63   H     H_    0.732476 0.966983 0.062425 0.108330
H64   H     H_    0.732491 0.033042 0.562379 0.108324
H65   H     H_    0.734009 0.020088 0.940983 0.103485
H66   H     H_    0.234060 0.479966 0.440978 0.103507
H67   H     H_    0.798122 0.665810 0.500487 0.104017
H68   H     H_    0.232476 0.466983 0.062425 0.108330
H69   H     H_    0.232475 0.533052 0.562427 0.108327
H70   H     H_    0.234009 0.520088 0.940983 0.103485
H71   H     H_    0.563178 0.896808 0.367282 0.243046
H72   H     H_    0.607334 0.973641 0.330067 0.233007
H73   H     H_    0.600017 0.966905 0.174728 0.235620
H74   H     H_    0.565270 0.889339 0.135876 0.253778
H75   H     H_    0.565244 0.110649 0.635816 0.253736
H76   H     H_    0.600063 0.033102 0.674690 0.235677
H77   H     H_    0.607756 0.026723 0.830207 0.232813
H78   H     H_    0.734004 0.634203 0.002999 0.111859
H79   H     H_    0.562203 0.103376 0.867452 0.242931
H80   H     H_    0.062597 0.396737 0.367338 0.242945
H81   H     H_    0.107719 0.473485 0.330175 0.232846
H82   H     H_    0.100017 0.466904 0.174728 0.235665
H83   H     H_    0.065270 0.389339 0.135875 0.253766
H84   H     H_    0.064923 0.610725 0.635765 0.253685
H85   H     H_    0.100154 0.533283 0.674677 0.235614
H86   H     H_    0.107756 0.526723 0.830207 0.232826
H87   H     H_    0.062203 0.603376 0.867451 0.242927
H88   H     H_    0.890936 0.958429 0.545877 0.104050
N1    N     N_3   0.539917 0.949620 0.361497 -0.593000
N2    N     N_3   0.536089 0.941242 0.142398 -0.596429
N3    N     N_3   0.536110 0.058739 0.642361 -0.596418
N4    N     N_3   0.539814 0.050410 0.861562 -0.592764
N5    N     N_3   0.039927 0.449660 0.361520 -0.592799
N6    N     N_3   0.036089 0.441242 0.142398 -0.596427
N7    N     N_3   0.036035 0.558788 0.642363 -0.596403
N8    N     N_3   0.039814 0.550411 0.861562 -0.592759
O1    O     O_R   0.575450 0.828820 0.667950 -0.521151
O2    O     O_R   0.416860 0.942890 0.825320 -0.471759
O3    O     O_R   0.416860 0.057110 0.325320 -0.472054
O4    O     O_R   0.416860 0.057110 0.174680 -0.472295
O5    O     O_R   0.916860 0.442890 0.674680 -0.472155
O6    O     O_R   0.916860 0.442890 0.825320 -0.471748
O7    O     O_R   0.916860 0.557110 0.325320 -0.471825
O8    O     O_R   0.916860 0.557110 0.174680 -0.472273
O9    O     O_R   0.213790 0.953680 0.668330 -0.553901
O10   O     O_R   0.213790 0.953680 0.831670 -0.550038
O11   O     O_R   0.213790 0.046320 0.331670 -0.550016
O12   O     O_R   0.575450 0.828820 0.832050 -0.522432
O13   O     O_R   0.213790 0.046320 0.168330 -0.553910
O14   O     O_R   0.713790 0.453680 0.668330 -0.553913
O15   O     O_R   0.713790 0.453680 0.831670 -0.550041
O16   O     O_R   0.713790 0.546320 0.331670 -0.550040
O17   O     O_R   0.713790 0.546320 0.168330 -0.553917
O18   O     O_R   0.121360 0.817890 0.672660 -0.516822
O19   O     O_R   0.121360 0.817890 0.827340 -0.522563
O20   O     O_R   0.121360 0.182110 0.327340 -0.522540
O21   O     O_R   0.121360 0.182110 0.172660 -0.516797
O22   O     O_R   0.621360 0.317890 0.672660 -0.516815
O23   O     O_R   0.575450 0.171180 0.332050 -0.522487
O24   O     O_R   0.621360 0.317890 0.827340 -0.522562
O25   O     O_R   0.621360 0.682110 0.327340 -0.522528
O26   O     O_R   0.621360 0.682110 0.172660 -0.516789
O27   O     O_R   0.206850 0.711370 0.665820 -0.528100
O28   O     O_R   0.206850 0.711370 0.834180 -0.526694
O29   O     O_R   0.206850 0.288630 0.334180 -0.526717
O30   O     O_R   0.206850 0.288630 0.165820 -0.528161
O31   O     O_R   0.706850 0.211370 0.665820 -0.528131
O32   O     O_R   0.706850 0.211370 0.834180 -0.526691
O33   O     O_R   0.706850 0.788630 0.334180 -0.526756
O34   O     O_R   0.575450 0.171180 0.167950 -0.521151
O35   O     O_R   0.706850 0.788630 0.165820 -0.528153
O36   O     O_R   0.457710 0.733190 0.672630 -0.522557
O37   O     O_R   0.457710 0.733190 0.827370 -0.520826
O38   O     O_R   0.457710 0.266810 0.327370 -0.520813
O39   O     O_R   0.457710 0.266810 0.172630 -0.522554
O40   O     O_R   0.957710 0.233190 0.672630 -0.522553
O41   O     O_R   0.957710 0.233190 0.827370 -0.520831
O42   O     O_R   0.957710 0.766810 0.327370 -0.520829
O43   O     O_R   0.957710 0.766810 0.172630 -0.522556
O44   O     O_3   0.331690 0.831680 0.750000 -0.300161
O45   O     O_R   0.075450 0.328820 0.667950 -0.521132
O46   O     O_3   0.331690 0.168320 0.250000 -0.300109
O47   O     O_3   0.831690 0.331680 0.750000 -0.300168
O48   O     O_3   0.831690 0.668320 0.250000 -0.300143
O49   O     O_R   0.075450 0.328820 0.832050 -0.522432
O50   O     O_R   0.075450 0.671180 0.332050 -0.522448
O51   O     O_R   0.075450 0.671180 0.167950 -0.521147
O52   O     O_R   0.416860 0.942890 0.674680 -0.472261

loop_
_geom_bond_atom_site_label_1
_geom_bond_atom_site_label_2
_ccdc_geom_bond_type
Cr8   O9    S    
C6    C32   S    
C71   C104  A    
C73   C82   A    
C2    H46   S    
C41   C61   S    
C74   C83   A    
C50   H42   S    
C61   C133  S    
Cr5   O4    S    
C65   C89   A    
C47   H39   S    
Cr8   O44   S    
Cr11  O26   S    
C2    C55   S    
C117  C119  A    
C112  O7    A    
C86   C88   A    
C71   C95   A    
C69   C123  S    
Cr5   O46   S    
C54   C134  S    
C45   H38   S    
C57   O2    A    
C129  O31   A    
C37   C56   S    
C37   H29   S    
C50   C52   S    
C28   C144  S    
C73   C93   A    
C4    C12   S    
C85   H66   S    
C112  O16   A    
C108  H57   S    
H74   N2    S    
Cr1   O52   S    
C21   C48   S    
C100  C109  A    
C29   H21   S    
C22   C130  S    
C7    C33   S    
C129  O22   A    
C109  H53   S    
C8    H1    S    
C109  C118  A    
C9    C143  S    
C11   C20   S    
Cr12  O27   S    
C133  O1    A    
C131  O33   A    
C70   C103  A    
C3    H13   S    
Cr11  O48   S    
C13   H47   S    
C17   C43   S    
C7    C62   S    
C18   C44   S    
Cr1   O12   S    
C115  H59   S    
Cr7   O50   S    
C94   C96   A    
C135  O37   A    
Cr2   O29   S    
C22   C49   S    
Cr4   O48   S    
C34   C54   S    
C82   C84   A    
C27   C36   S    
C64   C79   S    
Cr1   O2    S    
C36   C44   S    
C37   C45   S    
C140  O50   A    
C16   C25   S    
C141  O51   A    
C46   C60   S    
H75   N3    S    
C95   C97   A    
C132  O26   A    
C31   H24   S    
C8    C17   S    
C41   H33   S    
C106  C115  A    
C84   H65   S    
C11   H34   S    
C28   C37   S    
C80   C88   A    
C36   C55   S    
C76   C96   A    
C13   C45   S    
Cr3   O32   S    
C78   C94   A    
C116  C118  A    
C128  O21   A    
C20   C47   S    
C3    C11   S    
C67   C112  S    
H84   N7    S    
C33   H26   S    
C26   H18   S    
Cr9   O21   S    
C77   N6    S    
C76   C85   A    
C75   N4    S    
C78   C87   A    
C116  H88   S    
C40   C60   S    
C114  H58   S    
H85   N7    S    
C128  O30   A    
C57   C66   S    
Cr7   O7    S    
C6    H16   S    
C64   C102  A    
C99   C108  A    
C4    H14   S    
C10   H23   S    
C6    C61   S    
C103  C111  A    
C75   C84   A    
C40   C49   S    
C59   C136  S    
Cr6   O49   S    
C3    C29   S    
C88   H70   S    
C82   H63   S    
C2    C44   S    
C29   C38   S    
C1    C65   S    
C32   C41   S    
C77   C97   A    
C42   C62   S    
C75   C91   A    
C13   C56   S    
C135  O12   A    
H82   N6    S    
C81   C83   A    
Cr2   O46   S    
C55   C143  S    
C144  H11   S    
C8    C134  S    
C32   H25   S    
Cr10  O15   S    
C38   H30   S    
C51   C53   S    
C62   C135  S    
Cr2   O39   S    
C27   C143  S    
C133  O36   A    
C30   H22   S    
C23   C131  S    
C34   H27   S    
C103  C105  A    
C10   C144  S    
C80   C95   A    
Cr10  O24   S    
C19   C28   S    
C21   C129  S    
Cr3   O47   S    
C43   H36   S    
C136  O23   A    
Cr7   O51   S    
C130  O24   A    
H79   N4    S    
Cr8   O10   S    
C46   H50   S    
Cr4   O43   S    
C63   C68   S    
C5    C60   S    
C117  H2    S    
C108  C117  A    
C9    H12   S    
C34   C43   S    
Cr11  O16   S    
C110  C119  A    
Cr10  O47   S    
C19   C45   S    
C40   H32   S    
Cr5   O3    S    
Cr6   O47   S    
C125  O18   A    
H86   N8    S    
C14   C22   S    
Cr11  O25   S    
C136  O38   A    
C18   C126  S    
C68   O3    A    
C137  O34   A    
C30   C39   S    
Cr9   O11   S    
C107  C116  A    
C139  O49   A    
C104  C113  A    
C9    C18   S    
C113  C121  A    
C80   N8    S    
C2    C9    S    
C25   C33   S    
C69   C97   A    
Cr9   O46   S    
C55   C141  S    
C52   H51   S    
Cr5   O34   S    
C104  C106  A    
C14   C46   S    
C138  O45   A    
C46   C49   S    
C44   H37   S    
C70   C94   A    
C65   C98   A    
Cr12  O28   S    
Cr6   O5    S    
C72   C92   A    
C132  O35   A    
C107  H55   S    
C35   C48   S    
Cr8   O19   S    
C53   H52   S    
C31   C40   S    
C35   C59   S    
Cr10  O22   S    
C138  O40   A    
C38   C58   S    
C42   H35   S    
C125  O27   A    
C79   O4    A    
C1    O52   A    
C72   C81   A    
Cr2   O30   S    
C123  O17   A    
C71   C101  S    
H83   N6    S    
C78   N7    S    
Cr1   O1    S    
C118  H3    S    
C110  H54   S    
C76   N5    S    
Cr3   O40   S    
C57   O10   A    
Cr6   O45   S    
C126  O19   A    
C111  H60   S    
C27   H19   S    
C28   H20   S    
C23   C50   S    
C49   H41   S    
C73   N2    S    
C35   H49   S    
C98   C107  A    
C72   N1    S    
C43   C134  S    
Cr9   O13   S    
C91   C93   A    
Cr3   O31   S    
C16   H78   S    
C10   C19   S    
C39   C59   S    
C101  O6    A    
C15   C52   S    
C5    C14   S    
C7    C16   S    
C54   C142  S    
C98   C100  A    
Cr4   O33   S    
C102  C110  A    
Cr9   O20   S    
C33   C42   S    
C41   C50   S    
C115  C124  A    
C67   C105  A    
Cr7   O48   S    
Cr1   O44   S    
C69   C106  A    
C123  O8    A    
Cr4   O42   S    
C21   C30   S    
C14   H56   S    
C23   C32   S    
C121  H6    S    
C15   H67   S    
C131  O25   A    
C56   C144  S    
C3    C58   S    
C99   C102  A    
C24   C58   S    
C8    C142  S    
C90   O5    A    
C39   C48   S    
C124  H8    S    
C58   C139  S    
C83   H64   S    
H80   N5    S    
C143  H10   S    
C134  H44   S    
C17   C26   S    
Cr5   O23   S    
C74   C89   A    
C90   O14   A    
C64   C93   A    
C20   C128  S    
C140  O42   A    
C141  O43   A    
H71   N1    S    
C11   C24   S    
C137  O39   A    
C16   C53   S    
C121  C124  A    
C130  O32   A    
C6    C15   S    
C25   C132  S    
C26   C34   S    
C54   C140  S    
Cr8   O18   S    
C119  H4    S    
C87   H69   S    
Cr4   O35   S    
C63   C92   A    
C36   H28   S    
C60   C137  S    
C39   H31   S    
C15   C23   S    
C101  O15   A    
C48   H40   S    
H81   N5    S    
C70   C90   S    
C86   H68   S    
C113  H61   S    
Cr11  O17   S    
C120  C122  A    
Cr7   O8    S    
C20   C29   S    
C85   C87   A    
C12   C35   S    
C22   C31   S    
Cr12  O44   S    
C105  C114  A    
C139  O41   A    
H72   N1    S    
Cr3   O41   S    
C126  O28   A    
C12   C21   S    
C122  H7    S    
C111  C120  A    
C66   C99   A    
C25   C51   S    
C63   C100  A    
C56   C138  S    
C53   C62   S    
C5    H15   S    
C12   H45   S    
C89   C92   A    
C38   C47   S    
C51   H43   S    
C120  H5    S    
C1    O9    A    
H73   N2    S    
C77   C86   A    
C127  O20   A    
C67   C96   A    
Cr12  O36   S    
C24   H48   S    
H87   N8    S    
C24   C47   S    
C18   C27   S    
Cr10  O14   S    
C10   C13   S    
C52   C61   S    
H77   N4    S    
C66   C91   A    
C42   C51   S    
H76   N3    S    
C127  O29   A    
Cr6   O6    S    
C142  H9    S    
C74   N3    S    
Cr2   O38   S    
C17   C125  S    
C81   H62   S    
C7    H17   S    
C4    C59   S    
C19   C127  S    
C79   O13   A    
Cr12  O37   S    
C114  C122  A    
C26   C142  S    
C68   O11   A    
C4    C30   S    
C5    C31   S    
