data_mof_unit_35082.cif
_audit_creation_date              2013-03-05T15:50:24-0500
_audit_creation_method            fapswitch 2.2
_symmetry_space_group_name_H-M    P1
_symmetry_Int_Tables_number       1
_space_group_crystal_system       triclinic
_cell_length_a                    18.490107
_cell_length_b                    25.879454
_cell_length_c                    18.218085
_cell_angle_alpha                 90.209311
_cell_angle_beta                  89.954906
_cell_angle_gamma                 90.554
_cell_volume                      8717.13828099

loop_
_atom_site_label
_atom_site_type_symbol
_atom_site_description
_atom_site_fract_x
_atom_site_fract_y
_atom_site_fract_z
_atom_type_partial_charge
Zn1   Zn    Zn3+2 0.249990 0.293780 0.913250 1.001540
Zn2   Zn    Zn3+2 0.249990 0.706220 0.086750 1.008699
Zn3   Zn    Zn3+2 0.249990 0.706220 0.913250 1.006026
Zn4   Zn    Zn3+2 0.249990 0.293780 0.086750 1.001803
Zn5   Zn    Zn3+2 0.749990 0.793780 0.413250 1.000442
Zn6   Zn    Zn3+2 0.749990 0.206220 0.586750 0.984222
Zn7   Zn    Zn3+2 0.749990 0.206220 0.413250 1.004772
Zn8   Zn    Zn3+2 0.749990 0.793780 0.586750 1.027471
Zn9   Zn    Zn3+2 0.336760 0.206240 0.000000 0.978034
Zn10  Zn    Zn3+2 0.336760 0.793760 0.000000 0.967044
Zn11  Zn    Zn3+2 0.836760 0.706240 0.500000 0.980888
Zn12  Zn    Zn3+2 0.836760 0.293760 0.500000 0.954094
Zn13  Zn    Zn3+2 0.163250 0.206230 0.000000 0.999976
Zn14  Zn    Zn3+2 0.163250 0.793770 0.000000 1.030883
Zn15  Zn    Zn3+2 0.663250 0.706230 0.500000 1.006431
Zn16  Zn    Zn3+2 0.663250 0.293770 0.500000 1.019750
O1    O     O_3   0.249990 0.250010 0.000000 -0.496353
O2    O     O_3   0.249990 0.749990 0.000000 -0.495523
O3    O     O_3   0.749990 0.750010 0.500000 -0.493880
O4    O     O_3   0.749990 0.249990 0.500000 -0.494908
O5    O     O_R   0.335430 0.280650 0.146160 -0.629097
O6    O     O_R   0.335430 0.719350 0.853840 -0.619033
O7    O     O_R   0.335430 0.719350 0.146160 -0.609580
O8    O     O_R   0.335430 0.280650 0.853840 -0.614003
O9    O     O_R   0.835430 0.780650 0.646160 -0.618982
O10   O     O_R   0.835430 0.219350 0.353840 -0.619363
O11   O     O_R   0.835430 0.219350 0.646160 -0.643592
O12   O     O_R   0.835430 0.780650 0.353840 -0.629526
O13   O     O_R   0.164550 0.280640 0.853840 -0.660415
O14   O     O_R   0.164550 0.719360 0.146160 -0.636808
O15   O     O_R   0.164550 0.719360 0.853840 -0.625176
O16   O     O_R   0.164550 0.280640 0.146160 -0.616368
O17   O     O_R   0.664550 0.780640 0.353840 -0.622928
O18   O     O_R   0.664550 0.219360 0.646160 -0.648171
O19   O     O_R   0.664550 0.219360 0.353840 -0.642050
O20   O     O_R   0.664550 0.780640 0.646160 -0.624703
O21   O     O_R   0.396160 0.219380 0.914560 -0.641407
O22   O     O_R   0.396160 0.780620 0.085440 -0.641241
O23   O     O_R   0.396160 0.780620 0.914560 -0.645091
O24   O     O_R   0.396160 0.219380 0.085440 -0.644116
O25   O     O_R   0.896160 0.719380 0.414560 -0.636217
O26   O     O_R   0.896160 0.280620 0.585440 -0.648321
O27   O     O_R   0.896160 0.280620 0.414560 -0.637406
O28   O     O_R   0.896160 0.719380 0.585440 -0.632399
O29   O     O_R   0.103840 0.219370 0.085450 -0.633231
O30   O     O_R   0.103840 0.780630 0.914550 -0.616521
O31   O     O_R   0.103840 0.780630 0.085450 -0.607321
O32   O     O_R   0.103840 0.219370 0.914550 -0.614758
O33   O     O_R   0.603840 0.719370 0.585450 -0.610266
O34   O     O_R   0.603840 0.280630 0.414550 -0.599092
O35   O     O_R   0.603840 0.280630 0.585450 -0.621471
O36   O     O_R   0.603840 0.719370 0.414550 -0.620258
O37   O     O_R   0.310730 0.133160 0.000000 -0.643316
O38   O     O_R   0.310730 0.866840 0.000000 -0.681483
O39   O     O_R   0.810730 0.633160 0.500000 -0.636701
O40   O     O_R   0.810730 0.366840 0.500000 -0.680063
O41   O     O_R   0.249970 0.366860 0.060720 -0.632738
O42   O     O_R   0.249970 0.633140 0.939280 -0.645050
O43   O     O_R   0.249970 0.633140 0.060720 -0.617537
O44   O     O_R   0.249970 0.366860 0.939280 -0.635734
O45   O     O_R   0.749970 0.866860 0.560720 -0.619277
O46   O     O_R   0.749970 0.133140 0.439280 -0.642449
O47   O     O_R   0.749970 0.133140 0.560720 -0.619673
O48   O     O_R   0.749970 0.866860 0.439280 -0.626656
O49   O     O_R   0.189290 0.133150 0.000000 -0.626380
O50   O     O_R   0.189290 0.866850 0.000000 -0.582422
O51   O     O_R   0.689290 0.633150 0.500000 -0.654886
O52   O     O_R   0.689290 0.366850 0.500000 -0.602951
C1    C     C_R   0.389574 0.250768 0.140809 0.817947
C2    C     C_R   0.390322 0.749581 0.860154 0.807110
C3    C     C_R   0.389460 0.750166 0.140310 0.787505
C4    C     C_R   0.390118 0.250537 0.860671 0.792169
C5    C     C_R   0.889140 0.749903 0.640441 0.799940
C6    C     C_R   0.888040 0.251358 0.358396 0.799420
C7    C     C_R   0.886115 0.252826 0.643695 0.819359
C8    C     C_R   0.888586 0.749310 0.359220 0.768192
C9    C     C_R   0.109561 0.251077 0.859862 0.833021
C10   C     C_R   0.112186 0.751608 0.141845 0.827445
C11   C     C_R   0.109434 0.748554 0.860792 0.821753
C12   C     C_R   0.114238 0.246669 0.143853 0.823755
C13   C     C_R   0.609717 0.750489 0.360555 0.834263
C14   C     C_R   0.609649 0.250434 0.639584 0.789833
C15   C     C_R   0.609952 0.248796 0.360600 0.833900
C16   C     C_R   0.610058 0.750840 0.639724 0.855613
C17   C     C_R   0.249545 0.109471 0.001590 0.787189
C18   C     C_R   0.251716 0.890942 0.999831 0.839553
C19   C     C_R   0.748374 0.609004 0.500581 0.799669
C20   C     C_R   0.751616 0.390847 0.504282 0.829935
C21   C     C_R   0.250002 0.391401 0.999893 0.830968
C22   C     C_R   0.249014 0.608627 0.000118 0.822710
C23   C     C_R   0.750866 0.891435 0.500208 0.849312
C24   C     C_R   0.751894 0.108693 0.499926 0.831597
C25   C     C_3   0.203478 0.470156 0.062379 -0.414759
C26   C     C_3   0.233707 0.529265 0.922999 -0.396122
C27   C     C_3   0.192303 0.528901 0.053215 -0.408179
C28   C     C_3   0.220324 0.470478 0.926747 -0.388028
C29   C     C_3   0.688230 0.970614 0.542084 -0.392427
C30   C     C_3   0.739707 0.029063 0.422316 -0.397939
C31   C     C_3   0.696181 0.029548 0.552187 -0.403709
C32   C     C_3   0.751581 0.970439 0.421226 -0.407932
H1    H     H_    0.228517 0.462243 0.116599 0.228171
H2    H     H_    0.278937 0.537957 0.884582 0.232622
H3    H     H_    0.192140 0.547998 0.107880 0.223302
H4    H     H_    0.243192 0.451927 0.876995 0.241371
H5    H     H_    0.680665 0.951965 0.596280 0.230346
H6    H     H_    0.773097 0.047363 0.378725 0.226967
H7    H     H_    0.709863 0.038508 0.610324 0.232283
H8    H     H_    0.802434 0.961481 0.391352 0.227929
H9    H     H_    0.149718 0.450389 0.061748 0.197510
H10   H     H_    0.184457 0.547755 0.900349 0.221593
H11   H     H_    0.137847 0.535897 0.029395 0.217561
H12   H     H_    0.161091 0.462297 0.924986 0.217813
H13   H     H_    0.638453 0.961862 0.509781 0.226889
H14   H     H_    0.682590 0.037247 0.407699 0.218065
H15   H     H_    0.643274 0.047939 0.540343 0.204612
H16   H     H_    0.706252 0.952046 0.390168 0.220410
H17   H     H_    0.286225 0.908089 0.862220 0.162130
H18   H     H_    0.279446 0.098413 0.868667 0.162827
H19   H     H_    0.666759 0.405522 0.619043 0.157872
H20   H     H_    0.614390 0.587739 0.568425 0.216788
C33   C     C_3   0.332635 0.470917 0.008019 0.219464
C34   C     C_3   0.328075 0.530881 0.027204 0.226714
C35   C     C_3   0.826398 0.970239 0.539852 0.212988
C36   C     C_3   0.832855 0.031196 0.526247 0.232638
C37   C     C_3   0.252636 0.449107 0.999592 0.015972
C38   C     C_3   0.251678 0.551021 0.000946 0.021907
C39   C     C_3   0.755145 0.949228 0.501078 0.022274
C40   C     C_3   0.756129 0.051148 0.500447 0.017804
C41   C     C_R   0.076404 0.348558 0.777062 -0.181043
C42   C     C_R   0.009151 0.670209 0.147857 -0.197143
C43   C     C_R   0.027012 0.656697 0.828186 -0.192700
C44   C     C_R   0.992818 0.310878 0.125220 -0.189402
C45   C     C_R   0.615956 0.682004 0.238433 -0.193415
C46   C     C_R   0.646641 0.271555 0.791399 -0.190600
C47   C     C_R   0.535753 0.154299 0.319609 -0.179947
C48   C     C_R   0.536248 0.843991 0.678202 -0.167246
C49   C     C_R   0.060472 0.393039 0.737561 0.224666
C50   C     C_R   0.957296 0.630788 0.147886 0.205852
C51   C     C_R   0.986949 0.611928 0.813484 0.243430
C52   C     C_R   0.933877 0.343175 0.114584 0.216669
C53   C     C_R   0.619500 0.647848 0.179021 0.221727
C54   C     C_R   0.665201 0.280544 0.864465 0.214062
C55   C     C_R   0.499283 0.108690 0.300988 0.230973
C56   C     C_R   0.505978 0.890355 0.701643 0.250656
C57   C     C_R   0.568486 0.650136 0.123326 -0.108210
C58   C     C_R   0.611682 0.281458 0.918063 -0.131933
C59   C     C_R   0.446228 0.109129 0.247217 -0.154701
C60   C     C_R   0.459072 0.890613 0.760724 -0.140086
C61   C     C_R   0.999536 0.394461 0.693744 -0.146316
C62   C     C_R   0.898309 0.633616 0.194629 -0.108265
C63   C     C_R   0.933329 0.612329 0.760269 -0.131649
C64   C     C_R   0.878800 0.344738 0.166455 -0.126857
C65   C     C_R   0.512228 0.685172 0.127899 -0.168218
C66   C     C_R   0.539601 0.272741 0.898978 -0.165020
C67   C     C_R   0.428024 0.155235 0.213205 -0.163504
C68   C     C_R   0.436033 0.844442 0.791534 -0.166122
C69   C     C_R   0.956254 0.350686 0.686460 -0.172889
C70   C     C_R   0.892375 0.674557 0.243736 -0.180733
C71   C     C_R   0.919351 0.657414 0.721714 -0.166829
C72   C     C_R   0.882477 0.313938 0.228844 -0.197043
C73   C     C_R   0.505324 0.718388 0.189415 0.070880
C74   C     C_R   0.519609 0.261874 0.825395 0.079644
C75   C     C_R   0.464078 0.202257 0.231158 0.096767
C76   C     C_R   0.467807 0.796837 0.771030 0.081901
C77   C     C_R   0.975680 0.303281 0.719311 0.093149
C78   C     C_R   0.947244 0.712787 0.248817 0.061727
C79   C     C_R   0.959797 0.703340 0.734854 0.076988
C80   C     C_R   0.941706 0.280864 0.240742 0.055123
C81   C     C_R   0.035930 0.301756 0.767411 0.055006
C82   C     C_R   0.005154 0.712008 0.198519 0.037577
C83   C     C_R   0.014948 0.702924 0.788452 0.032930
C84   C     C_R   0.998135 0.279390 0.188712 0.050218
C85   C     C_R   0.558557 0.717858 0.244820 0.036560
C86   C     C_R   0.573893 0.261879 0.770636 0.055001
C87   C     C_R   0.519783 0.201683 0.284256 0.041139
C88   C     C_R   0.521020 0.796903 0.715538 0.028858
C89   C     C_R   0.444723 0.750185 0.197751 -0.105105
C90   C     C_R   0.446929 0.251185 0.805226 -0.107277
C91   C     C_R   0.441316 0.250153 0.202315 -0.123328
C92   C     C_R   0.447532 0.749555 0.804316 -0.119388
C93   C     C_R   0.932770 0.258522 0.709141 -0.154004
C94   C     C_R   0.945740 0.750805 0.303993 -0.096356
C95   C     C_R   0.944383 0.749812 0.697580 -0.111239
C96   C     C_R   0.945154 0.249246 0.303244 -0.111293
C97   C     C_R   0.434583 0.779639 0.262482 0.057016
C98   C     C_R   0.427912 0.243382 0.731141 0.045746
C99   C     C_R   0.468597 0.297189 0.233284 0.045893
C100  C     C_R   0.487831 0.704002 0.790551 0.046763
C101  C     C_R   0.940276 0.216790 0.758410 0.061499
C102  C     C_R   0.001005 0.788490 0.309809 0.050587
C103  C     C_R   0.983583 0.795740 0.712907 0.037434
C104  C     C_R   0.004972 0.217288 0.316041 0.052469
C105  C     C_R   0.007294 0.209870 0.792471 -0.026770
C106  C     C_R   0.056543 0.791805 0.255747 0.002221
C107  C     C_R   0.043180 0.794450 0.761514 0.001415
C108  C     C_R   0.066554 0.219741 0.269336 -0.012374
C109  C     C_R   0.490115 0.783312 0.316449 -0.000830
C110  C     C_R   0.479011 0.254577 0.676095 -0.010463
C111  C     C_R   0.533824 0.296359 0.273232 -0.008226
C112  C     C_R   0.549305 0.705937 0.743884 0.011488
C113  C     C_R   0.052797 0.253761 0.803165 -0.133343
C114  C     C_R   0.057611 0.752446 0.199703 -0.104067
C115  C     C_R   0.056056 0.748535 0.801805 -0.105193
C116  C     C_R   0.059511 0.248121 0.201835 -0.103425
C117  C     C_R   0.552577 0.751828 0.306020 -0.106404
C118  C     C_R   0.553715 0.255702 0.696140 -0.114425
C119  C     C_R   0.556262 0.248594 0.302513 -0.112925
C120  C     C_R   0.558583 0.750610 0.699663 -0.114661
C121  C     C_R   0.368354 0.804655 0.274448 -0.201233
C122  C     C_R   0.359076 0.223977 0.710502 -0.160150
C123  C     C_R   0.432474 0.344991 0.228103 -0.154957
C124  C     C_R   0.470749 0.657184 0.826142 -0.183830
C125  C     C_R   0.883591 0.181718 0.775521 -0.119611
C126  C     C_R   0.001453 0.822694 0.370318 -0.177501
C127  C     C_R   0.966108 0.842923 0.678529 -0.175985
C128  C     C_R   0.004354 0.183850 0.377063 -0.170287
C129  C     C_R   0.356074 0.833223 0.337197 -0.213633
C130  C     C_R   0.340889 0.218379 0.636749 -0.147811
C131  C     C_R   0.463446 0.390391 0.255192 -0.170093
C132  C     C_R   0.516369 0.615107 0.821818 -0.141323
C133  C     C_R   0.897341 0.136759 0.814510 -0.192896
C134  C     C_R   0.053527 0.860666 0.377455 -0.154127
C135  C     C_R   0.002808 0.888126 0.695917 -0.144793
C136  C     C_R   0.064981 0.157079 0.397103 -0.160642
C137  C     C_R   0.968116 0.123884 0.831833 0.214021
C138  C     C_R   0.105517 0.867441 0.323985 0.207957
C139  C     C_R   0.063153 0.886869 0.740525 0.220050
C140  C     C_R   0.128982 0.163870 0.359145 0.204164
C141  C     C_R   0.410520 0.840967 0.388194 0.231953
C142  C     C_R   0.386647 0.238188 0.582889 0.169935
C143  C     C_R   0.534049 0.390902 0.280545 0.228080
C144  C     C_R   0.582182 0.618900 0.785986 0.213261
C145  C     C_R   0.024355 0.159253 0.816818 0.161962
C146  C     C_R   0.108332 0.833784 0.262603 0.077780
C147  C     C_R   0.088302 0.839359 0.767014 0.103699
C148  C     C_R   0.131368 0.194628 0.294804 0.086757
C149  C     C_R   0.478654 0.817341 0.378679 0.078405
C150  C     C_R   0.452480 0.261594 0.603204 0.146465
C151  C     C_R   0.571564 0.344168 0.286216 0.120400
C152  C     C_R   0.600056 0.663956 0.746394 0.082810
H21   H     H_    0.120662 0.353363 0.814326 0.193467
H22   H     H_    0.052976 0.666755 0.108906 0.143354
H23   H     H_    0.067214 0.654482 0.871033 0.148081
H24   H     H_    0.034586 0.311632 0.083648 0.140472
H25   H     H_    0.657330 0.678970 0.280119 0.126215
H26   H     H_    0.689718 0.273990 0.751456 0.150235
H27   H     H_    0.575086 0.151909 0.363184 0.154630
H28   H     H_    0.572723 0.845956 0.632030 0.166838
H29   H     H_    0.571496 0.623949 0.076974 0.192351
H30   H     H_    0.625810 0.289348 0.974686 0.172398
H31   H     H_    0.417408 0.073870 0.233170 0.161121
H32   H     H_    0.437618 0.926713 0.780846 0.169514
H33   H     H_    0.985068 0.429844 0.666165 0.166946
H34   H     H_    0.857865 0.603285 0.194091 0.206275
H35   H     H_    0.901799 0.577720 0.749101 0.177107
H36   H     H_    0.833065 0.369921 0.158599 0.188845
H37   H     H_    0.473089 0.684733 0.083762 0.153703
H38   H     H_    0.500095 0.275135 0.942569 0.160702
H39   H     H_    0.382937 0.153524 0.175616 0.162372
H40   H     H_    0.393451 0.847517 0.831642 0.170160
H41   H     H_    0.906164 0.355102 0.656845 0.150053
H42   H     H_    0.844966 0.675631 0.278289 0.131235
H43   H     H_    0.875915 0.655667 0.682223 0.173664
H44   H     H_    0.838732 0.316382 0.267867 0.160883
H45   H     H_    0.324186 0.801197 0.236098 0.165210
H46   H     H_    0.319949 0.211171 0.750920 0.161012
H47   H     H_    0.378482 0.348715 0.207519 0.216417
H48   H     H_    0.422860 0.652581 0.859235 0.188424
H49   H     H_    0.827732 0.189808 0.763253 0.194975
H50   H     H_    0.961685 0.820355 0.413785 0.159401
H51   H     H_    0.923110 0.846298 0.639041 0.195449
H52   H     H_    0.957178 0.178747 0.411551 0.164487
H53   H     H_    0.853174 0.110716 0.828019 0.186897
H54   H     H_    0.052789 0.885840 0.424934 0.208389
H55   H     H_    0.985801 0.924309 0.672299 0.218931
H56   H     H_    0.063053 0.133053 0.445634 0.203145
H57   H     H_    0.303667 0.850546 0.345396 0.197115
H58   H     H_    0.289067 0.201629 0.621772 0.197875
H59   H     H_    0.433377 0.426042 0.252924 0.203004
H60   H     H_    0.502068 0.579581 0.849380 0.216152
C153  C     C_R   0.238282 0.049881 0.138556 -0.006206
C154  C     C_R   0.307524 0.954176 0.128943 0.015954
C155  C     C_R   0.830166 0.545613 0.394189 0.126868
C156  C     C_R   0.883416 0.457846 0.464525 0.100886
C157  C     C_R   0.265980 0.026407 0.201596 0.136212
C158  C     C_R   0.305594 0.981248 0.195717 0.155054
C159  C     C_R   0.892217 0.521374 0.367085 0.144760
C160  C     C_R   0.921709 0.479714 0.405315 0.042686
C161  C     C_R   0.270621 0.974336 0.066313 0.003943
C162  C     C_R   0.249881 0.026527 0.068489 -0.015705
C163  C     C_R   0.812535 0.475899 0.480997 0.000629
C164  C     C_R   0.795135 0.525599 0.457919 -0.038152
C165  C     C_R   0.259676 0.947067 0.999421 -0.094282
C166  C     C_R   0.248903 0.053830 0.001141 -0.070852
C167  C     C_R   0.757417 0.446696 0.516958 -0.140887
C168  C     C_R   0.742610 0.552710 0.498280 -0.112267
C169  C     C_R   0.266203 0.974303 0.932231 0.041252
C170  C     C_R   0.263836 0.028574 0.933983 0.053803
C171  C     C_R   0.700728 0.471896 0.553566 0.041762
C172  C     C_R   0.691372 0.525343 0.543267 0.066852
C173  C     C_R   0.280887 0.949409 0.864494 -0.243390
C174  C     C_R   0.278332 0.056654 0.869020 -0.205754
C175  C     C_R   0.655297 0.444847 0.603168 -0.203526
C176  C     C_R   0.629194 0.548202 0.575732 -0.210281
C177  C     C_R   0.292541 0.977945 0.799756 0.199136
C178  C     C_R   0.292908 0.031888 0.802952 0.206835
C179  C     C_R   0.595056 0.468042 0.634316 0.223129
C180  C     C_R   0.579630 0.519193 0.616780 0.170036
I1    I     I_    0.131363 0.130504 0.804911 -0.276797
I2    I     I_    0.190733 0.853224 0.185814 -0.391789
I3    I     I_    0.201848 0.833641 0.785343 -0.306688
I4    I     I_    0.237519 0.207838 0.253116 -0.346336
I5    I     I_    0.558048 0.839881 0.459664 -0.326407
I6    I     I_    0.472956 0.332669 0.545641 -0.167476
I7    I     I_    0.686939 0.349278 0.296571 -0.334706
I8    I     I_    0.709991 0.667922 0.707783 -0.337426
I9    I     I_    0.316594 0.079000 0.710531 -0.243066
I10   I     I_    0.304223 0.940110 0.696219 -0.185168
I11   I     I_    0.480363 0.554080 0.646529 -0.240789
I12   I     I_    0.531529 0.424249 0.709175 -0.205406
N1    N     N_3   0.195074 0.095046 0.148607 -0.454993
H61   H     H_    0.147719 0.091618 0.117626 0.239308
H62   H     H_    0.224917 0.127864 0.134292 0.186360
N2    N     N_3   0.359291 0.913434 0.123708 -0.460613
H63   H     H_    0.391349 0.918219 0.076905 0.231612
H64   H     H_    0.333746 0.877442 0.125693 0.228916
N3    N     N_3   0.797781 0.584863 0.349865 -0.434453
H65   H     H_    0.811976 0.621168 0.370355 0.187022
H66   H     H_    0.741475 0.580543 0.350586 0.204706
N4    N     N_3   0.923720 0.427733 0.516289 -0.450803
H67   H     H_    0.935707 0.391767 0.493257 0.234931
H68   H     H_    0.894922 0.422948 0.565190 0.194569
N5    N     N_3   0.258485 0.050322 0.271905 -0.366714
H69   H     H_    0.203230 0.054209 0.282518 0.246234
H70   H     H_    0.281929 0.087156 0.268917 0.218384
N6    N     N_3   0.345126 0.963482 0.258256 -0.378404
H71   H     H_    0.400146 0.963532 0.244982 0.214140
H72   H     H_    0.329266 0.925417 0.268607 0.225966
N7    N     N_3   0.926914 0.541116 0.302539 -0.424083
H73   H     H_    0.979474 0.552788 0.316345 0.214130
H74   H     H_    0.930280 0.511154 0.264063 0.223048
N8    N     N_3   0.990825 0.460080 0.383735 -0.456257
H75   H     H_    0.026294 0.463667 0.428161 0.223829
H76   H     H_    0.984662 0.420821 0.371212 0.203089
I13   I     I_    0.398806 0.427976 0.083336 -0.299119
I14   I     I_    0.417303 0.576393 0.985106 -0.362941
I15   I     I_    0.343163 0.548435 0.144369 -0.261012
I16   I     I_    0.393959 0.453435 0.907966 -0.234682
I17   I     I_    0.823329 0.949809 0.656977 -0.292480
I18   I     I_    0.913044 0.054090 0.443790 -0.320728
I19   I     I_    0.878730 0.073865 0.619360 -0.241256
I20   I     I_    0.920123 0.927017 0.503862 -0.379078
I21   I     I_    0.985308 0.051745 0.883300 -0.210508
I22   I     I_    0.175791 0.931609 0.343804 -0.279421
I23   I     I_    0.110786 0.959197 0.765280 -0.194048
I24   I     I_    0.218969 0.128963 0.411496 -0.226267
I25   I     I_    0.382154 0.889897 0.477998 -0.162219
I26   I     I_    0.351008 0.236521 0.472204 -0.224040
I27   I     I_    0.579119 0.463976 0.310254 -0.223552
I28   I     I_    0.651790 0.554324 0.798871 -0.247731
I29   I     I_    0.129502 0.458319 0.743096 -0.329494
I30   I     I_    0.968812 0.565752 0.079378 -0.326573
I31   I     I_    0.007085 0.543374 0.871715 -0.308608
I32   I     I_    0.929311 0.390477 0.020550 -0.256802
I33   I     I_    0.699205 0.590465 0.174330 -0.311784
I34   I     I_    0.774355 0.294363 0.893066 -0.330394
I35   I     I_    0.521776 0.039190 0.356444 -0.358852
I36   I     I_    0.526998 0.960578 0.647321 -0.309244

loop_
_geom_bond_atom_site_label_1
_geom_bond_atom_site_label_2
_geom_bond_distance
_ccdc_geom_bond_type
C69   H41   1.079457 S    
C110  C118  1.429019 A    
C32   C39   1.558406 S    
C54   C58   1.389959 A    
C163  C164  1.395265 A    
C87   C119  1.421628 A    
C65   H37   1.082178 S    
Zn11  O39   1.947038 S    
C21   C37   1.493753 S    
N5    H69   1.045399 S    
C43   C83   1.420113 A    
O26   C7    1.296494 A    
C23   C39   1.497010 S    
C166  C170  1.413320 A    
O30   C11   1.286280 A    
C30   H14   1.111891 S    
C107  C115  1.421104 A    
C133  C137  1.390321 A    
C105  C113  1.419929 A    
H18   C174  1.080719 S    
C170  C174  1.415134 A    
Zn12  O26   1.938700 S    
C126  C134  1.375009 A    
C109  C149  1.449722 A    
N2    H63   1.045123 S    
C132  H60   1.079716 S    
C133  H53   1.082580 S    
C108  C116  1.441302 A    
C59   C67   1.390850 A    
C52   C64   1.389496 A    
C53   C57   1.387720 A    
C29   H5    1.108746 S    
C156  N4    1.438644 S    
C112  C120  1.420482 A    
C106  C146  1.446346 A    
O11   C7    1.270984 A    
C136  C140  1.380246 A    
O34   C15   1.285774 A    
C77   C81   1.418856 A    
C60   H32   1.081223 S    
N4    H67   1.045249 S    
Zn1   O44   1.948139 S    
C25   H1    1.111771 S    
C64   H36   1.082515 S    
N8    H75   1.045419 S    
C167  C171  1.406330 A    
C124  C132  1.385826 A    
C161  C165  1.419653 A    
Zn5   O48   1.948139 S    
C65   C73   1.416342 A    
Zn6   O47   1.948132 S    
C134  H54   1.081135 S    
Zn15  O3    1.954693 S    
C128  C136  1.373834 A    
Zn7   O46   1.951493 S    
O16   C12   1.274389 A    
C35   I20   2.171329 S    
C58   C66   1.393721 A    
C173  C177  1.409147 A    
Zn16  O4    1.972588 S    
Zn11  O3    1.972895 S    
Zn12  O4    1.955000 S    
Zn1   O13   1.942280 S    
C22   C38   1.492249 S    
C26   C28   1.540773 S    
Zn4   O16   1.942279 S    
N4    H68   1.044663 S    
C99   C123  1.415045 A    
C28   H4    1.109467 S    
C83   C115  1.418107 A    
C97   C121  1.407167 A    
C34   I15   2.198121 S    
C141  C149  1.415884 A    
C42   C50   1.393261 A    
Zn6   O4    1.947795 S    
N3    H66   1.046084 S    
C46   C86   1.417297 A    
N6    H71   1.045481 S    
C31   C40   1.555597 S    
C155  C164  1.425678 A    
C174  C178  1.389011 A    
C30   H6    1.110148 S    
C79   C83   1.412565 A    
Zn10  O22   1.938700 S    
C149  I5    2.157000 S    
C88   C120  1.419353 A    
C154  N2    1.433746 S    
O25   C8    1.282205 A    
Zn13  O29   1.935566 S    
C100  C124  1.409339 A    
Zn10  O2    1.955000 S    
C71   C79   1.417816 A    
O29   C12   1.288559 A    
C72   C80   1.413791 A    
C50   I30   2.104053 S    
C62   H34   1.078921 S    
C90   C98   1.408342 A    
C41   C49   1.393814 A    
C124  H48   1.076741 S    
N1    H61   1.045001 S    
C86   C118  1.415895 A    
O37   C17   1.281879 A    
C94   C102  1.409512 A    
O48   C23   1.277307 A    
C97   C109  1.424421 A    
C33   I13   2.157511 S    
C46   H26   1.079979 S    
C121  C129  1.379011 A    
C48   C88   1.423406 A    
C34   C38   1.585262 S    
C78   C94   1.404436 A    
Zn16  O35   1.933831 S    
C4    C90   1.456748 S    
C75   C87   1.413792 A    
C159  N7    1.432566 S    
C35   C36   1.601070 S    
Zn15  O33   1.935566 S    
Zn7   O10   1.942237 S    
O33   C16   1.283214 A    
C57   H29   1.082560 S    
C5    C95   1.459007 S    
C135  C139  1.381588 A    
O40   C20   1.264696 A    
C6    C96   1.458354 S    
C100  C112  1.419505 A    
C61   H33   1.082041 S    
C126  H50   1.081683 S    
C54   I34   2.111678 S    
C15   C119  1.451532 S    
C44   H24   1.081340 S    
C70   H42   1.079315 S    
Zn5   O17   1.942280 S    
C110  C150  1.428823 A    
C151  I7    2.144520 S    
C66   H38   1.080603 S    
C36   I19   2.187910 S    
C47   C55   1.394646 A    
Zn15  O51   1.956102 S    
C25   C27   1.545924 S    
C51   I31   2.106834 S    
C93   C101  1.414740 A    
C111  C119  1.414147 A    
C27   H3    1.110171 S    
C32   H8    1.111990 S    
Zn8   O3    1.941068 S    
C82   C114  1.420096 A    
C49   I29   2.109647 S    
C27   H11   1.113422 S    
C47   H27   1.079394 S    
C164  C168  1.408688 A    
C153  N1    1.433279 S    
C69   C77   1.416519 A    
O38   C18   1.262109 A    
C67   C75   1.419138 A    
C139  I23   2.108410 S    
O5    C1    1.274393 A    
C63   C71   1.390551 A    
O32   C9    1.296644 A    
C33   C37   1.585478 S    
C67   H39   1.079758 S    
C16   C120  1.447985 S    
C35   C39   1.585940 S    
C80   C84   1.409803 A    
C160  N8    1.433954 S    
C123  H47   1.072044 S    
C161  C162  1.408038 A    
Zn11  O28   1.932971 S    
C26   H2    1.111952 S    
C101  C125  1.415172 A    
C78   C82   1.409024 A    
C75   C91   1.415936 A    
C14   C118  1.466229 S    
O8    C4    1.288970 A    
Zn9   O1    1.972895 S    
C177  I10   2.133833 S    
C162  C166  1.418332 A    
C66   C74   1.417327 A    
C131  C143  1.385031 A    
C9    C113  1.475467 S    
O50   C18   1.306583 A    
C111  C151  1.433585 A    
C123  C131  1.391096 A    
Zn1   O1    1.947797 S    
C19   C168  1.460184 S    
C138  C146  1.416179 A    
Zn13  O1    1.954693 S    
Zn2   O14   1.946239 S    
C20   C167  1.465742 S    
C158  N6    1.433667 S    
C42   H22   1.080839 S    
C27   C38   1.558812 S    
C61   C69   1.386730 A    
C51   C63   1.387349 A    
O9    C5    1.282484 A    
O39   C19   1.306277 A    
O36   C13   1.277484 A    
C103  C107  1.414936 A    
C74   C90   1.417871 A    
C43   C51   1.394376 A    
C101  C105  1.399627 A    
C176  C180  1.397297 A    
O13   C9    1.271433 A    
Zn1   O8    1.946195 S    
N2    H64   1.041008 S    
Zn2   O7    1.942240 S    
C72   H44   1.078623 S    
C169  C173  1.417279 A    
Zn3   O6    1.942237 S    
O18   C14   1.306997 A    
O31   C10   1.285146 A    
C145  I1    2.131200 S    
O6    C2    1.280478 A    
C45   H25   1.081968 S    
C45   C85   1.420886 A    
C137  I21   2.119038 S    
C109  C117  1.431974 A    
C32   H16   1.113673 S    
C95   C103  1.413265 A    
Zn14  O30   1.933225 S    
C121  H45   1.078026 S    
C59   H31   1.082222 S    
O41   C21   1.279261 A    
C104  C108  1.421977 A    
C13   C117  1.451602 S    
Zn16  O34   1.933225 S    
C31   H15   1.113617 S    
N8    H76   1.045659 S    
C91   C99   1.427614 A    
C106  C114  1.439842 A    
C89   C97   1.415171 A    
C48   H28   1.078769 S    
Zn8   O20   1.942279 S    
C84   C116  1.421087 A    
C130  C142  1.391205 A    
C92   C100  1.422107 A    
C103  C127  1.414620 A    
C125  C133  1.391035 A    
C96   C104  1.407557 A    
C76   C92   1.414833 A    
C56   C60   1.381779 A    
C153  C162  1.427285 A    
C36   C40   1.586557 S    
C30   C40   1.560860 S    
Zn8   O9    1.948956 S    
C107  C147  1.427372 A    
C125  H49   1.079559 S    
C105  C145  1.422909 A    
C36   I18   2.189097 S    
N5    H70   1.044952 S    
C153  C157  1.400831 A    
C136  H56   1.083121 S    
C155  C159  1.401575 A    
C179  C180  1.395084 A    
O7    C3    1.276897 A    
C156  C160  1.407381 A    
N6    H72   1.042918 S    
O19   C15   1.276174 A    
C108  C148  1.446369 A    
C26   H10   1.113077 S    
Zn9   O24   1.932971 S    
Zn6   O18   1.946239 S    
C99   C111  1.409497 A    
Zn10  O23   1.935315 S    
C171  C172  1.408848 A    
C112  C152  1.443324 A    
C157  C158  1.388998 A    
C46   C54   1.393096 A    
C73   C85   1.410585 A    
C159  C160  1.400816 A    
Zn15  O36   1.938954 S    
O15   C11   1.280399 A    
C18   C165  1.458551 S    
C33   C34   1.592455 S    
Zn4   O1    1.941068 S    
C30   C32   1.535128 S    
C98   C122  1.414419 A    
Zn9   O37   1.947038 S    
O12   C8    1.284363 A    
C155  N3    1.435595 S    
C70   C78   1.413072 A    
C122  H46   1.082476 S    
C150  I6    2.150900 S    
C62   C70   1.389312 A    
Zn2   O43   1.948132 S    
C179  I12   2.122983 S    
C180  I11   2.122433 S    
C53   I33   2.103772 S    
Zn5   O3    1.947797 S    
C44   C52   1.393936 A    
C31   H7    1.112226 S    
C45   C53   1.396839 A    
C137  C145  1.406029 A    
N3    H65   1.041083 S    
C48   C56   1.394365 A    
C1    C91   1.474176 S    
C35   I17   2.200746 S    
C2    C92   1.467006 S    
C12   C116  1.462845 S    
C41   H21   1.069727 S    
C42   C82   1.421837 A    
C76   C88   1.410157 A    
C165  C169  1.419224 A    
O28   C5    1.280964 A    
C25   C37   1.560342 S    
C129  H57   1.081635 S    
C81   C113  1.441527 A    
Zn3   O42   1.951493 S    
C168  C172  1.435587 A    
C157  N5    1.427767 S    
C56   I36   2.105240 S    
Zn7   O4    1.941070 S    
O21   C4    1.278356 A    
H17   C173  1.075465 S    
C98   C110  1.406290 A    
C85   C117  1.422245 A    
C60   C68   1.385265 A    
H19   C175  1.081989 S    
C171  C175  1.415740 A    
H20   C176  1.070541 S    
C172  C176  1.425165 A    
C147  I3    2.132759 S    
C64   C72   1.392709 A    
Zn2   O2    1.947795 S    
C169  C170  1.405859 A    
Zn14  O2    1.972588 S    
C163  C167  1.423633 A    
C29   C39   1.550492 S    
Zn13  O49   1.956102 S    
O44   C21   1.271852 A    
C50   C62   1.385540 A    
C55   C59   1.387055 A    
C28   H12   1.113948 S    
C58   H30   1.082542 S    
C41   C81   1.427987 A    
Zn12  O27   1.935315 S    
C144  I28   2.132942 S    
C134  C138  1.378493 A    
Zn3   O2    1.941070 S    
C143  C151  1.404236 A    
C140  I24   2.128853 S    
C146  I2    2.125679 S    
C129  C141  1.383120 A    
C79   C95   1.414804 A    
N7    H73   1.045534 S    
C156  C163  1.426937 A    
N1    H62   1.042176 S    
O46   C24   1.275866 A    
Zn4   O41   1.951500 S    
Zn16  O52   1.947079 S    
C130  H58   1.082590 S    
Zn8   O45   1.951500 S    
C57   C65   1.388776 A    
O27   C6    1.278817 A    
C131  H59   1.082715 S    
C49   C61   1.382201 A    
C8    C94   1.458907 S    
C24   C40   1.492114 S    
C29   C31   1.541198 S    
C26   C38   1.560523 S    
O24   C1    1.299201 A    
C132  C144  1.383308 A    
C142  I26   2.122056 S    
C148  I4    2.128988 S    
C175  C179  1.390142 A    
C80   C96   1.406456 A    
C177  C178  1.396968 A    
C138  I22   2.128627 S    
O43   C22   1.271361 A    
C47   C87   1.420848 A    
O47   C24   1.274157 A    
Zn3   O15   1.949002 S    
Zn5   O12   1.946195 S    
O42   C22   1.279092 A    
C154  C161  1.432525 A    
Zn6   O11   1.942240 S    
Zn9   O21   1.933581 S    
Zn14  O50   1.947079 S    
C102  C126  1.411212 A    
O35   C14   1.265799 A    
Zn12  O40   1.956058 S    
C71   H43   1.079181 S    
N7    H74   1.045624 S    
C154  C158  1.402207 A    
C11   C115  1.459657 S    
O52   C20   1.306051 A    
C142  C150  1.403731 A    
C29   H13   1.113811 S    
C7    C93   1.478294 S    
C55   I35   2.111199 S    
C63   H35   1.082715 S    
C52   I32   2.111393 S    
O22   C3    1.280399 A    
Zn7   O19   1.949002 S    
C10   C114  1.458898 S    
C127  C135  1.382607 A    
C152  I8    2.152083 S    
Zn13  O32   1.938954 S    
O49   C17   1.277123 A    
Zn14  O31   1.933831 S    
C74   C86   1.414596 A    
C139  C147  1.405929 A    
O51   C19   1.263859 A    
C122  C130  1.392032 A    
C77   C93   1.409408 A    
C3    C89   1.463183 S    
C43   H23   1.080391 S    
Zn4   O5    1.948956 S    
O17   C13   1.279431 A    
O20   C16   1.268149 A    
C17   C166  1.439876 S    
O10   C6    1.274105 A    
O23   C2    1.277502 A    
C104  C128  1.411265 A    
C28   C37   1.561082 S    
Zn11  O25   1.933581 S    
C143  I27   2.127547 S    
Zn10  O38   1.956058 S    
C33   I16   2.193973 S    
C140  C148  1.419720 A    
C102  C106  1.424527 A    
C44   C84   1.421368 A    
O14   C10   1.286998 A    
C135  H55   1.081543 S    
C68   C76   1.418719 A    
C25   H9    1.113578 S    
C144  C152  1.409750 A    
C178  I9    2.125275 S    
C141  I25   2.133444 S    
C127  H51   1.077016 S    
C73   C89   1.404422 A    
C128  H52   1.081955 S    
O45   C23   1.274725 A    
C34   I14   2.159730 S    
C68   H40   1.077056 S    
