data_mof_unit_56748.cif
_audit_creation_date              2012-12-10T20:38:24-0500
_audit_creation_method            fapswitch 2.2
_symmetry_space_group_name_H-M    P1
_symmetry_Int_Tables_number       1
_space_group_crystal_system       triclinic
_cell_length_a                    9.846849
_cell_length_b                    10.678847
_cell_length_c                    16.656599
_cell_angle_alpha                 90.486753
_cell_angle_beta                  84.219036
_cell_angle_gamma                 89.812453
_cell_volume                      1742.50567938

loop_
_atom_site_label
_atom_site_type_symbol
_atom_type_description
_atom_site_fract_x
_atom_site_fract_y
_atom_site_fract_z
_atom_type_partial_charge
C1    C     C_R   0.500215 0.740131 0.497763 0.880868
C2    C     C_R   0.535961 0.543407 0.263207 -0.017073
C3    C     C_R   0.379029 0.936646 0.486276 0.141098
C4    C     C_R   0.480011 0.497880 0.653536 0.857666
C5    C     C_R   0.501771 0.871403 0.485229 -0.105791
C6    C     C_R   0.626169 0.934499 0.469008 -0.227418
C7    C     C_R   0.626411 0.063979 0.468830 -0.243488
C8    C     C_R   0.502282 0.128462 0.484970 -0.106908
C9    C     C_R   0.379305 0.064373 0.486094 0.141839
C10   C     C_3   0.254195 0.073352 0.544689 -0.492158
C11   C     C_3   0.254180 0.931522 0.545146 -0.502283
C12   C     C_R   0.356254 0.576202 0.778768 -0.229389
C13   C     C_R   0.922836 0.599207 0.531881 0.214837
C14   C     C_R   0.934768 0.407631 0.462110 -0.125846
C15   C     C_R   0.078871 0.407789 0.461928 -0.133568
C16   C     C_R   0.500611 0.259911 0.497582 0.873952
C17   C     C_R   0.065384 0.598269 0.532917 0.219793
C18   C     C_3   0.053993 0.640245 0.619024 -0.533201
C19   C     C_3   0.900476 0.645352 0.616756 -0.497673
C20   C     C_R   0.520116 0.504823 0.346730 0.862176
C21   C     C_R   0.465263 0.505187 0.741202 -0.088784
C22   C     C_R   0.565805 0.455320 0.787117 -0.008147
C23   C     C_R   0.468161 0.683889 0.160669 0.031229
C24   C     C_R   0.561382 0.489218 0.868409 -0.199968
C25   C     C_R   0.457473 0.568033 0.903753 0.157812
C26   C     C_R   0.351798 0.606468 0.860000 -0.149761
C27   C     C_R   0.674547 0.367671 0.752197 0.127678
C28   C     C_R   0.811958 0.388355 0.764601 -0.183946
C29   C     C_R   0.914530 0.309156 0.728746 -0.125580
C30   C     C_R   0.880859 0.207401 0.681443 -0.114592
C31   C     C_R   0.744434 0.184073 0.670406 -0.118771
C32   C     C_R   0.641574 0.263353 0.705782 -0.092956
C33   C     C_2   0.377769 0.787328 0.139225 0.356598
C34   C     C_R   0.448237 0.635685 0.238409 -0.307438
C35   C     C_R   0.648758 0.503286 0.211761 -0.190813
C36   C     C_R   0.666845 0.546902 0.133219 -0.204859
C37   C     C_R   0.573550 0.632208 0.106175 0.169819
C38   C     C_2   0.455447 0.605772 0.987865 -0.168563
C39   C     C_2   0.570199 0.639004 0.019014 -0.139848
H1    H     H_    0.748246 0.507456 0.091909 0.135579
H2    H     H_    0.086970 0.566671 0.659823 0.213356
H3    H     H_    0.366714 0.672932 0.280650 0.146795
H4    H     H_    0.099549 0.733718 0.627069 0.196802
H5    H     H_    0.844309 0.577669 0.657610 0.234143
H6    H     H_    0.858512 0.742234 0.620543 0.195804
H7    H     H_    0.720072 0.435505 0.231624 0.146021
H8    H     H_    0.666274 0.643628 0.980773 0.133637
H9    H     H_    0.269308 0.664468 0.887840 0.143014
H10   H     H_    0.278240 0.614151 0.744391 0.152368
H11   H     H_    0.359539 0.597290 0.025862 0.149159
H12   H     H_    0.722932 0.885021 0.462026 0.170051
H13   H     H_    0.637695 0.452657 0.904667 0.132707
H14   H     H_    0.840196 0.467859 0.800059 0.124282
H15   H     H_    0.020265 0.327122 0.737297 0.132219
H16   H     H_    0.960422 0.146400 0.653578 0.126136
H17   H     H_    0.718341 0.104666 0.634277 0.131601
H18   H     H_    0.536376 0.243950 0.696465 0.093664
H19   H     H_    0.286447 0.810410 0.178717 0.059176
H20   H     H_    0.723266 0.112533 0.461826 0.165202
H21   H     H_    0.274342 0.115898 0.603503 0.201170
H22   H     H_    0.166050 0.114023 0.517008 0.198562
H23   H     H_    0.275101 0.891773 0.604183 0.199196
H24   H     H_    0.165790 0.890310 0.517898 0.202933
H25   H     H_    0.885589 0.331909 0.432823 0.138824
H26   H     H_    0.138570 0.332298 0.432364 0.147820
N1    N     N_R   0.857140 0.500860 0.500530 -0.100020
N2    N     N_R   0.142780 0.500820 0.500530 -0.104418
O1    O     O_R   0.385310 0.683210 0.499990 -0.616216
O2    O     O_R   0.614650 0.683240 0.500000 -0.621652
O3    O     O_R   0.371780 0.500000 0.615800 -0.618011
O4    O     O_R   0.601120 0.500040 0.615800 -0.600068
O5    O     O_R   0.385350 0.316760 0.500000 -0.618771
O6    O     O_R   0.614690 0.316790 0.500010 -0.621553
O7    O     O_R   0.398880 0.499960 0.384200 -0.614059
O8    O     O_R   0.628220 0.500000 0.384200 -0.615981
O9    O     O_2   0.405932 0.850368 0.079071 -0.554132
Zn1   Zn    Zn3+2 0.346870 0.499980 0.499990 0.937986
Zn2   Zn    Zn3+2 0.653130 0.500020 0.500010 0.950133

loop_
_geom_bond_atom_site_label_1
_geom_bond_atom_site_label_2
_ccdc_geom_bond_type
C2    C35   A    
C24   H13   S    
C33   H19   S    
C35   C36   A    
N2    Zn1   S    
C11   H23   S    
C16   O5    A    
C4    O3    A    
C12   H10   S    
C7    C8    A    
O5    Zn1   S    
C1    C5    S    
C28   C29   A    
C11   H24   S    
C5    C6    A    
C29   H15   S    
C15   H26   S    
C1    O1    A    
C18   C19   S    
C8    C9    A    
C23   C33   S    
O7    Zn1   S    
C34   H3    S    
O6    Zn2   S    
C31   H17   S    
C9    C10   S    
C26   H9    S    
C2    C34   A    
C14   H25   S    
C8    C16   S    
C21   C22   A    
O3    Zn1   S    
O2    Zn2   S    
C32   H18   S    
C7    H20   S    
C13   N1    A    
C38   C39   D    
N1    Zn2   S    
C17   N2    A    
C13   C19   S    
C2    C20   S    
C16   O6    A    
C36   H1    S    
C24   C25   A    
C18   H2    S    
C25   C26   A    
C23   C37   A    
C12   C21   A    
C1    O2    A    
C20   O8    A    
C12   C26   A    
C10   H21   S    
C29   C30   A    
C3    C9    A    
C25   C38   S    
C33   O9    D    
C31   C32   A    
C23   C34   A    
C15   N2    A    
C17   C18   S    
C14   N1    A    
C20   O7    A    
C22   C27   S    
C6    H12   S    
C22   C24   A    
C10   H22   S    
C19   H5    S    
C39   H8    S    
O1    Zn1   S    
C36   C37   A    
C27   C32   A    
C3    C5    A    
C28   H14   S    
C19   H6    S    
C6    C7    A    
C38   H11   S    
C30   H16   S    
C13   C17   A    
C37   C39   S    
C18   H4    S    
C4    C21   S    
C30   C31   A    
O4    Zn2   S    
O8    Zn2   S    
C3    C11   S    
C10   C11   S    
C27   C28   A    
C14   C15   A    
C35   H7    S    
C4    O4    A    
