data_mof_unit_64134.cif
_audit_creation_date              2012-10-26T17:45:09-0400
_audit_creation_method            fapswitch 2.2
_symmetry_space_group_name_H-M    P1
_symmetry_Int_Tables_number       1
_space_group_crystal_system       triclinic
_cell_length_a                    32.255608
_cell_length_b                    32.257671
_cell_length_c                    23.700841
_cell_angle_alpha                 89.998169
_cell_angle_beta                  90.00129
_cell_angle_gamma                 89.985041
_cell_volume                      24660.5059346

loop_
_atom_site_label
_atom_site_type_symbol
_atom_type_description
_atom_site_fract_x
_atom_site_fract_y
_atom_site_fract_z
_atom_type_partial_charge
C1    C     C_R   0.000002 0.420424 0.499983 0.550800
C2    C     C_1   0.161410 0.000097 0.498951 0.010809
C3    C     C_R   0.728162 0.961763 0.496679 0.230025
C4    C     C_R   0.036235 0.271881 0.513492 0.230454
C5    C     C_R   0.728240 0.037440 0.499361 0.229507
C6    C     C_R   0.964224 0.728154 0.516565 0.228788
C7    C     C_R   0.271775 0.962622 0.503943 0.229586
C8    C     C_R   0.467719 0.771893 0.973736 0.230639
C9    C     C_R   0.771801 0.537973 0.006066 0.229392
C10   C     C_R   0.536418 0.228167 0.984493 0.229160
C11   C     C_R   0.228099 0.462168 0.997962 0.229819
C12   C     C_R   0.533777 0.771787 0.023973 0.229126
C13   C     C_1   0.999979 0.838603 0.499855 0.013901
C14   C     C_R   0.228262 0.537781 0.001343 0.227738
C15   C     C_R   0.464782 0.228144 0.017668 0.230357
C16   C     C_R   0.771884 0.463121 0.990972 0.230495
C17   C     C_R   0.999521 0.293611 0.501056 -0.011327
C18   C     C_R   0.293588 0.000221 0.498385 -0.011546
C19   C     C_R   0.999957 0.706402 0.499746 -0.009920
C20   C     C_R   0.706407 0.999640 0.498427 -0.011558
C21   C     C_R   0.500733 0.793615 0.998865 -0.011177
C22   C     C_R   0.793618 0.500526 0.998538 -0.011312
C23   C     C_R   0.500584 0.206381 0.001113 -0.011266
C24   C     C_1   0.838586 0.999745 0.498929 0.010987
C25   C     C_R   0.206419 0.499998 0.000010 -0.010180
C26   C     C_3   0.094463 0.301362 0.477582 -0.008135
C27   C     C_3   0.134150 0.324266 0.492569 -0.366196
C28   C     C_3   0.302723 0.918195 0.565329 -0.013400
C29   C     C_3   0.323806 0.876216 0.570654 -0.365706
C30   C     C_3   0.903960 0.698611 0.487719 -0.008554
C31   C     C_3   0.865348 0.675780 0.507381 -0.365951
C32   C     C_3   0.697350 0.085776 0.555054 -0.013273
C33   C     C_3   0.676323 0.127963 0.555209 -0.365698
C34   C     C_3   0.906685 0.305905 0.524406 -0.003191
C35   C     C_1   0.500208 0.661400 0.999716 0.012302
C36   C     C_3   0.861370 0.314570 0.511242 -0.369652
C37   C     C_3   0.694000 0.914484 0.442293 -0.003699
C38   C     C_3   0.683944 0.868487 0.439488 -0.368246
C39   C     C_3   0.096000 0.698644 0.511569 -0.008339
C40   C     C_3   0.134573 0.675751 0.491856 -0.366674
C41   C     C_3   0.305880 0.081380 0.432109 -0.003757
C42   C     C_3   0.316176 0.126967 0.423823 -0.368075
C43   C     C_3   0.594820 0.805902 0.009326 -0.003472
C44   C     C_3   0.636012 0.814621 0.038160 -0.370439
C45   C     C_3   0.801192 0.407607 0.034366 -0.008354
C46   C     C_1   0.661401 0.500276 0.999648 0.012269
C47   C     C_3   0.824329 0.367162 0.024691 -0.366548
C48   C     C_3   0.404514 0.198741 0.988506 -0.008013
C49   C     C_3   0.365883 0.175838 0.007948 -0.366688
C50   C     C_3   0.197118 0.585665 0.057469 -0.013336
C51   C     C_3   0.176023 0.627816 0.058061 -0.365970
C52   C     C_3   0.404583 0.801365 0.987557 -0.008271
C53   C     C_3   0.369189 0.824298 0.958907 -0.366947
C54   C     C_3   0.198457 0.413193 0.942277 -0.009407
C55   C     C_3   0.175158 0.372231 0.942331 -0.366012
C56   C     C_3   0.594485 0.193920 0.013859 -0.003156
C57   C     C_1   0.500263 0.338599 0.000200 0.012047
C58   C     C_3   0.638915 0.185536 0.995713 -0.370180
C59   C     C_3   0.806041 0.591178 0.962934 -0.002911
C60   C     C_3   0.814480 0.637266 0.969884 -0.369981
C61   C     C_3   0.094329 0.183878 0.485777 -0.311946
C62   C     C_3   0.193073 0.908724 0.448354 -0.294798
C63   C     C_3   0.904851 0.816361 0.495958 -0.312529
C64   C     C_3   0.806847 0.087369 0.437247 -0.293206
C65   C     C_3   0.902659 0.188383 0.515865 -0.303768
C66   C     C_3   0.812065 0.908918 0.448729 -0.310903
C67   C     C_3   0.095110 0.816325 0.502973 -0.310806
C68   C     C_1   0.338588 0.499920 0.999348 0.013529
C69   C     C_3   0.187793 0.087394 0.438231 -0.310412
C70   C     C_3   0.597093 0.688321 0.018972 -0.307983
C71   C     C_3   0.683768 0.407464 0.026276 -0.314877
C72   C     C_3   0.405297 0.316244 0.996625 -0.311723
C73   C     C_3   0.306769 0.588312 0.939938 -0.295065
C74   C     C_3   0.406333 0.683927 0.979686 -0.310578
C75   C     C_3   0.316530 0.411668 0.950289 -0.315066
C76   C     C_3   0.598173 0.311421 0.004841 -0.308891
C77   C     C_3   0.688481 0.595798 0.970382 -0.307437
C78   C     C_1   0.999782 0.338465 0.500508 0.007181
C79   C     C_1   0.338451 0.000138 0.499204 0.005108
C80   C     C_1   0.999975 0.661542 0.499834 0.014882
C81   C     C_R   0.420421 0.000007 0.500016 0.548436
C82   C     C_1   0.661546 0.999804 0.499245 0.004898
C83   C     C_1   0.500333 0.838468 0.999399 0.007062
C84   C     C_1   0.838469 0.500258 0.999242 0.007587
C85   C     C_1   0.500248 0.161530 0.000565 0.007084
C86   C     C_1   0.161552 0.499995 0.000060 0.012233
C87   C     C_1   0.999966 0.375883 0.500187 -0.015291
C88   C     C_1   0.375874 0.000045 0.499693 -0.016205
C89   C     C_1   0.999985 0.624123 0.499910 -0.010351
C90   C     C_1   0.624123 0.999942 0.499717 -0.016276
C91   C     C_1   0.500078 0.875885 0.999734 -0.015350
C92   C     C_R   0.999995 0.579579 0.499984 0.550885
C93   C     C_1   0.875887 0.500064 0.999689 -0.015070
C94   C     C_1   0.500036 0.124113 0.000230 -0.015502
C95   C     C_1   0.124129 0.499987 0.000045 -0.011826
C96   C     C_1   0.999970 0.123993 0.500012 -0.017515
C97   C     C_1   0.124007 0.000033 0.499821 -0.017354
C98   C     C_1   0.999991 0.876007 0.499953 -0.018806
C99   C     C_1   0.875990 0.999890 0.499808 -0.016404
C100  C     C_1   0.500071 0.623995 0.999939 -0.017163
C101  C     C_1   0.623995 0.500154 0.999929 -0.018213
C102  C     C_1   0.500134 0.376004 0.000027 -0.019103
C103  C     C_R   0.579578 0.999991 0.500023 0.548930
C104  C     C_1   0.375993 0.499976 0.999897 -0.017922
C105  C     C_R   1.000000 0.500000 0.391693 0.554629
C106  C     C_R   0.499999 0.000001 0.391694 0.551703
C107  C     C_R   0.000000 0.499999 0.608306 0.554454
C108  C     C_R   0.499999 0.999999 0.608305 0.552616
C109  C     C_R   0.499999 0.999998 0.891693 0.555332
C110  C     C_R   0.000000 0.500000 0.891694 0.553059
C111  C     C_R   0.500000 0.000001 0.108307 0.555097
C112  C     C_R   0.000002 0.499999 0.108305 0.553385
C113  C     C_R   0.079490 0.999994 0.499992 0.548328
C114  C     C_R   0.500009 0.920424 0.999986 0.552221
C115  C     C_R   1.000000 0.920514 0.499995 0.546765
C116  C     C_R   0.920509 0.999995 0.499990 0.549519
C117  C     C_R   0.000014 0.079485 0.499997 0.549181
C118  C     C_R   0.579486 0.500026 0.999996 0.547561
C119  C     C_R   0.500016 0.420514 0.000000 0.545882
C120  C     C_R   0.420510 0.500003 0.999996 0.546114
C121  C     C_R   0.499986 0.579486 0.999995 0.547917
C122  C     C_1   1.000000 0.500001 0.330908 -0.016054
C123  C     C_1   0.500000 0.000002 0.330910 -0.018045
C124  C     C_1   0.000001 0.499999 0.669092 -0.016296
C125  C     C_R   0.920425 0.500008 0.000002 0.550110
C126  C     C_1   0.499997 0.999998 0.669090 -0.016933
C127  C     C_1   0.499998 0.999997 0.830908 -0.015738
C128  C     C_1   0.000001 0.500001 0.830910 -0.017034
C129  C     C_1   0.500001 0.000001 0.169092 -0.016448
C130  C     C_1   0.000003 0.499999 0.169090 -0.016736
C131  C     C_1   0.000001 0.500000 0.279900 -0.035810
C132  C     C_1   0.500000 0.000002 0.279902 -0.037137
C133  C     C_1   0.000002 0.499999 0.720100 -0.036048
C134  C     C_1   0.499996 0.999996 0.720098 -0.036050
C135  C     C_1   0.499996 0.999996 0.779900 -0.035591
C136  C     C_R   0.499998 0.079575 0.999997 0.551351
C137  C     C_1   0.000002 0.500000 0.779901 -0.036341
C138  C     C_1   0.500001 0.000002 0.220100 -0.036536
C139  C     C_1   0.000003 0.500000 0.220099 -0.036083
C140  C     C_R   0.036285 0.228144 0.514284 0.121515
C141  C     C_R   0.228081 0.962379 0.500851 0.119038
C142  C     C_R   0.964322 0.771895 0.517494 0.121558
C143  C     C_R   0.771931 0.037453 0.496239 0.118885
C144  C     C_R   0.963061 0.228034 0.487172 0.123725
C145  C     C_R   0.771935 0.961627 0.497442 0.124783
C146  C     C_R   0.035560 0.771877 0.481858 0.121280
C147  C     C_R   0.079580 0.499995 0.000015 0.548927
C148  C     C_R   0.228041 0.037990 0.492872 0.124706
C149  C     C_R   0.533297 0.728033 0.025200 0.124198
C150  C     C_R   0.728146 0.463045 0.990198 0.121742
C151  C     C_R   0.464820 0.271882 0.018448 0.121298
C152  C     C_R   0.271958 0.537776 0.998105 0.118929
C153  C     C_R   0.467842 0.728155 0.972948 0.121324
C154  C     C_R   0.271850 0.461933 0.998268 0.122682
C155  C     C_R   0.536132 0.271921 0.983138 0.124034
C156  C     C_R   0.728045 0.537859 0.007424 0.124208
C157  C     C_R   0.999742 0.206287 0.500546 -0.000046
C158  C     C_1   0.999891 0.161396 0.500165 0.011635
C159  C     C_R   0.206283 0.000162 0.496975 -0.000745
C160  C     C_R   0.999955 0.793708 0.499732 -0.000125
C161  C     C_R   0.793712 0.999560 0.496960 -0.000904
C162  C     C_R   0.500458 0.706291 0.999272 -0.000144
C163  C     C_R   0.706294 0.500402 0.999079 0.000342
C164  C     C_R   0.500417 0.293707 0.000609 0.000173
C165  C     C_R   0.293701 0.499843 0.998018 -0.000759
C166  C     C_R   0.962813 0.271788 0.488548 0.229456
C167  C     C_R   0.271813 0.037822 0.492065 0.229898
C168  C     C_R   0.035668 0.728135 0.482833 0.228912
Cu1   Cu    Cu3+1 0.958970 0.500000 0.500000 0.946736
Cu2   Cu    Cu3+1 0.000000 0.000000 0.555770 0.957925
Cu3   Cu    Cu3+1 0.500000 0.500000 0.944230 0.942064
Cu4   Cu    Cu3+1 0.500000 0.500000 0.055770 0.954921
Cu5   Cu    Cu3+1 0.500000 0.041030 0.500000 0.950789
Cu6   Cu    Cu3+1 0.041030 0.500000 0.500000 0.944472
Cu7   Cu    Cu3+1 0.500000 0.958970 0.500000 0.951557
Cu8   Cu    Cu3+1 0.458970 0.000000 0.000000 0.943197
Cu9   Cu    Cu3+1 0.000000 0.541030 0.000000 0.948780
Cu10  Cu    Cu3+1 0.541030 0.000000 0.000000 0.944253
Cu11  Cu    Cu3+1 0.000000 0.458970 0.000000 0.948117
Cu12  Cu    Cu3+1 1.000000 0.000000 0.444230 0.933512
H1    H     H_    0.076308 0.321115 0.447989 0.133454
H2    H     H_    0.302809 0.851411 0.555182 0.153458
H3    H     H_    0.877928 0.168319 0.498101 0.141216
H4    H     H_    0.778509 0.900159 0.522298 0.287424
H5    H     H_    0.787386 0.899710 0.418649 0.134289
H6    H     H_    0.831866 0.881472 0.457286 0.132408
H7    H     H_    0.831696 0.933218 0.429126 0.153473
H8    H     H_    0.088676 0.778542 0.431757 0.285341
H9    H     H_    0.126411 0.802251 0.507015 0.123855
H10   H     H_    0.080182 0.816159 0.545280 0.148237
H11   H     H_    0.098682 0.848951 0.488944 0.157904
H12   H     H_    0.221462 0.100811 0.510390 0.287279
H13   H     H_    0.920179 0.678769 0.456215 0.133244
H14   H     H_    0.212410 0.094794 0.407149 0.134408
H15   H     H_    0.167882 0.115196 0.443633 0.133149
H16   H     H_    0.168247 0.061884 0.421539 0.153993
H17   H     H_    0.577103 0.721316 0.088839 0.287669
H18   H     H_    0.616131 0.713240 0.999787 0.132218
H19   H     H_    0.583546 0.668902 0.985003 0.152317
H20   H     H_    0.617644 0.668403 0.044998 0.144420
H21   H     H_    0.721461 0.403968 0.954563 0.285904
H22   H     H_    0.697086 0.376716 0.037149 0.120320
H23   H     H_    0.650836 0.403188 0.014078 0.153576
H24   H     H_    0.894054 0.727956 0.466964 0.132695
H25   H     H_    0.685029 0.427410 0.064526 0.146961
H26   H     H_    0.411453 0.278616 0.068055 0.287182
H27   H     H_    0.374017 0.302171 0.992396 0.125245
H28   H     H_    0.420397 0.315977 0.954433 0.142827
H29   H     H_    0.401652 0.348900 0.010485 0.158400
H30   H     H_    0.280592 0.599978 0.017934 0.270456
H31   H     H_    0.279044 0.594601 0.913426 0.163736
H32   H     H_    0.325838 0.563755 0.919789 0.151020
H33   H     H_    0.325729 0.616980 0.942507 0.130408
H34   H     H_    0.422018 0.721470 0.910932 0.285681
H35   H     H_    0.848104 0.695054 0.538328 0.156736
H36   H     H_    0.375026 0.698041 0.975999 0.123004
H37   H     H_    0.415504 0.684259 0.024928 0.147621
H38   H     H_    0.404580 0.651246 0.965261 0.157987
H39   H     H_    0.278468 0.399229 0.019756 0.285845
H40   H     H_    0.302428 0.383549 0.931212 0.123045
H41   H     H_    0.349051 0.404495 0.962040 0.150313
H42   H     H_    0.316683 0.436675 0.917971 0.144158
H43   H     H_    0.587579 0.278554 0.931179 0.287843
H44   H     H_    0.613958 0.286407 0.028715 0.134142
H45   H     H_    0.580503 0.331240 0.034620 0.152809
H46   H     H_    0.844897 0.669280 0.470744 0.094458
H47   H     H_    0.622171 0.330887 0.984234 0.140055
H48   H     H_    0.721288 0.595493 0.045509 0.286149
H49   H     H_    0.713498 0.608436 0.943275 0.135503
H50   H     H_    0.668590 0.621893 0.984507 0.131009
H51   H     H_    0.669072 0.574227 0.945232 0.156985
H52   H     H_    0.874170 0.645963 0.527525 0.169700
H53   H     H_    0.725875 0.087871 0.581433 0.119770
H54   H     H_    0.675761 0.062986 0.574538 0.138126
H55   H     H_    0.647285 0.126687 0.530072 0.169927
H56   H     H_    0.668627 0.137069 0.599164 0.098458
H57   H     H_    0.103053 0.271982 0.455870 0.132686
H58   H     H_    0.697345 0.151609 0.536725 0.153467
H59   H     H_    0.920946 0.334967 0.540396 0.144320
H60   H     H_    0.907868 0.282129 0.558536 0.116685
H61   H     H_    0.846133 0.285880 0.495703 0.151360
H62   H     H_    0.845200 0.325253 0.549969 0.096375
H63   H     H_    0.858922 0.339043 0.478442 0.167741
H64   H     H_    0.718259 0.921152 0.410032 0.115006
H65   H     H_    0.665548 0.932132 0.431242 0.141925
H66   H     H_    0.659010 0.860857 0.470094 0.168781
H67   H     H_    0.673304 0.860284 0.396349 0.096232
H68   H     H_    0.153299 0.305077 0.521474 0.156465
H69   H     H_    0.712017 0.849999 0.449708 0.151108
H70   H     H_    0.079839 0.678872 0.543202 0.133289
H71   H     H_    0.105948 0.728023 0.532181 0.133410
H72   H     H_    0.151760 0.694954 0.460778 0.155838
H73   H     H_    0.155093 0.669308 0.528445 0.094081
H74   H     H_    0.125710 0.645900 0.471851 0.169401
H75   H     H_    0.281497 0.072814 0.400871 0.115493
H76   H     H_    0.334209 0.062935 0.423068 0.141340
H77   H     H_    0.341228 0.136385 0.453307 0.168601
H78   H     H_    0.326752 0.132322 0.379833 0.096927
H79   H     H_    0.152212 0.330697 0.453654 0.094684
H80   H     H_    0.288231 0.146199 0.431922 0.151301
H81   H     H_    0.584090 0.834941 0.988772 0.144870
H82   H     H_    0.600275 0.782107 0.976000 0.116039
H83   H     H_    0.647770 0.785952 0.058617 0.151933
H84   H     H_    0.659050 0.825308 0.006530 0.094692
H85   H     H_    0.632031 0.839108 0.070660 0.167250
H86   H     H_    0.771720 0.400422 0.056776 0.133353
H87   H     H_    0.820717 0.427783 0.061722 0.133220
H88   H     H_    0.854275 0.373366 0.003146 0.170231
H89   H     H_    0.830614 0.351864 0.065786 0.094646
H90   H     H_    0.126601 0.354124 0.513539 0.169559
H91   H     H_    0.805371 0.346048 0.998150 0.155188
H92   H     H_    0.420769 0.179005 0.956917 0.133777
H93   H     H_    0.394627 0.228142 0.967894 0.132731
H94   H     H_    0.348597 0.195009 0.038969 0.156148
H95   H     H_    0.345477 0.169449 0.971228 0.094184
H96   H     H_    0.374688 0.145959 0.027936 0.169267
H97   H     H_    0.225529 0.587599 0.084100 0.120343
H98   H     H_    0.175476 0.562691 0.076440 0.137364
H99   H     H_    0.147099 0.626691 0.032668 0.169490
H100  H     H_    0.168118 0.636566 0.102081 0.098197
H101  H     H_    0.274212 0.917823 0.591881 0.119766
H102  H     H_    0.197088 0.651637 0.040093 0.153342
H103  H     H_    0.416373 0.821093 0.022630 0.134083
H104  H     H_    0.392106 0.771977 0.005396 0.133135
H105  H     H_    0.356312 0.805136 0.924139 0.155606
H106  H     H_    0.344236 0.830712 0.989986 0.093660
H107  H     H_    0.380521 0.854165 0.941414 0.169269
H108  H     H_    0.227818 0.408881 0.918274 0.132787
H109  H     H_    0.178923 0.436674 0.920327 0.131447
H110  H     H_    0.145323 0.375695 0.965261 0.170066
H111  H     H_    0.168647 0.362497 0.898273 0.095840
H112  H     H_    0.324291 0.942207 0.581918 0.137552
H113  H     H_    0.194110 0.347939 0.963271 0.155280
H114  H     H_    0.581344 0.164720 0.031111 0.144510
H115  H     H_    0.595220 0.217538 0.048216 0.115618
H116  H     H_    0.653055 0.214367 0.978796 0.151695
H117  H     H_    0.657369 0.174770 0.032458 0.094337
H118  H     H_    0.639528 0.161215 0.962551 0.167814
H119  H     H_    0.782413 0.587390 0.928963 0.116284
H120  H     H_    0.835225 0.575919 0.949191 0.144150
H121  H     H_    0.838810 0.642219 0.002354 0.167826
H122  H     H_    0.825260 0.650531 0.929214 0.096678
H123  H     H_    0.352830 0.875851 0.545436 0.170108
H124  H     H_    0.785667 0.653462 0.983055 0.150178
H125  H     H_    0.092494 0.221451 0.557699 0.287363
H126  H     H_    0.125195 0.198047 0.477992 0.123330
H127  H     H_    0.076677 0.184097 0.445460 0.143141
H128  H     H_    0.098920 0.151231 0.499161 0.161511
H129  H     H_    0.219606 0.901431 0.527100 0.270473
H130  H     H_    0.220682 0.901061 0.422293 0.163852
H131  H     H_    0.173827 0.932053 0.425943 0.151320
H132  H     H_    0.174218 0.880227 0.454016 0.132055
H133  H     H_    0.911028 0.778604 0.567249 0.287513
H134  H     H_    0.331536 0.870075 0.615543 0.098043
H135  H     H_    0.873622 0.802202 0.491549 0.123098
H136  H     H_    0.920007 0.816315 0.453800 0.142866
H137  H     H_    0.901089 0.848954 0.510043 0.161496
H138  H     H_    0.780471 0.099886 0.514868 0.269842
H139  H     H_    0.779186 0.093347 0.410480 0.162965
H140  H     H_    0.825979 0.062601 0.417697 0.152245
H141  H     H_    0.825784 0.116071 0.439310 0.134445
H142  H     H_    0.908590 0.221291 0.441255 0.285803
H143  H     H_    0.887832 0.213344 0.540948 0.135007
H144  H     H_    0.922282 0.169126 0.544024 0.158186
N1    N     N_2   0.072943 0.206251 0.530176 -0.499175
N2    N     N_2   0.706232 0.425450 0.979256 -0.500647
N3    N     N_2   0.429281 0.293806 0.038433 -0.499234
N4    N     N_2   0.294198 0.575954 0.996051 -0.504191
N5    N     N_2   0.435555 0.706268 0.944498 -0.502335
N6    N     N_2   0.293741 0.423501 0.000515 -0.501157
N7    N     N_2   0.571242 0.293980 0.962143 -0.494748
N8    N     N_2   0.705924 0.575197 0.019182 -0.497934
N9    N     N_2   0.205889 0.924170 0.502926 -0.504990
N10   N     N_2   0.928849 0.793831 0.537654 -0.498894
N11   N     N_2   0.794140 0.075628 0.493548 -0.505397
N12   N     N_2   0.926814 0.205916 0.470255 -0.499964
N13   N     N_2   0.794019 0.923367 0.501082 -0.497011
N14   N     N_2   0.070964 0.793790 0.461460 -0.503649
N15   N     N_2   0.205943 0.076331 0.492028 -0.497377
N16   N     N_2   0.565051 0.705917 0.054412 -0.494144
O1    O     O_R   0.965350 0.440130 0.499980 -0.503822
O2    O     O_R   0.940130 0.534650 0.999980 -0.503285
O3    O     O_R   0.534650 0.059870 0.999980 -0.504442
O4    O     O_R   0.059870 0.465350 0.999980 -0.501947
O5    O     O_R   0.534650 0.940130 0.000020 -0.505185
O6    O     O_R   0.059870 0.534650 0.000020 -0.502444
O7    O     O_R   0.465350 0.059870 0.000020 -0.502912
O8    O     O_R   0.940130 0.465350 0.000020 -0.502127
O9    O     O_R   0.059790 0.999980 0.452860 -0.509425
O10   O     O_R   0.999980 0.940210 0.452860 -0.503974
O11   O     O_R   0.940210 0.000020 0.452860 -0.508596
O12   O     O_R   0.440130 0.034650 0.499980 -0.501500
O13   O     O_R   0.000020 0.059790 0.452860 -0.503310
O14   O     O_R   0.940210 0.999980 0.547140 -0.497637
O15   O     O_R   0.000020 0.940210 0.547140 -0.499946
O16   O     O_R   0.059790 0.000020 0.547140 -0.497467
O17   O     O_R   0.999980 0.059790 0.547140 -0.500572
O18   O     O_R   0.559790 0.499980 0.952860 -0.501814
O19   O     O_R   0.499980 0.440210 0.952860 -0.501506
O20   O     O_R   0.440210 0.500020 0.952860 -0.509524
O21   O     O_R   0.500020 0.559790 0.952860 -0.503680
O22   O     O_R   0.440210 0.499980 0.047140 -0.497389
O23   O     O_R   0.034650 0.559870 0.499980 -0.503847
O24   O     O_R   0.500020 0.440210 0.047140 -0.502501
O25   O     O_R   0.559790 0.500020 0.047140 -0.502158
O26   O     O_R   0.499980 0.559790 0.047140 -0.498276
O27   O     O_R   0.965350 0.499980 0.418590 -0.501307
O28   O     O_R   0.499980 0.034650 0.418590 -0.502228
O29   O     O_R   0.034650 0.500020 0.418590 -0.502229
O30   O     O_R   0.500020 0.965350 0.418590 -0.501990
O31   O     O_R   0.034650 0.499980 0.581410 -0.502191
O32   O     O_R   0.500020 0.034650 0.581410 -0.501856
O33   O     O_R   0.965350 0.500020 0.581410 -0.501901
O34   O     O_R   0.559870 0.965350 0.499980 -0.501853
O35   O     O_R   0.499980 0.965350 0.581410 -0.501592
O36   O     O_R   0.465350 0.999980 0.918590 -0.502560
O37   O     O_R   0.999980 0.534650 0.918590 -0.501917
O38   O     O_R   0.534650 0.000020 0.918590 -0.501071
O39   O     O_R   0.000020 0.465350 0.918590 -0.502072
O40   O     O_R   0.534650 0.999980 0.081410 -0.502388
O41   O     O_R   0.000020 0.534650 0.081410 -0.501734
O42   O     O_R   0.465350 0.000020 0.081410 -0.501885
O43   O     O_R   0.999980 0.465350 0.081410 -0.501888
O44   O     O_3   0.071865 0.293443 0.527466 -0.553667
O45   O     O_R   0.034650 0.440130 0.500020 -0.502604
O46   O     O_3   0.293139 0.925533 0.508010 -0.552363
O47   O     O_3   0.929618 0.706625 0.534748 -0.554260
O48   O     O_3   0.706897 0.074659 0.498865 -0.552626
O49   O     O_3   0.926893 0.292907 0.474493 -0.555610
O50   O     O_3   0.706949 0.924466 0.497645 -0.554293
O51   O     O_3   0.070256 0.706584 0.464600 -0.554770
O52   O     O_3   0.293010 0.075042 0.488481 -0.554395
O53   O     O_3   0.565739 0.792901 0.050319 -0.555651
O54   O     O_3   0.793453 0.426659 0.981759 -0.553623
O55   O     O_3   0.430114 0.206613 0.035643 -0.553934
O56   O     O_R   0.559870 0.034650 0.500020 -0.501829
O57   O     O_3   0.206943 0.575010 0.001208 -0.553261
O58   O     O_3   0.436030 0.793463 0.947515 -0.554251
O59   O     O_3   0.206487 0.425129 0.998547 -0.553668
O60   O     O_3   0.571334 0.207015 0.966418 -0.555301
O61   O     O_3   0.792923 0.574716 0.015275 -0.555429
O62   O     O_R   0.965350 0.559870 0.500020 -0.503464
O63   O     O_R   0.440130 0.965350 0.500020 -0.501399
O64   O     O_R   0.465350 0.940130 0.999980 -0.503555

loop_
_geom_bond_atom_site_label_1
_geom_bond_atom_site_label_2
_ccdc_geom_bond_type
C1    C87   S    
C133  C137  S    
C157  C158  S    
Cu1   O1    S    
C73   H32   S    
C136  O3    A    
C111  O42   A    
C15   C151  A    
C152  C165  A    
C55   H111  S    
C32   H54   S    
Cu2   O15   S    
C76   H44   S    
C57   C102  T    
C50   H97   S    
C124  C133  T    
C36   H61   S    
C117  O17   A    
C154  N6    S    
C42   H77   S    
C142  N10   S    
Cu7   O63   S    
C5    C143  A    
C103  O34   A    
C125  O8    A    
C37   H65   S    
C11   C154  A    
C109  C127  S    
Cu5   O56   S    
C21   C83   S    
C9    C156  A    
C2    C159  S    
Cu1   Cu6   S    
C61   H127  S    
Cu11  O39   S    
C13   C160  S    
C40   H74   S    
C76   N7    S    
H4    N13   S    
Cu8   O36   S    
C37   H64   S    
Cu6   O31   S    
C9    O61   S    
C45   C47   S    
C67   H10   S    
H138  N11   S    
C64   H139  S    
C28   H112  S    
C99   C116  S    
C37   O50   S    
C8    O58   S    
C144  N12   S    
C63   N10   S    
H129  N9    S    
C43   C44   S    
C37   C38   S    
C150  C163  A    
C52   H104  S    
C53   H105  S    
C41   H76   S    
C51   H99   S    
C39   O51   S    
C33   H56   S    
C67   N14   S    
C66   H6    S    
C109  O38   A    
C60   H122  S    
C56   H114  S    
C70   H20   S    
Cu10  O5    S    
C36   H63   S    
C65   H143  S    
C43   H82   S    
C44   H85   S    
Cu11  O8    S    
C83   C91   T    
C125  O2    A    
C77   H49   S    
Cu6   O45   S    
C105  O27   A    
Cu12  O9    S    
C32   C33   S    
C108  O35   A    
C145  C161  A    
C17   C78   S    
C63   H135  S    
C84   C93   T    
C1    O1    A    
C19   C80   S    
C81   C88   S    
C86   C95   T    
C4    O44   S    
C59   H120  S    
C38   H69   S    
C71   H25   S    
C31   H35   S    
C126  C134  T    
C71   N2    S    
C41   H75   S    
C81   O12   A    
C149  C162  A    
C34   O49   S    
C108  C126  S    
C132  C138  S    
C143  C161  A    
C52   O58   S    
C102  C119  S    
C110  C128  S    
C78   C87   T    
C67   H11   S    
C69   N15   S    
C20   C82   S    
C123  C132  T    
C92   O23   A    
C26   H57   S    
C119  O19   A    
H21   N2    S    
C44   H83   S    
C72   H28   S    
C5    C20   A    
C26   O44   S    
C72   N3    S    
C6    C19   A    
H34   N5    S    
C101  C118  S    
C146  N14   S    
C17   C166  A    
C54   H109  S    
C53   H107  S    
C30   H13   S    
C146  C160  A    
H26   N3    S    
C11   C25   A    
C62   H132  S    
C69   H15   S    
C61   N1    S    
C42   H80   S    
C33   H58   S    
C141  C159  A    
C116  O14   A    
C6    O47   S    
Cu9   Cu11  S    
Cu7   O30   S    
C154  C165  A    
C64   H141  S    
C108  O32   A    
Cu8   Cu10  S    
C114  O64   A    
C70   H18   S    
H125  N1    S    
C66   N13   S    
C117  O13   A    
C58   H118  S    
C150  N2    S    
C43   O53   S    
Cu5   Cu7   S    
C60   H124  S    
C46   C101  T    
C77   H51   S    
H39   N6    S    
C29   H2    S    
C121  O26   A    
C56   O60   S    
C77   N8    S    
C96   C117  S    
C95   C147  S    
C156  C163  A    
Cu12  O11   S    
C39   C40   S    
Cu3   O20   S    
C107  O33   A    
C143  N11   S    
C72   H29   S    
C45   H87   S    
Cu4   O25   S    
C74   H38   S    
C106  O28   A    
C8    C153  A    
C49   H95   S    
C106  O30   A    
C3    C145  A    
C1    O45   A    
C46   C163  S    
C35   C100  T    
C122  C131  T    
C7    C141  A    
C34   H60   S    
C52   C53   S    
C147  O4    A    
C148  C167  A    
C54   C55   S    
C76   H45   S    
H133  N10   S    
C73   H31   S    
Cu10  O38   S    
C10   C155  A    
C18   C167  A    
C134  C135  S    
Cu2   O16   S    
C62   H130  S    
C70   N16   S    
C50   H98   S    
Cu6   O29   S    
C149  N16   S    
Cu9   O37   S    
C120  O20   A    
C14   O57   S    
C42   H78   S    
C65   N12   S    
C98   C115  S    
C39   H70   S    
Cu10  O3    S    
C56   C58   S    
C105  C122  S    
C34   C36   S    
C131  C139  S    
C55   H113  S    
C156  N8    S    
Cu2   O17   S    
C47   H91   S    
C59   C60   S    
C152  N4    S    
C151  C164  A    
C31   H46   S    
C14   C152  A    
C16   C150  A    
C112  C130  S    
C144  C157  A    
H43   N7    S    
Cu9   O2    S    
Cu11  O4    S    
C71   H22   S    
Cu4   O22   S    
C110  O39   A    
C41   C42   S    
C24   C161  S    
Cu3   O18   S    
Cu10  O40   S    
C107  O31   A    
C26   C27   S    
C118  O18   A    
C107  C124  S    
C28   C29   S    
C64   H140  S    
C127  C135  T    
C153  N5    S    
C30   C31   S    
C40   H72   S    
C54   H108  S    
C38   H66   S    
C32   O48   S    
C100  C121  S    
Cu1   O27   S    
C80   C89   T    
C48   O55   S    
Cu1   O33   S    
C111  O40   A    
C111  C129  S    
C16   O54   S    
C2    C97   T    
C18   C79   S    
C112  O43   A    
C51   H102  S    
C115  O15   A    
C6    C142  A    
C33   H55   S    
Cu9   O6    S    
Cu5   O28   S    
C66   H7    S    
C76   H47   S    
C73   H33   S    
C130  C139  T    
C79   C88   T    
C28   O46   S    
C32   H53   S    
Cu2   O14   S    
C28   H101  S    
Cu12  O13   S    
C43   H81   S    
C12   O53   S    
H8    N14   S    
C41   O52   S    
C109  O36   A    
C144  C166  A    
C148  C159  A    
Cu12  O10   S    
C74   N5    S    
C47   H89   S    
C62   N9    S    
Cu5   O32   S    
C31   H52   S    
C116  O11   A    
C50   C51   S    
C77   H50   S    
C3    C20   A    
C34   H59   S    
C59   H119  S    
C40   H73   S    
Cu8   O64   S    
C48   C49   S    
C75   N6    S    
C49   H94   S    
Cu4   O24   S    
C110  O37   A    
C155  C164  A    
C141  N9    S    
C19   C168  A    
C30   O47   S    
C151  N3    S    
C30   H24   S    
C146  C168  A    
C113  O16   A    
C16   C22   A    
C63   H137  S    
C12   C149  A    
C68   C104  T    
C81   O63   A    
C44   H84   S    
C91   C114  S    
H12   N15   S    
H142  N12   S    
C115  O10   A    
C82   C90   T    
C153  C162  A    
Cu6   O23   S    
C54   O59   S    
C36   H62   S    
C136  O7    A    
C27   H68   S    
C52   H103  S    
C53   H106  S    
C11   O59   S    
C75   H40   S    
C50   O57   S    
C118  O25   A    
C69   H14   S    
C64   N11   S    
C51   H100  S    
C15   O55   S    
Cu7   O34   S    
C14   C25   A    
C93   C125  S    
C90   C103  S    
C114  O5    A    
C92   O62   A    
C26   H1    S    
C39   H71   S    
C66   H5    S    
Cu8   O7    S    
C55   H110  S    
C104  C120  S    
C47   H88   S    
C96   C158  T    
Cu3   Cu4   S    
H30   N4    S    
C70   H19   S    
C24   C99   T    
Cu9   O41   S    
C65   H144  S    
Cu11  O43   S    
C61   H126  S    
C10   O60   S    
C71   H23   S    
C60   H121  S    
C112  O41   A    
C59   O61   S    
C145  N13   S    
C167  O52   S    
C168  O51   S    
Cu3   O19   S    
C9    C22   A    
H17   N16   S    
C63   H136  S    
C148  N15   S    
C13   C98   T    
Cu5   O12   S    
C129  C138  T    
C49   H96   S    
Cu4   O26   S    
C106  C123  S    
C94   C136  S    
C140  N1    S    
C121  O21   A    
C3    O50   S    
C68   C165  S    
C15   C23   A    
C103  O56   A    
C45   O54   S    
C72   H27   S    
C35   C162  S    
C29   H134  S    
Cu3   O21   S    
Cu8   O42   S    
C62   H131  S    
C12   C21   A    
C69   H16   S    
Cu2   Cu12  S    
C22   C84   S    
C128  C137  T    
C140  C157  A    
C4    C140  A    
C58   H116  S    
C85   C94   T    
C7    C18   A    
Cu7   O35   S    
C8    C21   A    
C89   C92   S    
C48   H92   S    
C29   H123  S    
C155  N7    S    
C56   H115  S    
C105  O29   A    
C4    C17   A    
C97   C113  S    
C119  O24   A    
C58   H117  S    
C61   H128  S    
C65   H3    S    
C45   H86   S    
C7    O46   S    
C74   H36   S    
C5    O48   S    
C142  C160  A    
C67   H9    S    
C147  O6    A    
C10   C23   A    
C27   H79   S    
C48   H93   S    
H48   N8    S    
C113  O9    A    
C57   C164  S    
C75   H42   S    
C38   H67   S    
C74   H37   S    
C25   C86   S    
C73   N4    S    
C27   H90   S    
C75   H41   S    
C23   C85   S    
C166  O49   S    
C120  O22   A    
Cu1   O62   S    
