data_mof_unit_48602.cif
_audit_creation_date              2012-12-11T15:32:31-0500
_audit_creation_method            fapswitch 2.2
_symmetry_space_group_name_H-M    P1
_symmetry_Int_Tables_number       1
_space_group_crystal_system       triclinic
_cell_length_a                    6.980304
_cell_length_b                    20.455669
_cell_length_c                    24.359466
_cell_angle_alpha                 89.670972
_cell_angle_beta                  90.648969
_cell_angle_gamma                 89.244678
_cell_volume                      3477.62420554

loop_
_atom_site_label
_atom_site_type_symbol
_atom_type_description
_atom_site_fract_x
_atom_site_fract_y
_atom_site_fract_z
_atom_type_partial_charge
O1    O     O_R   0.507320 0.423560 0.460500 -0.537818
O2    O     O_R   0.170760 0.556250 0.437010 -0.532282
O3    O     O_R   0.004030 0.576440 0.539500 -0.536055
C1    C     C_R   0.337813 0.576338 0.421032 0.723741
O4    O     O_R   0.177370 0.422820 0.454110 -0.531899
O5    O     O_R   0.010680 0.442050 0.556720 -0.536330
C2    C     C_R   0.346295 0.398914 0.443493 0.705326
O6    O     O_R   0.500680 0.557950 0.443280 -0.537227
O7    O     O_3   0.340380 0.506470 0.533650 -0.369706
V1    V     V_3+5 0.064130 0.498800 0.493760 1.479152
O8    O     O_R   0.681160 0.443750 0.562990 -0.535795
C3    C     C_R   0.850913 0.423815 0.578779 0.714441
O9    O     O_R   0.674560 0.577180 0.545890 -0.538930
C4    C     C_R   0.842567 0.601095 0.556423 0.703795
V2    V     V_3+5 0.564560 0.501200 0.506240 1.463065
O10   O     O_3   0.838180 0.493530 0.466350 -0.365813
C5    C     C_R   0.975527 0.838300 0.911159 -0.045942
C6    C     C_R   0.847529 0.662205 0.588099 -0.064636
C7    C     C_R   0.017512 0.721028 0.906879 -0.150434
C8    C     C_R   0.016089 0.778615 0.937020 -0.161781
C9    C     C_R   0.937958 0.840217 0.854331 -0.210932
C10   C     C_R   0.942337 0.782141 0.822240 0.088617
C11   C     C_R   0.981333 0.722214 0.850061 0.131230
C12   C     C_R   0.909755 0.781277 0.763849 0.056707
C13   C     C_R   0.913386 0.720520 0.734665 0.066824
C14   C     C_R   0.950423 0.662524 0.764963 -0.181047
C15   C     C_R   0.984439 0.663614 0.821198 -0.186881
C16   C     C_R   0.876222 0.839219 0.733610 -0.181602
C17   C     C_R   0.839890 0.838267 0.677548 -0.145120
C18   C     C_R   0.833991 0.779503 0.648266 0.059821
C19   C     C_R   0.878566 0.719706 0.676280 0.082597
C20   C     C_R   0.789801 0.779450 0.591065 -0.005450
C21   C     C_R   0.798956 0.720801 0.561891 -0.195528
C22   C     C_R   0.886568 0.661431 0.644636 -0.205411
H1    H     H_    0.013035 0.617722 0.842442 0.140944
H2    H     H_    0.921433 0.614397 0.662398 0.101522
H3    H     H_    0.763414 0.720411 0.518417 0.137598
H4    H     H_    0.820019 0.885015 0.657264 0.166147
H5    H     H_    0.048265 0.675282 0.928073 0.128616
H6    H     H_    0.046569 0.776639 0.980721 0.121642
H7    H     H_    0.907522 0.887690 0.836718 0.095481
H8    H     H_    0.953410 0.614823 0.746610 0.131986
H9    H     H_    0.878123 0.886908 0.752026 0.129661
C23   C     C_3   0.825261 0.303872 0.768459 -0.142915
C24   C     C_3   0.018805 0.276928 0.790263 0.350158
C25   C     C_1   0.962240 0.121604 0.875447 -0.147064
C26   C     C_1   0.862367 0.378518 0.624576 -0.133658
C27   C     C_3   0.740693 0.233995 0.769915 -0.164076
C28   C     C_3   0.936277 0.207427 0.791402 0.018298
C29   C     C_3   0.810919 0.223214 0.710398 0.014818
C30   C     C_3   0.891477 0.292977 0.708876 -0.060728
C31   C     C_3   0.005318 0.195629 0.731955 -0.257830
C32   C     C_3   0.085196 0.266054 0.730723 -0.086179
C33   C     C_1   0.952471 0.160078 0.837413 0.094980
C34   C     C_1   0.873125 0.340178 0.662662 0.116448
H10   H     H_    0.080242 0.151072 0.716991 0.168917
H11   H     H_    0.598529 0.220005 0.785789 0.199871
C35   C     C_3   0.509799 0.721195 0.211682 -0.107363
C36   C     C_3   0.309897 0.697822 0.230222 -0.285244
H12   H     H_    0.233121 0.654732 0.213987 0.164243
H13   H     H_    0.594820 0.695721 0.180000 0.192071
C37   C     C_1   0.342991 0.622060 0.374978 -0.157576
C38   C     C_1   0.479655 0.877937 0.124983 -0.095435
C39   C     C_3   0.569174 0.731460 0.272682 -0.028925
C40   C     C_3   0.370024 0.708457 0.290858 0.011467
C41   C     C_3   0.492724 0.803269 0.269781 -0.150208
C42   C     C_3   0.434706 0.792493 0.209050 0.044670
C43   C     C_3   0.293905 0.779500 0.287845 -0.115993
C44   C     C_3   0.236857 0.769610 0.227173 0.408321
C45   C     C_1   0.351068 0.660755 0.336870 0.052126
C46   C     C_1   0.465494 0.839454 0.163065 0.158350
H14   H     H_    0.565371 0.846824 0.286705 0.188546
H15   H     H_    0.707903 0.715522 0.291463 0.163646
C47   C     C_R   0.468760 0.161900 0.088792 -0.061092
C48   C     C_R   0.351330 0.338088 0.411328 -0.056501
C49   C     C_R   0.486659 0.279684 0.091768 -0.112573
C50   C     C_R   0.500337 0.221531 0.062604 -0.131671
C51   C     C_R   0.428754 0.160647 0.145267 -0.197704
C52   C     C_R   0.416746 0.219488 0.176341 0.091322
C53   C     C_R   0.443325 0.279270 0.147956 0.093841
C54   C     C_R   0.379409 0.221234 0.234196 0.047613
C55   C     C_R   0.368394 0.282836 0.262416 -0.006087
C56   C     C_R   0.365413 0.341224 0.229984 -0.023371
C57   C     C_R   0.416070 0.338665 0.174709 -0.216650
C58   C     C_R   0.349277 0.163369 0.264603 -0.159560
C59   C     C_R   0.313557 0.164846 0.320471 -0.176364
C60   C     C_R   0.318898 0.223342 0.349326 0.126401
C61   C     C_R   0.356084 0.282910 0.321529 0.099830
C62   C     C_R   0.289689 0.222333 0.406254 -0.146186
C63   C     C_R   0.300347 0.279583 0.436643 -0.159517
C64   C     C_R   0.386676 0.339161 0.354584 -0.149362
H16   H     H_    0.420632 0.383672 0.150968 0.163254
H17   H     H_    0.438760 0.384178 0.337416 0.112930
H18   H     H_    0.270880 0.278137 0.480214 0.128695
H19   H     H_    0.287108 0.119156 0.341690 0.143178
H20   H     H_    0.507400 0.325392 0.070039 0.146469
H21   H     H_    0.532280 0.223121 0.019191 0.148094
H22   H     H_    0.408288 0.113116 0.163328 0.101376
H23   H     H_    0.349029 0.115633 0.246292 0.135109
H24   H     H_    0.256602 0.177097 0.427287 0.131813
O11   O     O_R   0.323550 0.942140 0.056770 -0.525379
O12   O     O_R   0.647080 0.077200 0.045890 -0.538344
O13   O     O_R   0.813610 0.057920 0.943260 -0.537507
C65   C     C_R   0.477949 0.101076 0.056620 0.699972
O14   O     O_R   0.653470 0.943760 0.063000 -0.524427
O15   O     O_R   0.820050 0.923540 0.960490 -0.538275
C66   C     C_R   0.486322 0.923632 0.078941 0.709802
O16   O     O_R   0.317110 0.076520 0.039540 -0.533594
O17   O     O_3   0.483830 0.993580 0.966380 -0.375293
V3    V     V_3+5 0.760140 0.001190 0.006240 1.499159
O18   O     O_R   0.149510 0.922740 0.954070 -0.541338
C67   C     C_R   0.981424 0.898850 0.943553 0.693369
O19   O     O_R   0.143120 0.056170 0.936970 -0.535675
C68   C     C_R   0.973405 0.076175 0.921202 0.715441
V4    V     V_3+5 0.259690 0.998700 0.993700 1.485568
O20   O     O_3   0.986130 0.006420 0.033620 -0.358636
C69   C     C_2   0.725076 0.838879 0.560438 0.757224
O21   O     O_2   0.786236 0.849560 0.514432 -0.547345
O22   O     O_R   0.587521 0.880911 0.582889 -0.660706
H25   H     H_    0.553572 0.919044 0.557684 0.312807
S1    S     S_3+6 0.157363 0.311189 0.844821 0.076863
O23   O     O_2   0.040032 0.314072 0.896108 -0.298868
O24   O     O_2   0.331480 0.268853 0.855360 -0.297520
O25   O     O_3   0.226738 0.386912 0.827606 -0.450874
H26   H     H_    0.106203 0.411976 0.821134 0.322669
C70   C     C_2   0.727736 0.363809 0.790466 0.940784
O26   O     O_2   0.677324 0.364917 0.838322 -0.469426
O27   O     O_R   0.695308 0.418052 0.756360 -0.668646
H27   H     H_    0.628168 0.455290 0.775961 0.304220
C71   C     C_2   0.268232 0.286031 0.704575 0.800719
O28   O     O_2   0.386468 0.316543 0.730781 -0.533070
O29   O     O_R   0.296875 0.272959 0.649060 -0.658500
H28   H     H_    0.416960 0.294045 0.634632 0.301769
C72   C     C_2   0.698926 0.190294 0.665951 0.805522
O30   O     O_2   0.608885 0.141075 0.676585 -0.552191
O31   O     O_R   0.701947 0.214913 0.612367 -0.666987
H29   H     H_    0.621497 0.188292 0.586018 0.304061
S2    S     S_3+6 0.019493 0.795253 0.193745 -0.023855
O32   O     O_2   0.882234 0.819044 0.236149 -0.328796
O33   O     O_2   0.053365 0.850007 0.153806 -0.342988
O34   O     O_3   0.926273 0.731713 0.159829 -0.522363
H30   H     H_    0.020547 0.721256 0.130979 0.325099
C73   C     C_2   0.174749 0.813294 0.330194 0.857367
O35   O     O_2   0.135268 0.871363 0.324720 -0.522420
O36   O     O_R   0.109601 0.778432 0.375632 -0.665914
H31   H     H_    0.030250 0.806567 0.401148 0.317863
C74   C     C_2   0.279614 0.404035 0.248385 0.747501
O37   O     O_2   0.133831 0.404166 0.275799 -0.553025
O38   O     O_R   0.361158 0.463192 0.232472 -0.660842
H32   H     H_    0.289024 0.502595 0.247184 0.295709

loop_
_geom_bond_atom_site_label_1
_geom_bond_atom_site_label_2
_ccdc_geom_bond_type
O11   C66   A    
C41   C43   S    
O14   V3    S    
C13   C19   A    
C70   O26   D    
C4    C6    S    
C71   O29   S    
C74   O37   D    
C20   C69   S    
C1    O6    A    
O27   H27   S    
O36   H31   S    
O38   H32   S    
C27   H11   S    
O15   C67   A    
C58   C59   A    
C31   C32   S    
O14   C66   A    
C23   C70   S    
C14   C15   A    
O13   V3    S    
O16   V4    S    
C47   C65   S    
C16   C17   A    
C74   O38   S    
C69   O22   S    
O5    C3    A    
C18   C19   A    
C8    H6    S    
C28   C33   S    
C1    C37   S    
C5    C8    A    
C37   C45   T    
C43   C73   S    
C10   C12   A    
S1    O25   S    
C48   C63   A    
O8    V2    S    
C41   H14   S    
C7    C8    A    
C43   C44   S    
C47   C50   A    
C17   H4    S    
C51   H22   S    
C29   C31   S    
C39   H15   S    
C50   H21   S    
O1    V2    S    
C11   C15   A    
O7    V1    S    
C30   C34   S    
C53   C57   A    
C28   C31   S    
C35   H13   S    
C27   C29   S    
C41   C42   S    
C24   C32   S    
C36   H12   S    
O9    C4    A    
C3    C26   S    
C54   C58   A    
C63   H18   S    
O4    C2    A    
C35   C39   S    
V2    O10   S    
C25   C68   S    
C62   H24   S    
C49   C53   A    
O13   C68   A    
C12   C13   A    
C29   C72   S    
C52   C54   A    
C59   C60   A    
O29   H28   S    
C72   O31   S    
C54   C55   A    
C15   H1    S    
C13   C14   A    
C21   H3    S    
C30   C32   S    
C39   C41   S    
C40   C45   S    
C7    C11   A    
C17   C18   A    
C58   H23   S    
C64   H17   S    
C56   C57   A    
C61   C64   A    
C24   C28   S    
O22   H25   S    
C40   C43   S    
C25   C33   T    
C29   C30   S    
C19   C22   A    
C49   C50   A    
O12   C65   A    
C6    C22   A    
S1    O23   D    
O3    C4    A    
C7    H5    S    
C36   C44   S    
C9    H7    S    
C23   C30   S    
C27   C28   S    
C38   C46   T    
O6    V2    S    
C60   C62   A    
O11   V4    S    
C56   C74   S    
O12   V3    S    
C38   C66   S    
O2    V1    S    
C5    C67   S    
V3    O20   S    
C65   O16   A    
C23   C24   S    
C14   H8    S    
C26   C34   T    
O19   C68   A    
O15   V3    S    
C44   S2    S    
C73   O36   S    
C70   O27   S    
O18   C67   A    
O1    C2    A    
C12   C16   A    
O31   H29   S    
S2    O34   S    
O5    V1    S    
C2    C48   S    
O8    C3    A    
C72   O30   D    
S2    O33   D    
C48   C64   A    
C16   H9    S    
C69   O21   D    
C24   S1    S    
C20   C21   A    
O9    V2    S    
C73   O35   D    
O7    V2    S    
O4    V1    S    
O3    V1    S    
V1    O10   S    
O34   H30   S    
C36   C40   S    
C18   C20   A    
C51   C52   A    
V4    O20   S    
C59   H19   S    
C55   C61   A    
O2    C1    A    
C39   C40   S    
C22   H2    S    
C71   O28   D    
C42   C46   S    
C6    C21   A    
C35   C36   S    
S1    O24   D    
S2    O32   D    
O17   V4    S    
C52   C53   A    
C31   H10   S    
C35   C42   S    
C60   C61   A    
C55   C56   A    
C47   C51   A    
O17   V3    S    
C10   C11   A    
O18   V4    S    
C32   C71   S    
C57   H16   S    
C42   C44   S    
C62   C63   A    
C9    C10   A    
C49   H20   S    
C23   C27   S    
O25   H26   S    
O19   V4    S    
C5    C9    A    
