data_mof_unit_63425.cif
_audit_creation_date              2012-12-10T20:33:50-0500
_audit_creation_method            fapswitch 2.2
_symmetry_space_group_name_H-M    P1
_symmetry_Int_Tables_number       1
_space_group_crystal_system       triclinic
_cell_length_a                    21.711811
_cell_length_b                    21.71481
_cell_length_c                    21.132977
_cell_angle_alpha                 121.27823
_cell_angle_beta                  120.612533
_cell_angle_gamma                 89.706879
_cell_volume                      6858.21167913

loop_
_atom_site_label
_atom_site_type_symbol
_atom_type_description
_atom_site_fract_x
_atom_site_fract_y
_atom_site_fract_z
_atom_type_partial_charge
C1    C     C_R   0.085851 0.585823 0.671423 0.900294
C2    C     C_R   0.972887 0.239007 0.184452 -0.091773
C3    C     C_R   0.246027 0.433746 0.428043 0.439711
C4    C     C_R   0.313092 0.499150 0.502592 -0.207043
C5    C     C_R   0.317574 0.562150 0.578271 -0.131631
C6    C     C_R   0.252095 0.560971 0.576086 0.408387
C7    C     C_R   0.184582 0.497865 0.498915 -0.183697
C8    C     C_R   0.180353 0.433639 0.425371 -0.116359
C9    C     C_R   0.444494 0.630187 0.731485 0.042491
C10   C     C_R   0.515785 0.691251 0.803163 0.088656
C11   C     C_R   0.531572 0.752259 0.800776 0.032876
C12   C     C_R   0.118555 0.498598 0.497816 0.995723
C13   C     C_R   0.475559 0.753604 0.727805 0.058289
C14   C     C_R   0.404328 0.693723 0.657023 0.409783
C15   C     C_R   0.389406 0.630490 0.657383 -0.063232
C16   C     C_1   0.137397 0.636862 0.773022 -0.179884
C17   C     C_1   0.180237 0.679260 0.857656 0.034409
C18   C     C_1   0.230364 0.729146 0.957595 0.044525
C19   C     C_1   0.272595 0.771361 0.042251 0.026371
C20   C     C_1   0.322331 0.821231 0.142212 0.017238
C21   C     C_1   0.364345 0.863499 0.226883 -0.176240
C22   C     C_R   0.969313 0.449861 0.712252 0.060864
C23   C     C_R   0.914236 0.414156 0.328556 0.844329
C24   C     C_R   0.902463 0.439342 0.636429 0.162343
C25   C     C_R   0.885954 0.504666 0.642548 0.106821
C26   C     C_R   0.935623 0.578598 0.724054 -0.322012
C27   C     C_R   0.001696 0.589093 0.800264 0.433895
C28   C     C_R   0.018793 0.524485 0.793936 0.058021
C29   C     C_R   0.750534 0.494201 0.563441 0.377531
C30   C     C_R   0.686606 0.497857 0.498238 -0.319414
C31   C     C_R   0.686787 0.502017 0.433864 0.016212
C32   C     C_R   0.749251 0.498262 0.431199 0.407528
C33   C     C_R   0.814260 0.498892 0.499407 -0.308669
C34   C     C_R   0.880826 0.500573 0.501215 0.895430
C35   C     C_R   0.815626 0.498127 0.566256 -0.063383
C36   C     C_R   0.570579 0.454376 0.278954 0.466104
C37   C     C_R   0.517818 0.469108 0.217811 -0.053337
C38   C     C_R   0.520069 0.544988 0.249749 0.406583
C39   C     C_R   0.574424 0.606588 0.344406 0.070062
C40   C     C_R   0.626598 0.591801 0.404795 0.011901
C41   C     C_R   0.624916 0.515879 0.372195 0.042020
C42   C     C_1   0.862887 0.363100 0.226919 -0.186402
C43   C     C_1   0.820193 0.320655 0.142263 0.040396
C44   C     C_1   0.770129 0.270591 0.042305 0.024999
C45   C     C_R   0.014573 0.248074 0.268612 0.433387
C46   C     C_1   0.728008 0.228271 0.957648 0.024799
C47   C     C_1   0.678230 0.178481 0.857701 0.025203
C48   C     C_1   0.635887 0.136402 0.773051 -0.166713
C49   C     C_R   0.497292 0.621686 0.500144 0.932950
C50   C     C_R   0.378643 0.500373 0.500726 1.004870
C51   C     C_R   0.501133 0.378420 0.499592 1.000654
C52   C     C_R   0.621203 0.500044 0.499483 0.914689
C53   C     C_R   0.500151 0.120296 0.500733 0.951831
C54   C     C_R   0.414581 0.914278 0.328551 0.892937
C55   C     C_R   0.500929 0.880990 0.501401 0.900164
C56   C     C_R   0.082149 0.310960 0.345248 -0.190588
C57   C     C_R   0.585451 0.085734 0.671436 0.875252
C58   C     C_R   0.265239 0.499902 0.223134 -0.294554
C59   C     C_R   0.338369 0.556891 0.287170 0.496572
C60   C     C_R   0.355110 0.626388 0.366885 -0.165223
C61   C     C_R   0.295647 0.640371 0.377624 0.375230
C62   C     C_R   0.222511 0.583496 0.311719 0.502262
C63   C     C_R   0.208123 0.512885 0.235495 -0.360639
C64   C     C_R   0.435490 0.751884 0.434165 -0.266698
C65   C     C_R   0.502114 0.816090 0.502510 -0.111688
C66   C     C_R   0.567606 0.818580 0.571712 -0.003573
C67   C     C_R   0.106442 0.368903 0.343193 -0.105469
C68   C     C_R   0.565890 0.753737 0.570363 0.045205
C69   C     C_R   0.498177 0.688146 0.500451 -0.070222
C70   C     C_R   0.431778 0.687851 0.433041 0.053646
C71   C     C_R   0.693239 0.903712 0.638999 -0.186823
C72   C     C_R   0.758989 0.970721 0.711574 0.036955
C73   C     C_R   0.767451 0.023831 0.794612 0.524690
C74   C     C_R   0.710679 0.008060 0.803048 -0.177958
C75   C     C_R   0.645334 0.941934 0.730242 -0.306471
C76   C     C_R   0.636309 0.889582 0.647975 0.087032
C77   C     C_R   0.438686 0.212681 0.209571 0.072166
C78   C     C_R   0.063032 0.363937 0.262562 0.088452
C79   C     C_R   0.434961 0.217699 0.276545 0.454625
C80   C     C_R   0.503889 0.241674 0.361192 0.030316
C81   C     C_R   0.574740 0.258581 0.376162 0.050947
C82   C     C_R   0.577386 0.253612 0.308450 0.108910
C83   C     C_R   0.509125 0.230116 0.225476 -0.191330
C84   C     C_R   0.505304 0.184777 0.436923 0.399994
C85   C     C_R   0.499950 0.186457 0.501193 -0.237574
C86   C     C_R   0.491677 0.249786 0.562720 -0.146076
C87   C     C_R   0.493847 0.314489 0.563175 0.397161
C88   C     C_R   0.499403 0.312015 0.498624 -0.225297
C89   C     C_R   0.996287 0.298827 0.182591 0.405523
C90   C     C_R   0.502512 0.246611 0.433409 -0.108528
C91   C     C_R   0.400812 0.225732 0.594035 0.070676
C92   C     C_R   0.386364 0.227087 0.652478 0.005083
C93   C     C_R   0.448015 0.251893 0.741235 0.404796
C94   C     C_R   0.523549 0.274244 0.770059 0.094892
C95   C     C_R   0.538136 0.271166 0.711169 0.009479
C96   C     C_R   0.476802 0.247383 0.623033 -0.013854
H1    H     H_    0.922162 0.628193 0.728411 0.154264
H2    H     H_    0.152063 0.468343 0.184459 0.184073
H3    H     H_    0.251949 0.445708 0.162435 0.166142
H4    H     H_    0.115536 0.315389 0.407793 0.194763
H5    H     H_    0.385220 0.752578 0.382829 0.173821
H6    H     H_    0.686203 0.862382 0.575414 0.160192
H7    H     H_    0.716961 0.047912 0.866411 0.168728
H8    H     H_    0.601856 0.931314 0.738081 0.162226
H9    H     H_    0.510503 0.225161 0.172554 0.175886
O1    O     O_R   0.063140 0.511430 0.626300 -0.610158
O2    O     O_R   0.535650 0.627270 0.571300 -0.621468
O3    O     O_R   0.372740 0.464390 0.428700 -0.569282
O4    O     O_R   0.444020 0.535650 0.571290 -0.636347
O5    O     O_R   0.464350 0.372770 0.428700 -0.631398
O6    O     O_R   0.535630 0.444040 0.571290 -0.581967
O7    O     O_R   0.555980 0.464390 0.428710 -0.617418
O8    O     O_R   0.627260 0.535660 0.571300 -0.611031
O9    O     O_R   0.551710 0.091600 0.499970 -0.622138
O10   O     O_R   0.448260 0.091600 0.499970 -0.619165
O11   O     O_R   0.488590 0.936860 0.373720 -0.595475
O12   O     O_R   0.063120 0.614850 0.626270 -0.585182
O13   O     O_R   0.385150 0.936860 0.373710 -0.598003
O14   O     O_R   0.551740 0.908400 0.500030 -0.619229
O15   O     O_R   0.448290 0.908400 0.500030 -0.605862
O16   O     O_R   0.614850 0.063140 0.626290 -0.594836
O17   O     O_R   0.511410 0.063140 0.626280 -0.601433
O18   O     O_R   0.091630 0.448290 0.500020 -0.628192
O19   O     O_R   0.091620 0.551710 0.499990 -0.577913
O20   O     O_R   0.936880 0.385150 0.373730 -0.601419
O21   O     O_R   0.936860 0.488570 0.373700 -0.598220
O22   O     O_R   0.908380 0.448290 0.500010 -0.633177
O23   O     O_R   0.908370 0.551710 0.499980 -0.598484
O24   O     O_R   0.464370 0.556010 0.428710 -0.603317
Zn1   Zn    Zn3+2 0.000010 0.430940 0.500020 0.966648
Zn2   Zn    Zn3+2 0.999990 0.569060 0.499980 1.025597
Zn3   Zn    Zn3+2 0.452410 0.452440 0.404800 1.023820
Zn4   Zn    Zn3+2 0.547590 0.547610 0.595200 1.003585
Zn5   Zn    Zn3+2 0.569070 0.000000 0.500000 0.979617
Zn6   Zn    Zn3+2 0.430930 0.000000 0.500000 0.995286
N1    N     N_3   0.909878 0.169037 0.100237 -0.454589
H10   H     H_    0.903399 0.126865 0.108653 0.203875
H11   H     H_    0.924260 0.145548 0.054289 0.234076
N2    N     N_3   0.605017 0.812622 0.873290 -0.417577
H12   H     H_    0.631357 0.815566 0.844601 0.179823
H13   H     H_    0.597153 0.864831 0.905397 0.184091
N3    N     N_3   0.490131 0.815523 0.724015 -0.394930
H14   H     H_    0.537222 0.817888 0.722234 0.166125
H15   H     H_    0.503346 0.867210 0.783441 0.182791
O25   O     O_3   0.351287 0.699522 0.589078 -0.713979
H16   H     H_    0.302363 0.656061 0.544995 0.361449
N4    N     N_3   0.086351 0.533965 0.870552 -0.456013
H17   H     H_    0.084033 0.563805 0.926717 0.230289
H18   H     H_    0.133699 0.567834 0.887171 0.217270
N5    N     N_3   0.986172 0.383726 0.705652 -0.433945
H19   H     H_    0.990084 0.384618 0.757543 0.213185
H20   H     H_    0.039499 0.388245 0.717502 0.200346
N6    N     N_3   0.852763 0.361995 0.554959 -0.421338
H21   H     H_    0.803259 0.360955 0.505192 0.183124
H22   H     H_    0.881875 0.338348 0.526325 0.204613
O26   O     O_3   0.050129 0.661551 0.881749 -0.771615
H23   H     H_    0.030470 0.700527 0.874681 0.338626
O27   O     O_3   0.752255 0.488540 0.626575 -0.737935
H24   H     H_    0.700194 0.459366 0.599457 0.334426
O28   O     O_3   0.745477 0.496217 0.362667 -0.741394
H25   H     H_    0.779015 0.469574 0.349363 0.335244
O29   O     O_3   0.991868 0.196580 0.278667 -0.756648
H26   H     H_    0.935446 0.179390 0.243171 0.335463
O30   O     O_3   0.572196 0.381209 0.250107 -0.770756
H27   H     H_    0.532821 0.343644 0.183038 0.350070
N7    N     N_3   0.462270 0.406709 0.122468 -0.455454
H28   H     H_    0.470202 0.416894 0.083440 0.242604
H29   H     H_    0.407783 0.406209 0.105568 0.216287
O31   O     O_3   0.468050 0.555711 0.186071 -0.760196
H30   H     H_    0.474444 0.610747 0.216085 0.339949
N8    N     N_3   0.579063 0.684861 0.380668 -0.433206
H31   H     H_    0.526509 0.688965 0.367702 0.214947
H32   H     H_    0.590778 0.700379 0.347611 0.178505
N9    N     N_3   0.683360 0.655406 0.499105 -0.429886
H33   H     H_    0.678978 0.645709 0.540405 0.186946
H34   H     H_    0.737386 0.657107 0.513686 0.203644
O32   O     O_3   0.393816 0.546611 0.272471 -0.748646
H35   H     H_    0.373208 0.494816 0.214450 0.330461
O33   O     O_3   0.305158 0.709682 0.449000 -0.663805
H36   H     H_    0.359973 0.741807 0.496912 0.366981
O34   O     O_3   0.165834 0.599130 0.323290 -0.702407
H37   H     H_    0.116834 0.555698 0.268729 0.320391
N10   N     N_3   0.632360 0.754224 0.639972 -0.435881
H38   H     H_    0.644172 0.796498 0.703803 0.183450
H39   H     H_    0.679007 0.768945 0.641374 0.200734
N11   N     N_3   0.816914 0.984736 0.701493 -0.468514
H40   H     H_    0.798750 0.943663 0.634048 0.191498
H41   H     H_    0.864431 0.977183 0.743343 0.186122
O35   O     O_3   0.829483 0.091480 0.868613 -0.794391
H42   H     H_    0.863591 0.097598 0.852757 0.353687
N12   N     N_3   0.370604 0.189561 0.124013 -0.440823
H43   H     H_    0.335218 0.134963 0.091459 0.228640
H44   H     H_    0.342170 0.228082 0.138182 0.217374
O36   O     O_3   0.363329 0.198801 0.256263 -0.760574
H45   H     H_    0.367696 0.203439 0.307561 0.347165
N13   N     N_3   0.088583 0.425416 0.263221 -0.422371
H46   H     H_    0.081098 0.473639 0.305350 0.193551
H47   H     H_    0.055511 0.412734 0.198056 0.236676
N14   N     N_3   0.643681 0.278770 0.459557 -0.451792
H48   H     H_    0.680946 0.332136 0.491946 0.195463
H49   H     H_    0.669332 0.238036 0.442237 0.218155
N15   N     N_3   0.649685 0.272015 0.324470 -0.454819
H50   H     H_    0.676705 0.331773 0.372453 0.196766
H51   H     H_    0.641477 0.257738 0.264574 0.209309
O37   O     O_3   0.507440 0.120434 0.372494 -0.748769
H52   H     H_    0.559823 0.119953 0.406008 0.349129
O38   O     O_3   0.486880 0.379501 0.621913 -0.766812
H53   H     H_    0.493146 0.378682 0.671141 0.335631
N16   N     N_3   0.337396 0.202617 0.505388 -0.452496
H54   H     H_    0.342829 0.248297 0.501789 0.213855
H55   H     H_    0.339476 0.155920 0.454970 0.216239
N17   N     N_3   0.309106 0.204245 0.622299 -0.463596
H56   H     H_    0.283098 0.239676 0.606457 0.215424
H57   H     H_    0.279888 0.147588 0.562253 0.215101
O39   O     O_3   0.437236 0.255743 0.802149 -0.774557
H58   H     H_    0.381987 0.238650 0.773914 0.364542
N18   N     N_3   0.586582 0.302073 0.860932 -0.407583
H59   H     H_    0.579715 0.260434 0.870168 0.219984
H60   H     H_    0.583839 0.351511 0.907839 0.216798
N19   N     N_3   0.615885 0.294307 0.742950 -0.414991
H61   H     H_    0.623067 0.248110 0.698015 0.186501
H62   H     H_    0.625949 0.340007 0.740831 0.204822
O40   O     O_3   0.956185 0.295188 0.103980 -0.768504
H63   H     H_    0.907283 0.251168 0.055950 0.376079
O41   O     O_3   0.247353 0.371341 0.359927 -0.732335
H64   H     H_    0.201528 0.325412 0.319841 0.349125
O42   O     O_3   0.250875 0.619788 0.646916 -0.757598
H65   H     H_    0.302530 0.658882 0.699801 0.345063
N20   N     N_3   0.427887 0.566365 0.731591 -0.426850
H66   H     H_    0.432118 0.587102 0.791205 0.181375
H67   H     H_    0.468389 0.540000 0.732199 0.216603
N21   N     N_3   0.573404 0.691715 0.878527 -0.417596
H68   H     H_    0.587192 0.642363 0.852625 0.184738
H69   H     H_    0.551154 0.690138 0.911603 0.183653

loop_
_geom_bond_atom_site_label_1
_geom_bond_atom_site_label_2
_ccdc_geom_bond_type
C29   O27   S    
C66   C68   A    
N8    H31   S    
C22   N5    S    
C68   N10   S    
C93   C94   A    
C93   O39   S    
C11   C13   A    
O31   H30   S    
C34   O22   A    
C95   C96   A    
C91   N16   S    
O8    Zn4   S    
N19   H62   S    
O25   H16   S    
C7    C8    A    
C49   O2    A    
C55   O14   A    
C85   C86   A    
C53   O9    A    
C65   C66   A    
N8    H32   S    
C14   O25   S    
C26   C27   A    
C37   C38   A    
C23   C42   S    
N15   H51   S    
C36   C37   A    
N4    H18   S    
C63   H2    S    
N10   H39   S    
C21   C54   S    
O11   Zn5   S    
C52   O7    A    
O10   Zn6   S    
N13   H46   S    
N17   H56   S    
C9    N20   S    
C18   C19   T    
C73   C74   A    
C11   N2    S    
N9    H33   S    
C92   C93   A    
C75   C76   A    
N16   H55   S    
C91   C96   A    
C84   O37   S    
N3    H14   S    
N4    H17   S    
C45   C56   A    
C16   C17   T    
C54   O11   A    
C17   C18   S    
C39   N8    S    
O5    Zn3   S    
C64   C70   A    
O16   Zn5   S    
N6    H22   S    
C9    C10   A    
C3    O41   S    
C61   C62   A    
C1    O1    A    
C23   O20   A    
O24   Zn3   S    
O36   H45   S    
C57   O17   A    
N14   H48   S    
C78   C89   A    
C49   C69   S    
C13   C14   A    
N7    H29   S    
O30   H27   S    
C36   C41   A    
C64   H5    S    
C67   C78   A    
C84   C90   A    
O20   Zn1   S    
N21   H69   S    
N19   H61   S    
C55   C65   S    
N20   H66   S    
C44   C46   T    
O41   H64   S    
N9    H34   S    
C55   O15   A    
C77   C79   A    
C2    C45   A    
C7    C12   S    
O14   Zn5   S    
C5    C15   S    
C74   C75   A    
O4    Zn4   S    
O38   H53   S    
C77   N12   S    
C47   C48   T    
C59   O32   S    
C38   C39   A    
C24   C25   A    
O40   H63   S    
N16   H54   S    
C3    C8    A    
N15   H50   S    
C91   C92   A    
C82   N15   S    
C86   C87   A    
C68   C69   A    
C1    O12   A    
C25   C26   A    
O34   H37   S    
C49   O24   A    
C94   N18   S    
C81   C82   A    
N12   H43   S    
O19   Zn2   S    
C4    C50   S    
C60   C61   A    
O7    Zn3   S    
O27   H24   S    
C2    C89   A    
C45   O29   S    
N12   H44   S    
N10   H38   S    
C89   O40   S    
C29   C30   A    
O42   H65   S    
C12   O19   A    
C60   C70   S    
C30   C31   A    
C66   C76   S    
C6    O42   S    
C62   C63   A    
C10   N21   S    
C95   N19   S    
O9    Zn5   S    
C94   C95   A    
C1    C16   S    
C78   N13   S    
C13   N3    S    
C84   C85   A    
C79   O36   S    
C87   O38   S    
C37   N7    S    
C86   C96   S    
C25   C35   S    
C23   O21   A    
O35   H42   S    
N1    H11   S    
C40   C41   A    
N18   H59   S    
C71   H6    S    
N17   H57   S    
O32   H35   S    
C51   O5    A    
C75   H8    S    
C54   O13   A    
O18   Zn1   S    
N7    H28   S    
N20   H67   S    
N5    H20   S    
C92   N17   S    
C42   C43   T    
C56   H4    S    
N11   H41   S    
C3    C4    A    
O23   Zn2   S    
C71   C76   A    
C39   C40   A    
N3    H15   S    
C72   N11   S    
C24   N6    S    
C38   O31   S    
N14   H49   S    
O29   H26   S    
C27   O26   S    
O1    Zn1   S    
O37   H52   S    
C46   C47   S    
O26   H23   S    
C28   N4    S    
C51   O6    A    
C31   C41   S    
N5    H19   S    
C50   O3    A    
C31   C32   A    
O6    Zn4   S    
C58   H3    S    
C58   C63   A    
C88   C90   A    
C80   C81   A    
C51   C88   S    
C81   N14   S    
C53   C85   S    
N2    H12   S    
C61   O33   S    
C6    C7    A    
O33   H36   S    
N18   H60   S    
C56   C67   A    
C29   C35   A    
O15   Zn6   S    
C64   C65   A    
C19   C20   S    
C58   C59   A    
O22   Zn1   S    
C8    C67   S    
C71   C72   A    
O2    Zn4   S    
C32   C33   A    
C62   O34   S    
C40   N9    S    
N2    H13   S    
C5    C6    A    
C12   O18   A    
C30   C52   S    
O21   Zn2   S    
C43   C44   S    
C72   C73   A    
C52   O8    A    
C4    C5    A    
N21   H68   S    
C33   C35   A    
C33   C34   S    
C22   C24   A    
C50   O4    A    
O39   H58   S    
C80   C90   S    
C69   C70   A    
O12   Zn2   S    
O28   H25   S    
C2    N1    S    
O17   Zn6   S    
O3    Zn3   S    
N13   H47   S    
C10   C11   A    
C26   H1    S    
C57   O16   A    
C79   C80   A    
C83   H9    S    
C59   C60   A    
C48   C57   S    
C20   C21   T    
C87   C88   A    
C34   O23   A    
C82   C83   A    
C27   C28   A    
C36   O30   S    
C77   C83   A    
C14   C15   A    
N1    H10   S    
C22   C28   A    
C32   O28   S    
N11   H40   S    
C73   O35   S    
O13   Zn6   S    
C53   O10   A    
C9    C15   A    
C74   H7    S    
N6    H21   S    
