data_mof_unit_23836.cif
_audit_creation_date              2012-10-26T20:38:27-0400
_audit_creation_method            fapswitch 2.2
_symmetry_space_group_name_H-M    P1
_symmetry_Int_Tables_number       1
_space_group_crystal_system       triclinic
_cell_length_a                    15.851018
_cell_length_b                    10.964505
_cell_length_c                    9.820758
_cell_angle_alpha                 111.84352
_cell_angle_beta                  97.780341
_cell_angle_gamma                 90.951578
_cell_volume                      1565.53618975

loop_
_atom_site_label
_atom_site_type_symbol
_atom_type_description
_atom_site_fract_x
_atom_site_fract_y
_atom_site_fract_z
_atom_type_partial_charge
C1    C     C_R   0.492056 0.252712 0.439432 0.557682
C2    C     C_3   0.026570 0.596929 0.456192 -0.101782
C3    C     C_3   0.018999 0.385220 0.408404 0.030065
C4    C     C_3   0.980497 0.618192 0.591324 0.030508
C5    C     C_1   0.250495 0.501346 0.505012 -0.043487
C6    C     C_1   0.749338 0.499086 0.494965 -0.047630
C7    C     C_3   0.038460 0.524752 0.639204 -0.113627
C8    C     C_3   0.961232 0.478760 0.360584 -0.102915
C9    C     C_3   0.083058 0.501978 0.502856 0.040829
C10   C     C_3   0.916623 0.501130 0.497058 0.049959
C11   C     C_1   0.174946 0.501902 0.505207 -0.074249
C12   C     C_R   0.508152 0.747493 0.560886 0.564748
C13   C     C_1   0.824823 0.499390 0.494661 -0.075511
C14   C     C_2   0.482787 0.110260 0.403526 -0.017663
C15   C     C_2   0.512093 0.890524 0.596897 -0.023138
C16   C     C_3   0.043115 0.252087 0.304330 -0.253419
C17   C     C_3   0.963797 0.157884 0.224386 -0.298903
C18   C     C_3   0.988362 0.023684 0.124347 -0.462163
C19   C     C_3   0.958937 0.751340 0.699752 -0.254958
C20   C     C_3   0.905853 0.827090 0.619398 -0.293870
C21   C     C_3   0.882773 0.957893 0.729225 -0.463001
C22   C     C_3   0.564616 0.990186 0.738975 -0.265330
C23   C     C_2   0.471273 0.069625 0.513627 -0.159788
C24   C     C_3   0.627269 0.932816 0.829394 -0.289162
C25   C     C_3   0.686000 0.041718 0.952141 -0.474550
C26   C     C_3   0.488985 0.015395 0.246827 -0.254989
C27   C     C_3   0.400207 0.972878 0.153192 -0.305838
C28   C     C_3   0.405836 0.875933 0.996464 -0.435895
C29   C     C_2   0.469131 0.931112 0.495316 -0.164667
C30   C     C_2   0.507199 0.511425 0.081529 -0.028185
C31   C     C_2   0.492627 0.488862 0.918540 -0.030754
C32   C     C_R   0.339899 0.500299 0.501658 0.552034
C33   C     C_R   0.660045 0.499689 0.498331 0.549167
C34   C     C_3   0.973352 0.406507 0.543886 -0.102550
Cu1   Cu    Cu3+1 0.514700 0.521810 0.644910 0.904467
Cu2   Cu    Cu3+1 0.485300 0.478190 0.355090 0.914558
H1    H     H_    0.950571 0.328075 0.578977 0.096284
H2    H     H_    0.417158 0.375435 0.064925 0.197348
H3    H     H_    0.024448 0.034254 0.039504 0.147875
H4    H     H_    0.028247 0.977513 0.191286 0.148119
H5    H     H_    0.929767 0.958032 0.066856 0.137199
H6    H     H_    0.927233 0.144152 0.307196 0.159135
H7    H     H_    0.921883 0.200116 0.155444 0.158642
H8    H     H_    0.078440 0.268181 0.221405 0.141644
H9    H     H_    0.085978 0.208637 0.370684 0.140919
H10   H     H_    0.845895 0.940671 0.809617 0.153296
H11   H     H_    0.941476 0.021975 0.790377 0.149190
H12   H     H_    0.049666 0.675233 0.421206 0.095400
H13   H     H_    0.842973 0.009321 0.668415 0.140347
H14   H     H_    0.942616 0.846919 0.540247 0.153937
H15   H     H_    0.845905 0.767735 0.555823 0.168438
H16   H     H_    0.923061 0.734039 0.781392 0.140783
H17   H     H_    0.019516 0.810461 0.760584 0.134124
H18   H     H_    0.724634 0.096293 0.903964 0.151853
H19   H     H_    0.647835 0.111655 0.029238 0.160214
H20   H     H_    0.730101 0.997705 0.016066 0.135141
H21   H     H_    0.591685 0.880208 0.883509 0.182695
H22   H     H_    0.667141 0.863316 0.755371 0.170229
H23   H     H_    0.928525 0.459298 0.246417 0.095660
H24   H     H_    0.603254 0.057954 0.706866 0.156746
H25   H     H_    0.520172 0.049764 0.811554 0.132470
H26   H     H_    0.442750 0.923150 0.938641 0.156046
H27   H     H_    0.437063 0.787096 0.000330 0.168211
H28   H     H_    0.340641 0.844902 0.932351 0.145419
H29   H     H_    0.359554 0.925432 0.205936 0.157192
H30   H     H_    0.369056 0.060877 0.146068 0.171280
H31   H     H_    0.528399 0.063727 0.193031 0.149914
H32   H     H_    0.522651 0.927866 0.249053 0.137261
H33   H     H_    0.071128 0.544640 0.753509 0.097650
H34   H     H_    0.433965 0.860136 0.392863 0.150212
H35   H     H_    0.468167 0.141199 0.624334 0.137298
H36   H     H_    0.443410 0.414909 0.845176 0.144553
H37   H     H_    0.556323 0.585540 0.154915 0.145534
H38   H     H_    0.582832 0.624602 0.935058 0.193053
N1    N     N_2   0.463210 0.445420 0.137360 -0.351369
N2    N     N_2   0.536790 0.554580 0.862640 -0.357167
O1    O     O_R   0.507840 0.332340 0.577400 -0.499057
O2    O     O_R   0.492160 0.667660 0.422600 -0.501007
O3    O     O_R   0.483020 0.295500 0.332650 -0.492556
O4    O     O_R   0.516980 0.704500 0.667350 -0.498992
O5    O     O_R   0.391490 0.518400 0.622350 -0.491746
O6    O     O_R   0.608510 0.481600 0.377650 -0.491735
O7    O     O_R   0.366660 0.481570 0.377600 -0.486804
O8    O     O_R   0.633340 0.518430 0.622400 -0.486865

loop_
_geom_bond_atom_site_label_1
_geom_bond_atom_site_label_2
_ccdc_geom_bond_type
C24   C25   S    
C34   H1    S    
C1    O1    A    
Cu1   Cu2   S    
C25   H20   S    
C21   H13   S    
Cu1   O5    S    
C32   O5    A    
C26   C27   S    
H38   N2    S    
C3    C9    S    
C26   H31   S    
C23   C29   S    
C5    C11   T    
C20   H15   S    
C8    H23   S    
C22   H24   S    
C30   C31   S    
Cu2   O7    S    
Cu1   O4    S    
C18   H4    S    
C17   H6    S    
C20   H14   S    
C4    C19   S    
C19   H16   S    
C15   C22   S    
C19   C20   S    
Cu2   O6    S    
C24   H21   S    
C12   O2    A    
C33   O6    A    
C16   H8    S    
C5    C32   S    
C19   H17   S    
C4    C7    S    
C15   C29   D    
H2    N1    S    
Cu1   N2    S    
C23   H35   S    
C25   H18   S    
C3    C8    S    
C18   H5    S    
C30   H37   S    
C16   C17   S    
C3    C34   S    
C2    H12   S    
C29   H34   S    
Cu1   O1    S    
C14   C23   D    
C2    C4    S    
C18   H3    S    
C17   H7    S    
C27   H29   S    
Cu2   N1    S    
C12   C15   S    
C17   C18   S    
C10   C34   S    
C14   C26   S    
C9    C11   S    
Cu2   O3    S    
C28   H28   S    
C24   H22   S    
C31   H36   S    
C1    O3    A    
C7    C34   S    
C22   C24   S    
C4    C10   S    
C21   H10   S    
C7    C9    S    
C32   O7    A    
C2    C8    S    
C25   H19   S    
C10   C13   S    
C16   H9    S    
C7    H33   S    
Cu1   O8    S    
C6    C33   S    
C26   H32   S    
C27   H30   S    
Cu2   O2    S    
C6    C13   T    
C30   N1    D    
C31   N2    D    
C12   O4    A    
C33   O8    A    
C28   H27   S    
C20   C21   S    
C8    C10   S    
C27   C28   S    
C1    C14   S    
C21   H11   S    
C2    C9    S    
C3    C16   S    
C22   H25   S    
C28   H26   S    
