data_mof_unit_6046.cif
_audit_creation_date              2012-12-10T17:43:22-0500
_audit_creation_method            fapswitch 2.2
_symmetry_space_group_name_H-M    P1
_symmetry_Int_Tables_number       1
_space_group_crystal_system       triclinic
_cell_length_a                    15.053622
_cell_length_b                    13.889076
_cell_length_c                    10.711096
_cell_angle_alpha                 88.867656
_cell_angle_beta                  88.918775
_cell_angle_gamma                 90.447746
_cell_volume                      2238.57450042

loop_
_atom_site_label
_atom_site_type_symbol
_atom_type_description
_atom_site_fract_x
_atom_site_fract_y
_atom_site_fract_z
_atom_type_partial_charge
C1    C     C_R   0.329208 0.499179 0.503000 0.778181
C2    C     C_R   0.670812 0.500032 0.498047 0.780545
C3    C     C_R   0.952988 0.482972 0.504493 -0.014232
C4    C     C_R   0.046673 0.482011 0.508012 -0.007963
C5    C     C_R   0.908712 0.471662 0.389615 0.099767
C6    C     C_R   0.091132 0.497559 0.621974 0.093307
C7    C     C_R   0.947606 0.496245 0.730500 -0.248806
C8    C     C_R   0.051128 0.439260 0.288785 -0.256569
C9    C     C_R   0.040037 0.494229 0.735266 0.025976
C10   C     C_R   0.958647 0.439450 0.284545 0.011731
C11   C     C_R   0.445253 0.793412 0.580634 0.079597
C12   C     C_R   0.554595 0.206834 0.418433 0.131471
C13   C     C_R   0.555427 0.796591 0.419742 0.091753
C14   C     C_R   0.445367 0.203092 0.581078 0.125133
C15   C     C_R   0.545730 0.898972 0.405173 -0.056276
C16   C     C_R   0.455660 0.100854 0.594844 -0.010350
C17   C     C_R   0.454979 0.895354 0.594739 -0.069644
C18   C     C_R   0.544741 0.104718 0.404501 -0.020295
C19   C     C_R   0.500312 0.948655 0.499822 0.063180
C20   C     C_R   0.500185 0.051272 0.499630 0.010031
C21   C     C_R   0.578411 0.952514 0.298617 -0.031101
C22   C     C_R   0.424397 0.047341 0.701674 0.022787
C23   C     C_R   0.422259 0.945045 0.701168 -0.046588
C24   C     C_R   0.576710 0.055040 0.297826 -0.005470
C25   C     C_R   0.498960 0.501038 0.259583 0.766838
C26   C     C_R   0.497974 0.499374 0.740415 0.772643
C27   C     C_3   0.412161 0.517300 0.043939 -0.202378
C28   C     C_3   0.579200 0.485622 0.956584 -0.268213
C29   C     C_3   0.466018 0.586512 0.954362 -0.164469
C30   C     C_3   0.525453 0.416253 0.045088 -0.203313
C31   C     C_3   0.443012 0.432034 0.965042 0.306307
C32   C     C_3   0.548527 0.571124 0.034132 0.301727
C33   C     C_3   0.496011 0.499363 0.877137 -0.073915
C34   C     C_3   0.496388 0.503301 0.122916 -0.091301
C35   C     C_R   0.816491 0.491910 0.385783 -0.048773
C36   C     C_R   0.184401 0.514718 0.616995 -0.075045
C37   C     C_R   0.767668 0.498192 0.498793 -0.175202
C38   C     C_R   0.232357 0.494966 0.506053 -0.177760
C39   C     C_R   0.810520 0.491876 0.613863 0.220879
C40   C     C_R   0.188603 0.460665 0.400896 0.213643
C41   C     C_R   0.903577 0.492541 0.616536 0.091067
C42   C     C_R   0.095688 0.462313 0.398156 0.097810
Cu1   Cu    Cu3+1 0.500000 0.597420 0.500000 0.936426
Cu2   Cu    Cu3+1 0.500000 0.402580 0.500000 0.931125
H1    H     H_    0.343786 0.530380 0.079696 0.157501
H2    H     H_    0.649074 0.475877 0.928194 0.177500
H3    H     H_    0.442347 0.656439 0.916528 0.140832
H4    H     H_    0.549047 0.346220 0.082294 0.208034
H5    H     H_    0.909874 0.497226 0.817703 0.179133
H6    H     H_    0.088312 0.417944 0.206297 0.177035
N1    N     N_R   0.500000 0.743810 0.500000 -0.247107
N2    N     N_R   0.500000 0.256190 0.500000 -0.267034
O1    O     O_R   0.370260 0.582280 0.500030 -0.582262
O2    O     O_R   0.629740 0.417720 0.499970 -0.580258
O3    O     O_R   0.629740 0.582280 0.499970 -0.594266
O4    O     O_R   0.370260 0.417720 0.500030 -0.589615
O5    O     O_R   0.499980 0.582260 0.316850 -0.596283
O6    O     O_R   0.500020 0.417740 0.683150 -0.603319
O7    O     O_R   0.500020 0.582260 0.683150 -0.617161
O8    O     O_R   0.499980 0.417740 0.316850 -0.611211
N3    N     N_2   0.387661 0.355317 0.920658 -0.438545
H7    H     H_    0.424902 0.305068 0.874684 0.284131
C43   C     C_3   0.327440 0.312410 0.012273 -0.569444
H8    H     H_    0.287788 0.254974 0.968327 0.244823
H9    H     H_    0.280799 0.367494 0.047463 0.252351
H10   H     H_    0.365279 0.280144 0.090473 0.239982
N4    N     N_2   0.607455 0.648135 0.069161 -0.455675
H11   H     H_    0.656648 0.623996 0.126486 0.267156
C44   C     C_3   0.642799 0.705664 0.965406 -0.578739
H12   H     H_    0.690345 0.759816 0.000229 0.277946
H13   H     H_    0.588410 0.744203 0.917451 0.214523
H14   H     H_    0.678774 0.659626 0.897824 0.223921
C45   C     C_2   0.771412 0.515059 0.266863 0.438149
H15   H     H_    0.702517 0.494539 0.254604 0.007856
O9    O     O_2   0.810225 0.560326 0.183209 -0.549095
C46   C     C_2   0.232669 0.556543 0.723151 0.490928
H16   H     H_    0.298465 0.531153 0.746128 0.023211
O10   O     O_2   0.200411 0.621859 0.783248 -0.504587
N5    N     N_2   0.760257 0.479019 0.726926 -0.456176
H17   H     H_    0.702535 0.518162 0.733085 0.244390
C47   C     C_3   0.751575 0.379669 0.770526 -0.623895
H18   H     H_    0.767969 0.374971 0.871018 0.237513
H19   H     H_    0.797251 0.330918 0.719394 0.249909
H20   H     H_    0.682328 0.353714 0.758266 0.244301
N6    N     N_2   0.237533 0.419184 0.300445 -0.454748
H21   H     H_    0.295298 0.454730 0.273448 0.244680
C48   C     C_3   0.246246 0.315246 0.309956 -0.596042
H22   H     H_    0.214857 0.281880 0.228422 0.225471
H23   H     H_    0.213394 0.284570 0.396001 0.260097
H24   H     H_    0.317562 0.295279 0.311597 0.236617
C49   C     C_2   0.077578 0.474709 0.860203 0.419983
H25   H     H_    0.046662 0.505462 0.942486 0.066905
O11   O     O_2   0.139508 0.419380 0.873290 -0.554189
C50   C     C_2   0.918893 0.392351 0.175339 0.456373
H26   H     H_    0.952898 0.396113 0.085113 0.046953
O12   O     O_2   0.851171 0.343740 0.186649 -0.519404
C51   C     C_2   0.368367 0.744102 0.641059 0.450603
H27   H     H_    0.376434 0.680646 0.698616 0.071437
O13   O     O_2   0.293853 0.776578 0.628416 -0.477625
C52   C     C_2   0.631672 0.256208 0.356517 0.450849
H28   H     H_    0.625434 0.323712 0.306561 0.100951
O14   O     O_2   0.705210 0.219885 0.360551 -0.520113
C53   C     C_2   0.632677 0.749689 0.360347 0.422786
H29   H     H_    0.626446 0.681211 0.316939 0.100849
O15   O     O_2   0.705925 0.788105 0.360912 -0.497347
C54   C     C_2   0.367770 0.248920 0.641883 0.370341
H30   H     H_    0.371585 0.319938 0.679062 0.135251
O16   O     O_2   0.296244 0.206848 0.649015 -0.549515
C55   C     C_2   0.599585 0.901149 0.181175 0.386856
H31   H     H_    0.559431 0.839637 0.155597 0.077883
O17   O     O_2   0.663426 0.924363 0.115096 -0.527437
C56   C     C_2   0.412108 0.096615 0.822047 0.395056
H32   H     H_    0.348304 0.094612 0.870772 0.146401
O18   O     O_2   0.475019 0.137256 0.868935 -0.540003
C57   C     C_2   0.399846 0.890215 0.818801 0.421351
H33   H     H_    0.438293 0.827360 0.844360 0.014561
O19   O     O_2   0.337218 0.912828 0.885775 -0.507152
C58   C     C_2   0.593088 0.109030 0.178288 0.422554
H34   H     H_    0.653421 0.098472 0.123715 0.164234
O20   O     O_2   0.537866 0.165519 0.139509 -0.566185

loop_
_geom_bond_atom_site_label_1
_geom_bond_atom_site_label_2
_ccdc_geom_bond_type
C48   H22   S    
C43   H9    S    
C27   C29   S    
C45   H15   S    
C31   N3    S    
C19   C20   A    
C9    C49   S    
C6    C9    A    
C56   O18   D    
C51   H27   S    
C39   C41   A    
N6    H21   S    
C15   C19   A    
C28   H2    S    
C17   C23   A    
C4    C42   A    
C29   H3    S    
C18   C24   A    
C30   H4    S    
C35   C37   A    
C1    O4    A    
C8    C42   A    
C29   C32   S    
C2    O3    A    
C55   O17   D    
C30   C31   S    
C54   H30   S    
C10   C50   S    
C57   H33   S    
C29   C33   S    
N3    C43   S    
C44   H13   S    
C1    O1    A    
C58   H34   S    
C36   C46   S    
C51   O13   D    
C13   N1    A    
Cu1   O1    S    
C14   N2    A    
Cu2   O6    S    
C57   O19   D    
C31   C33   S    
C25   O8    A    
C13   C53   S    
C35   C45   S    
C26   O7    A    
N3    H7    S    
Cu1   O7    S    
C25   C34   S    
Cu2   N2    S    
C40   C42   A    
C43   H10   S    
C45   O9    D    
C44   H12   S    
C25   O5    A    
C56   H32   S    
C12   N2    A    
C47   H18   S    
N6    C48   S    
C27   C34   S    
C30   C34   S    
C27   C31   S    
N4    H11   S    
C28   C32   S    
C11   N1    A    
C46   H16   S    
C7    H5    S    
C4    C6    A    
C2    O2    A    
C49   H25   S    
N5    C47   S    
C43   H8    S    
N4    C44   S    
C32   C34   S    
C40   N6    S    
C44   H14   S    
Cu1   Cu2   S    
C49   O11   D    
Cu2   O4    S    
C26   C33   S    
C14   C54   S    
C16   C20   A    
C27   H1    S    
C52   O14   D    
C53   O15   D    
C50   O12   D    
C26   O6    A    
C1    C38   S    
C32   N4    S    
Cu1   O3    S    
C28   C33   S    
C22   C56   S    
C13   C15   A    
C14   C16   A    
C21   C24   A    
C3    C4    A    
C8    H6    S    
C47   H20   S    
C7    C9    A    
C11   C17   A    
C16   C22   A    
C46   O10   D    
C3    C5    A    
C47   H19   S    
C21   C55   S    
C24   C58   S    
C11   C51   S    
C28   C30   S    
C5    C10   A    
C37   C39   A    
C55   H31   S    
C38   C40   A    
C2    C37   S    
Cu1   N1    S    
C54   O16   D    
Cu2   O8    S    
C5    C35   A    
C36   C38   A    
C52   H28   S    
C17   C19   A    
C6    C36   A    
C18   C20   A    
C7    C41   A    
C50   H26   S    
C58   O20   D    
C12   C52   S    
C3    C41   A    
Cu1   O5    S    
C23   C57   S    
N5    H17   S    
Cu2   O2    S    
C15   C21   A    
C8    C10   A    
C48   H24   S    
C12   C18   A    
C53   H29   S    
C48   H23   S    
C22   C23   A    
C39   N5    S    
