data_mof_unit_26161.cif
_audit_creation_date              2012-12-10T17:19:05-0500
_audit_creation_method            fapswitch 2.2
_symmetry_space_group_name_H-M    P1
_symmetry_Int_Tables_number       1
_space_group_crystal_system       triclinic
_cell_length_a                    18.437342
_cell_length_b                    18.348914
_cell_length_c                    34.251499
_cell_angle_alpha                 90.147963
_cell_angle_beta                  90.065871
_cell_angle_gamma                 89.929013
_cell_volume                      11587.4051665

loop_
_atom_site_label
_atom_site_type_symbol
_atom_type_description
_atom_site_fract_x
_atom_site_fract_y
_atom_site_fract_z
_atom_type_partial_charge
C1    C     C_R   0.627160 0.960754 0.519842 0.436172
C2    C     C_R   0.870019 0.526517 0.979186 0.425632
C3    C     C_R   0.529678 0.939870 0.959325 -0.125471
C4    C     C_R   0.935935 0.518683 0.041028 -0.115628
C5    C     C_R   0.067145 0.493620 0.958742 -0.136214
C6    C     C_R   0.516792 0.935032 0.041475 -0.141576
C7    C     C_R   0.471223 0.060995 0.959531 -0.127876
C8    C     C_R   0.999959 0.499552 0.644505 0.948644
C9    C     C_R   0.999950 0.497425 0.355625 0.908491
C10   C     C_R   0.499979 0.999931 0.644375 0.937478
C11   C     C_R   0.500056 0.000075 0.355580 0.951469
C12   C     C_R   0.499990 0.999887 0.144519 0.943752
C13   C     C_R   0.459765 0.127123 0.021330 0.427932
C14   C     C_R   0.500064 0.000300 0.855684 0.878532
C15   C     C_R   0.000074 0.499889 0.144385 0.934012
C16   C     C_R   0.000267 0.500126 0.855592 0.958588
C17   C     C_R   0.860273 0.639833 0.750068 0.923445
C18   C     C_R   0.141117 0.360466 0.249079 0.791252
C19   C     C_R   0.359906 0.860205 0.749859 0.879732
C20   C     C_R   0.640514 0.140133 0.250163 0.798218
C21   C     C_R   0.139673 0.360194 0.749984 0.929535
C22   C     C_R   0.858422 0.639128 0.248787 0.788319
C23   C     C_R   0.640392 0.139688 0.749937 0.856409
C24   C     C_R   0.554444 0.878377 0.980466 0.410036
C25   C     C_R   0.360469 0.858946 0.249204 0.791355
C26   C     C_R   0.860296 0.359915 0.250100 0.883108
C27   C     C_R   0.139774 0.640785 0.749483 0.801549
C28   C     C_R   0.360130 0.139882 0.250155 0.905920
C29   C     C_R   0.640923 0.860117 0.749398 0.789218
C30   C     C_R   0.140127 0.639687 0.249851 0.904167
C31   C     C_R   0.860302 0.359312 0.749338 0.825598
C32   C     C_R   0.639847 0.860335 0.250209 0.923883
C33   C     C_R   0.359300 0.140053 0.749549 0.789333
C34   C     C_R   0.277152 0.635509 0.697285 0.402038
C35   C     C_R   0.872735 0.537529 0.019832 0.437132
C36   C     C_R   0.775946 0.320928 0.322163 0.403833
C37   C     C_R   0.351228 0.264338 0.688630 0.393074
C38   C     C_R   0.686919 0.781691 0.321295 0.395759
C39   C     C_R   0.717845 0.369141 0.701770 0.402960
C40   C     C_R   0.226086 0.684140 0.320087 0.439862
C41   C     C_R   0.651000 0.737598 0.687248 0.391261
C42   C     C_R   0.319172 0.226723 0.320652 0.394278
C43   C     C_R   0.279951 0.367907 0.297914 0.373317
C44   C     C_R   0.794910 0.693270 0.676798 0.370092
C45   C     C_R   0.367359 0.722532 0.299158 0.386488
C46   C     C_R   0.131880 0.479223 0.979429 0.428908
C47   C     C_R   0.673470 0.229168 0.679358 0.386793
C48   C     C_R   0.727332 0.638695 0.302975 0.394882
C49   C     C_R   0.207461 0.307917 0.677031 0.367901
C50   C     C_R   0.635874 0.276827 0.301148 0.371077
C51   C     C_R   0.320964 0.777121 0.678029 0.378216
C52   C     C_R   0.779774 0.131448 0.200639 0.406422
C53   C     C_R   0.268111 0.823707 0.819396 0.431465
C54   C     C_R   0.838994 0.753185 0.181754 0.374422
C55   C     C_R   0.187419 0.285190 0.821900 0.400846
C56   C     C_R   0.229300 0.857020 0.191918 0.399071
C57   C     C_R   0.540291 0.872926 0.020712 0.416834
C58   C     C_R   0.751612 0.159024 0.814574 0.428738
C59   C     C_R   0.148713 0.234835 0.188050 0.391211
C60   C     C_R   0.814671 0.717682 0.821719 0.398782
C61   C     C_R   0.772038 0.860272 0.804381 0.389250
C62   C     C_R   0.292311 0.190161 0.176718 0.375147
C63   C     C_R   0.882454 0.209482 0.783685 0.382185
C64   C     C_R   0.184715 0.713780 0.176685 0.369362
C65   C     C_R   0.228985 0.141948 0.805008 0.405211
C66   C     C_R   0.694873 0.800193 0.176265 0.365091
C67   C     C_R   0.128977 0.781798 0.795825 0.378225
C68   C     C_R   0.446227 0.122199 0.980960 0.408586
C69   C     C_R   0.821988 0.272661 0.179701 0.380965
C70   C     C_R   0.315119 0.648417 0.662341 0.328056
C71   C     C_R   0.718468 0.330051 0.348614 0.336023
C72   C     C_R   0.329450 0.292072 0.652219 0.313061
C73   C     C_R   0.677572 0.726605 0.349062 0.335731
C74   C     C_R   0.677546 0.359178 0.667237 0.334373
C75   C     C_R   0.282371 0.676904 0.347443 0.338266
C76   C     C_R   0.674024 0.711131 0.650741 0.304709
C77   C     C_R   0.332937 0.285823 0.345823 0.338616
C78   C     C_R   0.318114 0.356974 0.333126 0.295729
C79   C     C_R   0.292872 0.761030 0.715632 -0.195617
C80   C     C_R   0.746808 0.692020 0.644837 0.302277
C81   C     C_R   0.354117 0.691975 0.336292 0.288270
C82   C     C_R   0.659421 0.288724 0.654567 0.287423
C83   C     C_R   0.695669 0.654320 0.339592 0.288632
C84   C     C_R   0.256679 0.310601 0.645605 0.291638
C85   C     C_R   0.647691 0.311148 0.337475 0.295408
C86   C     C_R   0.333472 0.719729 0.651514 0.293740
C87   C     C_R   0.817255 0.143243 0.165441 0.327810
C88   C     C_R   0.209138 0.834471 0.844669 0.339036
C89   C     C_R   0.810832 0.777293 0.145681 0.297850
C90   C     C_R   0.696743 0.254038 0.278498 -0.196429
C91   C     C_R   0.178413 0.231196 0.850200 0.300654
C92   C     C_R   0.195052 0.839748 0.156344 0.323265
C93   C     C_R   0.817307 0.140670 0.832819 0.355645
C94   C     C_R   0.170159 0.205507 0.151886 0.310358
C95   C     C_R   0.824479 0.772608 0.849606 0.326118
C96   C     C_R   0.804869 0.844618 0.840674 0.291448
C97   C     C_R   0.242841 0.186207 0.145448 0.297194
C98   C     C_R   0.883203 0.161706 0.815914 0.266141
C99   C     C_R   0.175873 0.767498 0.147758 0.294865
C100  C     C_R   0.196548 0.158557 0.841367 0.261588
C101  C     C_R   0.232487 0.287803 0.714712 -0.174489
C102  C     C_R   0.737837 0.797149 0.142566 0.309632
C103  C     C_R   0.138700 0.817303 0.832068 0.289406
C104  C     C_R   0.834735 0.214320 0.153788 0.293278
C105  C     C_R   0.500034 0.999879 0.520513 -0.165037
C106  C     C_R   0.500031 0.999867 0.479305 -0.176571
C107  C     C_R   0.999418 0.497397 0.520930 -0.164767
C108  C     C_R   0.999610 0.496979 0.479771 -0.164415
C109  C     C_R   0.000701 0.501407 0.020546 -0.165719
C110  C     C_R   0.000796 0.501818 0.979349 -0.176092
C111  C     C_R   0.500189 0.000073 0.021017 -0.161941
C112  C     C_R   0.369722 0.026536 0.479304 0.428520
C113  C     C_R   0.747527 0.697120 0.277789 -0.183804
C114  C     C_R   0.500336 0.000304 0.979877 -0.158736
C115  C     C_3   0.310865 0.553254 0.744001 -0.318557
C116  C     C_3   0.888555 0.275798 0.336154 -0.321599
C117  C     C_3   0.443027 0.313017 0.725232 -0.314571
C118  C     C_3   0.735406 0.893906 0.332260 -0.273564
C119  C     C_3   0.690337 0.447723 0.751503 -0.326581
C120  C     C_3   0.118278 0.743997 0.330175 -0.441591
C121  C     C_3   0.557781 0.688943 0.722600 -0.311581
C122  C     C_3   0.267693 0.116999 0.334603 -0.310607
C123  C     C_3   0.322510 0.444232 0.250708 -0.250393
C124  C     C_R   0.703709 0.242145 0.716902 -0.190085
C125  C     C_3   0.903985 0.747295 0.667315 -0.250173
C126  C     C_3   0.444089 0.676866 0.252660 -0.260501
C127  C     C_3   0.730026 0.126875 0.657157 -0.289523
C128  C     C_3   0.673605 0.558158 0.261104 -0.254939
C129  C     C_3   0.102722 0.252221 0.659782 -0.237086
C130  C     C_3   0.560238 0.321028 0.253793 -0.245910
C131  C     C_3   0.266451 0.883637 0.660715 -0.286279
C132  C     C_3   0.810651 0.050423 0.248627 -0.324344
C133  C     C_3   0.373360 0.763250 0.834012 -0.411072
C134  C     C_3   0.939052 0.804633 0.209496 -0.304198
C135  C     C_R   0.307235 0.743307 0.275403 -0.201121
C136  C     C_3   0.235393 0.397775 0.832330 -0.268028
C137  C     C_3   0.189420 0.944729 0.234360 -0.308389
C138  C     C_3   0.655583 0.213887 0.844564 -0.378958
C139  C     C_3   0.055973 0.188744 0.224595 -0.306188
C140  C     C_3   0.766611 0.605572 0.833123 -0.272717
C141  C     C_3   0.824028 0.942244 0.762976 -0.218381
C142  C     C_3   0.400808 0.246090 0.167914 -0.244110
C143  C     C_3   0.945850 0.179183 0.729199 -0.319653
C144  C     C_3   0.237347 0.604270 0.163566 -0.279325
C145  C     C_3   0.173853 0.060806 0.764097 -0.242276
C146  C     C_R   0.768793 0.712963 0.714423 -0.179849
C147  C     C_3   0.582288 0.750549 0.173747 -0.245216
C148  C     C_3   0.054991 0.820127 0.746311 -0.268171
C149  C     C_3   0.765286 0.377754 0.161860 -0.282919
C150  C     C_3   0.041074 0.778149 0.867665 -0.054224
C151  C     C_3   0.932097 0.254928 0.118038 -0.136740
C152  C     C_3   0.236087 0.064899 0.880154 -0.105952
C153  C     C_3   0.700878 0.886396 0.100945 -0.081269
C154  C     C_3   0.993376 0.186418 0.844240 -0.059351
C155  C     C_3   0.081081 0.719020 0.112016 -0.160399
C156  C     C_3   0.760251 0.932342 0.881389 -0.094147
C157  C     C_R   0.255383 0.306220 0.276160 -0.192890
C158  C     C_3   0.289248 0.094040 0.107457 -0.122481
C159  C     C_3   0.096224 0.128039 0.118473 -0.282184
C160  C     C_3   0.816965 0.749204 0.914627 -0.215718
C161  C     C_3   0.112822 0.920318 0.132364 -0.285765
C162  C     C_3   0.820423 0.141419 0.898968 -0.248545
C163  C     C_3   0.897523 0.839221 0.111544 -0.278514
C164  C     C_3   0.188976 0.252872 0.915253 -0.202075
C165  C     C_3   0.902240 0.058181 0.150341 -0.295724
C166  C     C_3   0.229581 0.813191 0.908904 -0.256722
C167  C     C_3   0.553698 0.270678 0.375182 -0.068265
C168  C     C_R   0.292123 0.240926 0.282520 -0.197720
C169  C     C_3   0.431032 0.762953 0.616510 -0.142825
C170  C     C_3   0.737692 0.561422 0.378061 -0.101162
C171  C     C_3   0.207295 0.400332 0.606994 -0.145976
C172  C     C_3   0.451043 0.733010 0.372296 -0.064348
C173  C     C_3   0.562729 0.246768 0.618247 -0.140458
C174  C     C_3   0.294859 0.451090 0.374657 -0.129371
C175  C     C_3   0.794128 0.602067 0.605607 -0.126123
C176  C     C_3   0.597889 0.637449 0.616549 -0.261302
C177  C     C_3   0.321123 0.252519 0.409411 -0.255581
C178  C     C_3   0.589744 0.442780 0.655089 -0.306714
C179  C     C_R   0.703487 0.751546 0.717247 -0.191129
C180  C     C_3   0.259181 0.706851 0.410419 -0.271205
C181  C     C_3   0.402068 0.370199 0.618893 -0.269638
C182  C     C_3   0.689670 0.749578 0.413886 -0.211070
C183  C     C_3   0.401888 0.566254 0.645660 -0.298907
C184  C     C_3   0.744236 0.314843 0.412836 -0.245487
C185  C     C_3   0.370468 0.102917 0.619041 -0.169876
C186  C     C_3   0.653552 0.067982 0.390869 -0.344056
C187  C     C_3   0.930724 0.344782 0.608815 -0.277960
C188  C     C_3   0.996103 0.662874 0.384699 -0.226099
C189  C     C_3   0.629828 0.897597 0.619167 -0.163495
C190  C     C_R   0.242576 0.706132 0.281466 -0.197376
C191  C     C_3   0.346064 0.933863 0.389507 -0.344385
C192  C     C_3   0.068188 0.653358 0.607141 -0.278571
C193  C     C_3   0.108857 0.371554 0.381582 -0.255059
C194  C     C_3   0.864629 0.591885 0.121100 -0.159059
C195  C     C_3   0.152287 0.573373 0.890621 -0.341936
C196  C     C_3   0.443353 0.841857 0.108871 -0.251475
C197  C     C_3   0.478747 0.165029 0.884089 -0.252802
C198  C     C_3   0.132729 0.402241 0.119353 -0.181260
C199  C     C_3   0.848509 0.427504 0.892529 -0.340091
C200  C     C_3   0.560002 0.156968 0.108160 -0.281174
C201  C     C_R   0.742566 0.306584 0.722783 -0.200508
C202  C     C_3   0.522464 0.836508 0.883484 -0.231443
C203  C     C_3   0.690454 0.856148 0.530593 -0.278197
C204  C     C_3   0.253583 0.985739 0.469700 -0.248053
C205  C     C_3   0.998304 0.747126 0.530244 -0.216713
C206  C     C_3   0.145668 0.306104 0.470553 -0.312511
C207  C     C_3   0.310274 0.144261 0.530390 -0.281832
C208  C     C_3   0.747280 0.012186 0.470156 -0.243928
C209  C     C_3   0.991590 0.248864 0.530200 -0.234639
C210  C     C_3   0.850231 0.682597 0.466490 -0.250483
C211  C     C_3   0.195968 0.364382 0.030666 -0.283396
C212  C     C_R   0.711035 0.762988 0.283118 -0.214601
C213  C     C_3   0.751372 0.491509 0.969803 -0.233422
C214  C     C_3   0.487467 0.247737 0.031063 -0.222611
C215  C     C_3   0.661514 0.820609 0.969574 -0.264376
C216  C     C_3   0.810888 0.642194 0.032486 -0.273791
C217  C     C_3   0.247349 0.522582 0.970351 -0.245663
C218  C     C_3   0.509356 0.753192 0.029634 -0.216316
C219  C     C_3   0.339011 0.179221 0.969618 -0.257198
C220  C     C_R   0.967246 0.626993 0.520846 0.428425
C221  C     C_R   0.297831 0.249434 0.717886 -0.195443
C222  C     C_R   0.761396 0.292311 0.284213 -0.192496
C223  C     C_R   0.254356 0.696108 0.720706 -0.192345
C224  C     C_R   0.795030 0.257712 0.217716 -0.198561
C225  C     C_R   0.191236 0.758564 0.774476 -0.199547
C226  C     C_R   0.725951 0.783164 0.213153 -0.186100
C227  C     C_R   0.249219 0.199748 0.779408 -0.177343
C228  C     C_R   0.210382 0.734363 0.214246 -0.196803
C229  C     C_R   0.815044 0.237002 0.769824 -0.189160
C230  C     C_R   0.267447 0.211465 0.214305 -0.188712
C231  C     C_R   0.041663 0.370293 0.480691 0.439816
C232  C     C_R   0.751930 0.801853 0.778918 -0.185786
C233  C     C_R   0.789262 0.736315 0.783801 -0.212439
C234  C     C_R   0.202373 0.250459 0.217186 -0.192672
C235  C     C_R   0.752962 0.196801 0.778363 -0.204345
C236  C     C_R   0.249112 0.799628 0.218166 -0.191673
C237  C     C_R   0.211867 0.265317 0.784015 -0.218869
C238  C     C_R   0.791012 0.743431 0.214358 -0.182243
C239  C     C_R   0.255417 0.796514 0.781154 -0.195725
C240  C     C_R   0.757199 0.192772 0.223504 -0.192929
C241  C     C_R   0.302710 0.805434 0.749001 -0.016227
C242  C     C_R   0.372990 0.039212 0.519772 0.439671
C243  C     C_R   0.698145 0.195664 0.250710 -0.031435
C244  C     C_R   0.195233 0.304217 0.749663 -0.017235
C245  C     C_R   0.799354 0.693580 0.246673 -0.030270
C246  C     C_R   0.698689 0.193605 0.748858 -0.021759
C247  C     C_R   0.305667 0.800642 0.247282 -0.034173
C248  C     C_R   0.805252 0.696328 0.749597 -0.020837
C249  C     C_R   0.199236 0.305391 0.247299 -0.029137
C250  C     C_R   0.305533 0.197088 0.249305 -0.025822
C251  C     C_R   0.698547 0.804263 0.748401 -0.033714
C252  C     C_R   0.197761 0.693918 0.248625 -0.011072
C253  C     C_R   0.630334 0.973084 0.479355 0.429688
C254  C     C_R   0.805482 0.301392 0.747324 -0.024274
C255  C     C_R   0.693804 0.802742 0.249111 -0.021479
C256  C     C_R   0.302269 0.196550 0.748840 -0.032921
C257  C     C_R   0.805244 0.303151 0.250705 -0.027129
C258  C     C_R   0.195126 0.698428 0.748028 -0.032049
C259  C     C_R   0.436727 0.020862 0.582175 0.439686
C260  C     C_R   0.566108 0.996661 0.417723 0.489148
C261  C     C_R   0.003032 0.431956 0.582632 0.441845
C262  C     C_R   0.974313 0.558257 0.418163 0.439163
C263  C     C_R   0.563330 0.979061 0.582208 0.437246
C264  C     C_R   0.028569 0.367145 0.521188 0.422376
C265  C     C_R   0.433971 0.003567 0.417643 0.481726
C266  C     C_R   0.995825 0.564637 0.582269 0.439159
C267  C     C_R   0.024117 0.434351 0.418071 0.463572
C268  C     C_R   0.935986 0.517763 0.082169 0.437191
C269  C     C_R   0.066812 0.499956 0.917713 0.490142
C270  C     C_R   0.508947 0.934005 0.082369 0.440544
C271  C     C_R   0.468151 0.058939 0.918346 0.448589
C272  C     C_R   0.064363 0.481932 0.082258 0.439280
C273  C     C_R   0.934563 0.502546 0.917748 0.489918
C274  C     C_R   0.491703 0.065748 0.082600 0.443296
C275  C     C_R   0.954738 0.622744 0.480422 0.408880
C276  C     C_R   0.532932 0.942282 0.918189 0.445621
C277  C     C_R   0.499979 0.999834 0.602115 -0.301357
C278  C     C_R   0.500044 0.000168 0.397769 -0.299859
C279  C     C_R   0.999802 0.498676 0.602366 -0.320235
C280  C     C_R   0.000017 0.496731 0.398081 -0.264443
C281  C     C_R   0.000095 0.499703 0.102142 -0.308533
C282  C     C_R   0.000585 0.500628 0.897806 -0.298686
C283  C     C_R   0.500026 0.999829 0.102413 -0.319335
C284  C     C_R   0.500320 0.000504 0.898178 -0.264235
C285  C     C_R   0.564056 0.979943 0.541041 -0.116749
C286  C     C_R   0.129079 0.466707 0.019917 0.439941
C287  C     C_R   0.433941 0.010035 0.458654 -0.136243
C288  C     C_R   0.987401 0.563674 0.541422 -0.134624
C289  C     C_R   0.021935 0.433317 0.459312 -0.124639
C290  C     C_R   0.436039 0.019955 0.541011 -0.118873
C291  C     C_R   0.566119 0.989771 0.458705 -0.137398
C292  C     C_R   0.010629 0.431513 0.541675 -0.132094
C293  C     C_R   0.976127 0.559846 0.459274 -0.122784
C294  C     C_R   0.065262 0.483407 0.041092 -0.118847
C295  C     C_R   0.934490 0.510354 0.958691 -0.136261
C296  C     C_R   0.483547 0.064926 0.041745 -0.135235
H1    H     H_    0.282676 0.578519 0.769300 0.149349
H2    H     H_    0.722434 0.950351 0.341394 0.212942
H3    H     H_    0.964770 0.233915 0.142973 0.183760
H4    H     H_    0.929893 0.315342 0.118951 0.214073
H5    H     H_    0.961101 0.239590 0.090880 0.164088
H6    H     H_    0.283683 0.100673 0.886014 0.140951
H7    H     H_    0.221781 0.038093 0.908089 0.173695
H8    H     H_    0.251119 0.021176 0.859221 0.243784
H9    H     H_    0.753976 0.914640 0.103302 0.124008
H10   H     H_    0.661689 0.910488 0.121956 0.211641
H11   H     H_    0.679617 0.896579 0.071149 0.160973
H12   H     H_    0.964034 0.233510 0.857558 0.098170
H13   H     H_    0.760083 0.897356 0.302731 0.111307
H14   H     H_    0.027786 0.162356 0.867432 0.223223
H15   H     H_    0.029887 0.205655 0.820696 0.195822
H16   H     H_    0.048749 0.735514 0.138097 0.158938
H17   H     H_    0.085710 0.658748 0.110675 0.219577
H18   H     H_    0.050127 0.736485 0.085865 0.149353
H19   H     H_    0.719010 0.891202 0.890106 0.123976
H20   H     H_    0.774795 0.963844 0.907938 0.167872
H21   H     H_    0.736121 0.971024 0.860143 0.249263
H22   H     H_    0.256820 0.057354 0.126591 0.150065
H23   H     H_    0.347321 0.090958 0.115562 0.242470
H24   H     H_    0.775345 0.871460 0.353453 0.144297
H25   H     H_    0.284430 0.073016 0.077171 0.147392
H26   H     H_    0.081777 0.103525 0.147139 0.132952
H27   H     H_    0.137643 0.094262 0.103495 0.187893
H28   H     H_    0.046751 0.127040 0.100042 0.174961
H29   H     H_    0.847378 0.723906 0.939058 0.182226
H30   H     H_    0.770288 0.712822 0.907801 0.151154
H31   H     H_    0.797978 0.803362 0.924796 0.151222
H32   H     H_    0.105193 0.949744 0.160463 0.151222
H33   H     H_    0.071958 0.876179 0.129395 0.146882
H34   H     H_    0.102733 0.959708 0.108471 0.170112
H35   H     H_    0.721236 0.420551 0.775238 0.149091
H36   H     H_    0.818569 0.106105 0.925180 0.182680
H37   H     H_    0.773309 0.179247 0.900597 0.144323
H38   H     H_    0.872062 0.172571 0.900127 0.152486
H39   H     H_    0.950062 0.827708 0.125972 0.178787
H40   H     H_    0.872098 0.888198 0.125160 0.137913
H41   H     H_    0.909214 0.852790 0.080652 0.177342
H42   H     H_    0.160029 0.276823 0.940602 0.178935
H43   H     H_    0.235953 0.288946 0.908699 0.149091
H44   H     H_    0.207454 0.197670 0.923865 0.153623
H45   H     H_    0.901407 0.028596 0.178592 0.165223
H46   H     H_    0.633709 0.426633 0.750442 0.120672
H47   H     H_    0.943900 0.101961 0.151180 0.145051
H48   H     H_    0.918858 0.018808 0.127409 0.165343
H49   H     H_    0.240246 0.839958 0.937407 0.186028
H50   H     H_    0.277071 0.777876 0.902178 0.150141
H51   H     H_    0.179970 0.779443 0.912252 0.144194
H52   H     H_    0.591558 0.227510 0.385547 0.047560
H53   H     H_    0.520220 0.287436 0.400553 0.200912
H54   H     H_    0.516315 0.248039 0.352820 0.229227
H55   H     H_    0.462804 0.744900 0.642450 0.181712
H56   H     H_    0.427346 0.823306 0.615898 0.211649
H57   H     H_    0.687273 0.506596 0.758720 0.169967
H58   H     H_    0.461936 0.746103 0.590229 0.161008
H59   H     H_    0.784144 0.598436 0.384470 0.120517
H60   H     H_    0.723963 0.533109 0.405651 0.182745
H61   H     H_    0.754318 0.519007 0.356702 0.241418
H62   H     H_    0.236524 0.438382 0.626991 0.159415
H63   H     H_    0.148495 0.400790 0.613576 0.240631
H64   H     H_    0.213719 0.421610 0.576913 0.150119
H65   H     H_    0.416709 0.781814 0.378123 0.059526
H66   H     H_    0.479898 0.719980 0.399845 0.189138
H67   H     H_    0.492981 0.745938 0.350170 0.233138
H68   H     H_    0.068407 0.736681 0.312429 0.169744
H69   H     H_    0.529971 0.263931 0.643959 0.194442
H70   H     H_    0.567602 0.186524 0.617218 0.209214
H71   H     H_    0.532356 0.263265 0.591740 0.166325
H72   H     H_    0.273472 0.414977 0.397932 0.097784
H73   H     H_    0.319680 0.499008 0.389237 0.228438
H74   H     H_    0.249994 0.471661 0.355915 0.183478
H75   H     H_    0.761512 0.564434 0.624104 0.146202
H76   H     H_    0.852163 0.598297 0.613723 0.241184
H77   H     H_    0.789344 0.582796 0.574989 0.147346
H78   H     H_    0.575669 0.617051 0.644643 0.142277
H79   H     H_    0.149706 0.790006 0.317314 0.149198
H80   H     H_    0.639894 0.599486 0.605322 0.189823
H81   H     H_    0.552790 0.637808 0.595102 0.173929
H82   H     H_    0.347618 0.258473 0.438335 0.178070
H83   H     H_    0.307445 0.194030 0.405664 0.221556
H84   H     H_    0.270778 0.286037 0.409968 0.096104
H85   H     H_    0.591777 0.473287 0.683127 0.164464
H86   H     H_    0.549891 0.397445 0.657160 0.147677
H87   H     H_    0.569590 0.480480 0.632280 0.164536
H88   H     H_    0.243583 0.684286 0.439220 0.185455
H89   H     H_    0.215272 0.744717 0.401132 0.141882
H90   H     H_    0.102130 0.761396 0.359935 0.172555
H91   H     H_    0.310787 0.737195 0.414457 0.152517
H92   H     H_    0.417579 0.394507 0.647513 0.134943
H93   H     H_    0.359382 0.403624 0.604748 0.196980
H94   H     H_    0.450549 0.372202 0.599810 0.175598
H95   H     H_    0.660052 0.769643 0.439958 0.179847
H96   H     H_    0.732855 0.790014 0.407199 0.153769
H97   H     H_    0.713682 0.695980 0.421495 0.146877
H98   H     H_    0.403015 0.534592 0.673254 0.159723
H99   H     H_    0.441996 0.611416 0.647104 0.147651
H100  H     H_    0.419315 0.529506 0.621703 0.168168
H101  H     H_    0.575411 0.708076 0.751917 0.160190
H102  H     H_    0.794668 0.283634 0.406714 0.154941
H103  H     H_    0.697808 0.277012 0.416858 0.137504
H104  H     H_    0.752426 0.344225 0.440836 0.186632
H105  H     H_    0.413977 0.140377 0.608625 0.156202
H106  H     H_    0.317412 0.128035 0.611910 0.185444
H107  H     H_    0.372446 0.099355 0.651322 0.165245
H108  H     H_    0.650872 0.101471 0.418013 0.145949
H109  H     H_    0.711015 0.066972 0.381344 0.165853
H110  H     H_    0.621743 0.094635 0.367399 0.163285
H111  H     H_    0.930991 0.288633 0.620714 0.158798
H112  H     H_    0.367222 0.574669 0.741694 0.118065
H113  H     H_    0.580445 0.633766 0.716502 0.127430
H114  H     H_    0.901665 0.379990 0.630061 0.170951
H115  H     H_    0.900260 0.343292 0.580733 0.153623
H116  H     H_    0.969332 0.713104 0.373889 0.164147
H117  H     H_    0.033837 0.679069 0.408633 0.173147
H118  H     H_    0.026876 0.638920 0.360068 0.183893
H119  H     H_    0.586438 0.859908 0.608690 0.159844
H120  H     H_    0.682967 0.872573 0.612130 0.187329
H121  H     H_    0.627804 0.901511 0.651444 0.164646
H122  H     H_    0.351274 0.898035 0.415594 0.144620
H123  H     H_    0.287775 0.935557 0.381516 0.167294
H124  H     H_    0.497814 0.683907 0.723171 0.162660
H125  H     H_    0.375506 0.909423 0.364492 0.165367
H126  H     H_    0.096902 0.655738 0.578593 0.153604
H127  H     H_    0.067853 0.709284 0.619489 0.159411
H128  H     H_    0.098947 0.618127 0.627631 0.171545
H129  H     H_    0.143575 0.417117 0.392272 0.127090
H130  H     H_    0.136267 0.319586 0.388936 0.173762
H131  H     H_    0.105719 0.373346 0.349282 0.174344
H132  H     H_    0.905954 0.632880 0.112026 0.172594
H133  H     H_    0.810259 0.614714 0.114622 0.188193
H134  H     H_    0.866881 0.584553 0.153202 0.155186
H135  H     H_    0.277775 0.063836 0.348778 0.231608
H136  H     H_    0.148807 0.607004 0.917687 0.146407
H137  H     H_    0.209725 0.573753 0.881036 0.165645
H138  H     H_    0.119759 0.599042 0.867130 0.164966
H139  H     H_    0.447580 0.783721 0.117314 0.160106
H140  H     H_    0.415546 0.871159 0.132975 0.162335
H141  H     H_    0.409465 0.844126 0.081931 0.145114
H142  H     H_    0.446788 0.212348 0.873582 0.170972
H143  H     H_    0.515455 0.185145 0.907598 0.162871
H144  H     H_    0.510679 0.144342 0.858960 0.135342
H145  H     H_    0.090866 0.363192 0.108500 0.158741
H146  H     H_    0.247264 0.105220 0.304723 0.126571
H147  H     H_    0.186790 0.378847 0.112737 0.181661
H148  H     H_    0.129615 0.406108 0.151611 0.163237
H149  H     H_    0.845678 0.398913 0.921113 0.154672
H150  H     H_    0.793375 0.426476 0.879551 0.163131
H151  H     H_    0.885048 0.397130 0.872523 0.166913
H152  H     H_    0.590831 0.157179 0.080202 0.150022
H153  H     H_    0.557260 0.214163 0.118562 0.158827
H154  H     H_    0.590139 0.125070 0.130404 0.167848
H155  H     H_    0.554265 0.788332 0.873904 0.164777
H156  H     H_    0.483990 0.817859 0.906447 0.166855
H157  H     H_    0.225287 0.145757 0.351947 0.134963
H158  H     H_    0.492267 0.856780 0.857679 0.154329
H159  H     H_    0.639059 0.828061 0.538590 0.157695
H160  H     H_    0.734549 0.831895 0.548405 0.205764
H161  H     H_    0.703854 0.845353 0.499508 0.178922
H162  H     H_    0.277472 0.930205 0.472795 0.122334
H163  H     H_    0.212239 0.982758 0.446200 0.163444
H164  H     H_    0.224978 0.001459 0.496932 0.202133
H165  H     H_    0.053805 0.727591 0.522560 0.108877
H166  H     H_    0.004066 0.784879 0.555402 0.166554
H167  H     H_    0.975214 0.779029 0.505719 0.192065
H168  H     H_    0.378791 0.426310 0.257709 0.157026
H169  H     H_    0.174521 0.356327 0.461116 0.139773
H170  H     H_    0.169077 0.259389 0.454271 0.171587
H171  H     H_    0.155970 0.295937 0.502036 0.209612
H172  H     H_    0.361529 0.172207 0.538905 0.156178
H173  H     H_    0.265744 0.168813 0.547782 0.201703
H174  H     H_    0.297915 0.154913 0.499162 0.180701
H175  H     H_    0.724189 0.067624 0.475139 0.120341
H176  H     H_    0.787175 0.016790 0.446075 0.164291
H177  H     H_    0.777420 0.993941 0.496428 0.200789
H178  H     H_    0.936598 0.270972 0.523529 0.117971
H179  H     H_    0.300987 0.413060 0.225355 0.132574
H180  H     H_    0.985419 0.210010 0.554727 0.164429
H181  H     H_    0.012423 0.217476 0.504853 0.199403
H182  H     H_    0.825404 0.633334 0.453003 0.156521
H183  H     H_    0.827981 0.731269 0.451622 0.162893
H184  H     H_    0.834563 0.686629 0.497776 0.187428
H185  H     H_    0.145551 0.334498 0.038589 0.155731
H186  H     H_    0.240805 0.341669 0.048524 0.199976
H187  H     H_    0.209833 0.354100 0.999586 0.180778
H188  H     H_    0.772328 0.436524 0.977882 0.121478
H189  H     H_    0.714223 0.483998 0.944619 0.161142
H190  H     H_    0.325099 0.502378 0.242025 0.160220
H191  H     H_    0.718739 0.514451 0.994103 0.200758
H192  H     H_    0.544298 0.229815 0.025364 0.110689
H193  H     H_    0.489335 0.287238 0.055614 0.167987
H194  H     H_    0.465744 0.277157 0.005316 0.190466
H195  H     H_    0.687489 0.870976 0.958258 0.147740
H196  H     H_    0.686076 0.773048 0.954710 0.164129
H197  H     H_    0.673250 0.814566 0.001241 0.194608
H198  H     H_    0.862286 0.668770 0.041970 0.164297
H199  H     H_    0.766306 0.665836 0.050197 0.215888
H200  H     H_    0.799325 0.655466 0.001464 0.173048
H201  H     H_    0.896403 0.781720 0.693814 0.113111
H202  H     H_    0.222260 0.577136 0.975348 0.122342
H203  H     H_    0.287120 0.528696 0.946311 0.162280
H204  H     H_    0.278050 0.505387 0.996639 0.201437
H205  H     H_    0.452501 0.772649 0.025754 0.110791
H206  H     H_    0.508787 0.711888 0.053222 0.169710
H207  H     H_    0.528232 0.725391 0.002693 0.187620
H208  H     H_    0.313337 0.131729 0.954903 0.156547
H209  H     H_    0.315310 0.229862 0.957652 0.160674
H210  H     H_    0.325960 0.178621 0.001315 0.191959
H211  H     H_    0.885782 0.777191 0.640818 0.185698
H212  H     H_    0.314757 0.493891 0.749722 0.169269
H213  H     H_    0.962932 0.736730 0.664380 0.186726
H214  H     H_    0.419900 0.622225 0.258192 0.154010
H215  H     H_    0.419053 0.702222 0.226465 0.135807
H216  H     H_    0.502452 0.668380 0.246320 0.160153
H217  H     H_    0.762175 0.117756 0.684212 0.134425
H218  H     H_    0.761536 0.160183 0.635993 0.157978
H219  H     H_    0.720402 0.072830 0.643540 0.219638
H220  H     H_    0.619398 0.577292 0.271207 0.165360
H221  H     H_    0.689365 0.586662 0.233797 0.133204
H222  H     H_    0.668882 0.499274 0.254121 0.166132
H223  H     H_    0.903564 0.256753 0.306440 0.133257
H224  H     H_    0.114136 0.208919 0.681703 0.107714
H225  H     H_    0.121408 0.234592 0.630364 0.204707
H226  H     H_    0.043101 0.259408 0.658454 0.192015
H227  H     H_    0.581047 0.376830 0.260054 0.149672
H228  H     H_    0.588975 0.296960 0.228319 0.132154
H229  H     H_    0.502170 0.326265 0.245725 0.161768
H230  H     H_    0.237255 0.891109 0.688844 0.132455
H231  H     H_    0.231715 0.853800 0.639401 0.158119
H232  H     H_    0.276930 0.938625 0.648602 0.216352
H233  H     H_    0.780234 0.074937 0.273371 0.151154
H234  H     H_    0.861626 0.230956 0.352489 0.125901
H235  H     H_    0.866659 0.073079 0.247404 0.119715
H236  H     H_    0.815528 0.991165 0.254396 0.170201
H237  H     H_    0.412394 0.761080 0.809386 0.163436
H238  H     H_    0.336524 0.715032 0.832423 0.137736
H239  H     H_    0.403920 0.757073 0.861593 0.169064
H240  H     H_    0.922744 0.794895 0.240284 0.162933
H241  H     H_    0.919986 0.859307 0.199787 0.125434
H242  H     H_    0.999215 0.804915 0.208514 0.164627
H243  H     H_    0.222042 0.454499 0.840817 0.211178
H244  H     H_    0.261036 0.400285 0.803000 0.108976
H245  H     H_    0.939608 0.289151 0.351733 0.227119
H246  H     H_    0.274591 0.376061 0.854141 0.147479
H247  H     H_    0.214059 0.922301 0.261407 0.150865
H248  H     H_    0.133393 0.923171 0.230513 0.114038
H249  H     H_    0.185190 0.004659 0.238157 0.170114
H250  H     H_    0.618164 0.231337 0.820926 0.156032
H251  H     H_    0.695637 0.257980 0.850866 0.129255
H252  H     H_    0.623840 0.206795 0.871641 0.172748
H253  H     H_    0.075952 0.207678 0.253518 0.158938
H254  H     H_    0.076522 0.132827 0.218306 0.120638
H255  H     H_    0.995941 0.185633 0.226225 0.164231
H256  H     H_    0.424006 0.294022 0.754248 0.159819
H257  H     H_    0.780018 0.548995 0.841728 0.214856
H258  H     H_    0.740255 0.602533 0.803965 0.110757
H259  H     H_    0.727954 0.627859 0.855051 0.145642
H260  H     H_    0.878631 0.923345 0.772596 0.167896
H261  H     H_    0.807840 0.914227 0.735498 0.124247
H262  H     H_    0.828116 0.001350 0.756560 0.164773
H263  H     H_    0.394253 0.277984 0.195379 0.113049
H264  H     H_    0.381424 0.278318 0.142465 0.177454
H265  H     H_    0.459666 0.236302 0.164156 0.184687
H266  H     H_    0.933885 0.120781 0.735291 0.154924
H267  H     H_    0.420864 0.368247 0.718891 0.125650
H268  H     H_    0.906556 0.201394 0.707613 0.148784
H269  H     H_    0.000529 0.181394 0.715936 0.169029
H270  H     H_    0.266980 0.601713 0.191838 0.127712
H271  H     H_    0.272052 0.629504 0.140717 0.163437
H272  H     H_    0.225958 0.547408 0.154394 0.211516
H273  H     H_    0.119962 0.080027 0.774654 0.176665
H274  H     H_    0.188704 0.089032 0.736553 0.132735
H275  H     H_    0.168946 0.001831 0.757367 0.166849
H276  H     H_    0.594726 0.718065 0.200340 0.113034
H277  H     H_    0.592455 0.717443 0.147050 0.183558
H278  H     H_    0.502967 0.317836 0.726668 0.162617
H279  H     H_    0.523670 0.763861 0.174786 0.166098
H280  H     H_    0.076690 0.876163 0.750901 0.147015
H281  H     H_    0.083380 0.792938 0.721638 0.139279
H282  H     H_    0.997065 0.825619 0.738079 0.161991
H283  H     H_    0.737459 0.386272 0.190304 0.130036
H284  H     H_    0.729822 0.346502 0.141496 0.156695
H285  H     H_    0.774468 0.432248 0.148839 0.215412
H286  H     H_    0.076702 0.731630 0.876052 0.056768
H287  H     H_    0.010075 0.794079 0.894078 0.199143
H288  H     H_    0.001214 0.760341 0.845305 0.228128
O1    O     O_3   0.000000 0.500000 0.750000 -0.525137
O2    O     O_R   0.060740 0.500000 0.337440 -0.661517
O3    O     O_3   0.219888 0.867724 0.880447 -0.542114
O4    O     O_3   0.590361 0.332727 0.360948 -0.535124
O5    O     O_3   0.361066 0.731667 0.614396 -0.574066
O6    O     O_3   0.675432 0.599152 0.364891 -0.551094
O7    O     O_3   0.234818 0.328399 0.608041 -0.587593
O8    O     O_3   0.410191 0.671357 0.360933 -0.551969
O9    O     O_3   0.631908 0.279752 0.617128 -0.576924
O10   O     O_3   0.348859 0.415282 0.352731 -0.525026
O11   O     O_3   0.769985 0.675161 0.607380 -0.575653
O12   O     O_3   0.625344 0.708831 0.620012 -0.584602
O13   O     O_R   0.500000 0.939260 0.662560 -0.643779
O14   O     O_3   0.370210 0.275580 0.380427 -0.554887
O15   O     O_3   0.659620 0.418526 0.644398 -0.540846
O16   O     O_3   0.267726 0.648568 0.383918 -0.552424
O17   O     O_3   0.379788 0.297025 0.622437 -0.585329
O18   O     O_3   0.639945 0.742310 0.382943 -0.550564
O19   O     O_3   0.331006 0.591046 0.637537 -0.541951
O20   O     O_3   0.730132 0.366508 0.383412 -0.540886
O21   O     O_3   0.372858 0.031788 0.602912 -0.588637
O22   O     O_3   0.630164 0.995484 0.396659 -0.535840
O23   O     O_3   0.003211 0.367864 0.603889 -0.556695
O24   O     O_R   0.500000 0.060740 0.337440 -0.637090
O25   O     O_3   0.942039 0.614330 0.397418 -0.589096
O26   O     O_3   0.627248 0.968524 0.603004 -0.591986
O27   O     O_3   0.369962 0.005888 0.396506 -0.549190
O28   O     O_3   0.995772 0.629422 0.603115 -0.551912
O29   O     O_3   0.037889 0.370766 0.397258 -0.577060
O30   O     O_3   0.871056 0.523134 0.102572 -0.588522
O31   O     O_3   0.130784 0.500332 0.896573 -0.537463
O32   O     O_3   0.514024 0.869589 0.103181 -0.531042
O33   O     O_3   0.430131 0.111577 0.897732 -0.580983
O34   O     O_3   0.128462 0.473050 0.103114 -0.582263
O35   O     O_R   0.560740 0.000000 0.162560 -0.641308
O36   O     O_3   0.870505 0.500854 0.896639 -0.543122
O37   O     O_3   0.488621 0.130263 0.103600 -0.545417
O38   O     O_3   0.571071 0.889803 0.897461 -0.586552
O39   O     O_3   0.687025 0.931666 0.538654 -0.575485
O40   O     O_3   0.305408 0.038952 0.459311 -0.566132
O41   O     O_3   0.950461 0.690498 0.541045 -0.546227
O42   O     O_3   0.070789 0.310078 0.461973 -0.564755
O43   O     O_3   0.313259 0.068803 0.538487 -0.573442
O44   O     O_3   0.694438 0.960171 0.459278 -0.560251
O45   O     O_3   0.041805 0.303138 0.541514 -0.556245
O46   O     O_R   0.439260 0.000000 0.837440 -0.609368
O47   O     O_3   0.926094 0.682717 0.461533 -0.586049
O48   O     O_3   0.189898 0.439724 0.038747 -0.572169
O49   O     O_3   0.806474 0.540862 0.958776 -0.562953
O50   O     O_3   0.440929 0.189905 0.041624 -0.544023
O51   O     O_3   0.586554 0.820133 0.961515 -0.585890
O52   O     O_3   0.812733 0.566105 0.038722 -0.578369
O53   O     O_3   0.196448 0.468699 0.959392 -0.559483
O54   O     O_3   0.557726 0.809397 0.040511 -0.539100
O55   O     O_3   0.414176 0.180616 0.962295 -0.587605
O56   O     O_R   1.000000 0.560740 0.162560 -0.641396
O57   O     O_R   1.000000 0.439260 0.837440 -0.632731
O58   O     O_R   0.439260 0.000000 0.162560 -0.639830
O59   O     O_R   0.560740 0.000000 0.837440 -0.613444
O60   O     O_R   0.000000 0.439260 0.162560 -0.640768
O61   O     O_3   1.000000 0.500000 0.250000 -0.521965
O62   O     O_R   1.000000 0.560740 0.837440 -0.636944
O63   O     O_R   0.853850 0.585450 0.727070 -0.606679
O64   O     O_R   0.146150 0.414550 0.272930 -0.612922
O65   O     O_R   0.414550 0.853850 0.727070 -0.613405
O66   O     O_R   0.585450 0.146150 0.272930 -0.611529
O67   O     O_R   0.146150 0.414550 0.727070 -0.611374
O68   O     O_R   0.853850 0.585450 0.272930 -0.596476
O69   O     O_R   0.585450 0.146150 0.727070 -0.607712
O70   O     O_R   0.414550 0.853850 0.272930 -0.614355
O71   O     O_R   0.853850 0.414550 0.272930 -0.591672
O72   O     O_3   0.500000 0.000000 0.750000 -0.525320
O73   O     O_R   0.146150 0.585450 0.727070 -0.598076
O74   O     O_R   0.414550 0.146150 0.272930 -0.592487
O75   O     O_R   0.585450 0.853850 0.727070 -0.606020
O76   O     O_R   0.146150 0.585450 0.272930 -0.595519
O77   O     O_R   0.853850 0.414550 0.727070 -0.602389
O78   O     O_R   0.585450 0.853850 0.272930 -0.594356
O79   O     O_R   0.414550 0.146150 0.727070 -0.606162
O80   O     O_R   0.353850 0.085450 0.227070 -0.613391
O81   O     O_R   0.646150 0.914550 0.772930 -0.592412
O82   O     O_R   0.914550 0.353850 0.227070 -0.611951
O83   O     O_3   0.500000 0.000000 0.250000 -0.524715
O84   O     O_R   0.085450 0.646150 0.772930 -0.615802
O85   O     O_R   0.646150 0.914550 0.227070 -0.609208
O86   O     O_R   0.353850 0.085450 0.772930 -0.592795
O87   O     O_R   0.085450 0.646150 0.227070 -0.622068
O88   O     O_R   0.914550 0.353850 0.772930 -0.619615
O89   O     O_R   0.353850 0.914550 0.772930 -0.599324
O90   O     O_R   0.646150 0.085450 0.227070 -0.598847
O91   O     O_R   0.914550 0.646150 0.772930 -0.595567
O92   O     O_R   0.085450 0.353850 0.227070 -0.602665
O93   O     O_R   0.646150 0.085450 0.772930 -0.590409
O94   O     O_R   0.060740 0.500000 0.662560 -0.642692
O95   O     O_R   0.353850 0.914550 0.227070 -0.596246
O96   O     O_R   0.085450 0.353850 0.772930 -0.596892
O97   O     O_R   0.914550 0.646150 0.227070 -0.603346
O98   O     O_3   0.271310 0.563577 0.709116 -0.528282
O99   O     O_3   0.845149 0.339211 0.334635 -0.538633
O100  O     O_3   0.425184 0.262391 0.695643 -0.545085
O101  O     O_3   0.670794 0.852699 0.332079 -0.527565
O102  O     O_3   0.725895 0.439951 0.715247 -0.528414
O103  O     O_3   0.155256 0.676221 0.332642 -0.559777
O104  O     O_3   0.576777 0.739557 0.693359 -0.544748
O105  O     O_R   0.939260 0.500000 0.337440 -0.592825
O106  O     O_3   0.333298 0.156723 0.333750 -0.538110
O107  O     O_3   0.276348 0.438242 0.283361 -0.537692
O108  O     O_3   0.867855 0.679913 0.670553 -0.568127
O109  O     O_3   0.438123 0.723151 0.285465 -0.549365
O110  O     O_3   0.662295 0.159072 0.665538 -0.566221
O111  O     O_3   0.726807 0.566838 0.290383 -0.546070
O112  O     O_3   0.134359 0.319337 0.670358 -0.574755
O113  O     O_3   0.565509 0.275486 0.286809 -0.543870
O114  O     O_3   0.333551 0.848117 0.666206 -0.567433
O115  O     O_3   0.773088 0.059883 0.213041 -0.527085
O116  O     O_R   0.500000 0.060740 0.662560 -0.640609
O117  O     O_3   0.337504 0.831680 0.834331 -0.549686
O118  O     O_3   0.913647 0.748693 0.184592 -0.548943
O119  O     O_3   0.170849 0.356489 0.831911 -0.526514
O120  O     O_3   0.233321 0.930340 0.201453 -0.528591
O121  O     O_3   0.688034 0.146379 0.834890 -0.537466
O122  O     O_3   0.074777 0.238291 0.194819 -0.542162
O123  O     O_3   0.831229 0.646704 0.832205 -0.528257
O124  O     O_3   0.771587 0.932392 0.792446 -0.537085
O125  O     O_3   0.365258 0.178143 0.169663 -0.559388
O126  O     O_3   0.946413 0.221506 0.763620 -0.558504
O127  O     O_R   0.500000 0.939260 0.337440 -0.635169
O128  O     O_3   0.170836 0.641632 0.167376 -0.568084
O129  O     O_3   0.228020 0.069895 0.792823 -0.548613
O130  O     O_3   0.621839 0.816235 0.172470 -0.554253
O131  O     O_3   0.059376 0.777836 0.780579 -0.550605
O132  O     O_3   0.833069 0.343274 0.166826 -0.564752
O133  O     O_3   0.080305 0.839526 0.854600 -0.546453
O134  O     O_3   0.861412 0.225293 0.116416 -0.574657
O135  O     O_3   0.174907 0.104050 0.866753 -0.572654
O136  O     O_3   0.708167 0.810471 0.106134 -0.552101
O137  O     O_3   0.946860 0.131359 0.829998 -0.561663
O138  O     O_R   0.939260 0.500000 0.662560 -0.644596
O139  O     O_3   0.150813 0.751030 0.110526 -0.571552
O140  O     O_3   0.823894 0.899918 0.866268 -0.539242
O141  O     O_3   0.264689 0.167066 0.108075 -0.574029
O142  O     O_3   0.119817 0.200846 0.122006 -0.575754
O143  O     O_3   0.864327 0.757093 0.882774 -0.562398
O144  O     O_3   0.184302 0.893698 0.128809 -0.543149
O145  O     O_3   0.816957 0.096716 0.865492 -0.524724
O146  O     O_3   0.853169 0.776574 0.112343 -0.586036
O147  O     O_3   0.140323 0.248394 0.883728 -0.562434
O148  O     O_3   0.832711 0.085216 0.140990 -0.538624
Zn1   Zn    Zn3+2 1.000000 0.586740 0.782740 1.024745
Zn2   Zn    Zn3+2 0.500000 0.913260 0.717260 0.999896
Zn3   Zn    Zn3+2 0.913260 0.500000 0.282740 1.033948
Zn4   Zn    Zn3+2 0.086740 0.500000 0.717260 1.028225
Zn5   Zn    Zn3+2 0.500000 0.913260 0.282740 1.023632
Zn6   Zn    Zn3+2 0.500000 0.086740 0.717260 1.000135
Zn7   Zn    Zn3+2 0.086740 0.500000 0.282740 1.001117
Zn8   Zn    Zn3+2 0.913260 0.500000 0.717260 1.030638
Zn9   Zn    Zn3+2 1.000000 0.413260 0.217260 1.005295
Zn10  Zn    Zn3+2 0.413260 0.000000 0.782740 1.021975
Zn11  Zn    Zn3+2 0.586740 0.000000 0.217260 1.028441
Zn12  Zn    Zn3+2 0.000000 0.413260 0.782740 1.028542
Zn13  Zn    Zn3+2 1.000000 0.586740 0.217260 0.998578
Zn14  Zn    Zn3+2 0.586740 0.000000 0.782740 1.022091
Zn15  Zn    Zn3+2 0.413260 0.000000 0.217260 1.023111
Zn16  Zn    Zn3+2 0.500000 0.086740 0.282740 1.023532

loop_
_geom_bond_atom_site_label_1
_geom_bond_atom_site_label_2
_ccdc_geom_bond_type
C231  C264  A    
C173  H71   S    
C268  O30   S    
C160  H29   S    
C6    C270  A    
C166  H50   S    
O66   Zn16  S    
C70   O19   S    
C184  O20   S    
C16   O62   A    
C3    C276  A    
C128  H221  S    
C149  H283  S    
O95   Zn15  S    
C28   O74   A    
O76   Zn7   S    
O57   Zn12  S    
C156  H19   S    
C21   O96   A    
C276  O38   S    
C130  H227  S    
C187  H114  S    
C73   O18   S    
C63   C98   A    
C172  H66   S    
C80   O11   S    
C196  H141  S    
O58   Zn15  S    
C175  H77   S    
C15   C281  S    
C93   O145  S    
C264  C292  A    
C39   C74   A    
C123  H179  S    
C169  H58   S    
C142  H264  S    
C7    C68   A    
C23   O93   A    
C270  O32   S    
C50   C90   A    
C71   O20   S    
C25   O70   A    
C144  H272  S    
C18   O64   A    
C91   C100  A    
O13   Zn2   S    
O90   Zn11  S    
C31   C254  S    
C139  O122  S    
C204  O40   S    
C182  H96   S    
C112  C242  A    
C221  C256  A    
O93   Zn14  S    
C138  H250  S    
C172  H65   S    
C159  H27   S    
O87   Zn13  S    
C253  C291  A    
C123  H190  S    
C178  O15   S    
C145  H275  S    
C81   O8    S    
C2    C295  A    
C157  C168  A    
C200  H152  S    
C123  H168  S    
C170  O6    S    
C83   O6    S    
O74   Zn16  S    
C33   C256  S    
C30   O87   A    
C98   O137  S    
C171  H62   S    
C94   O142  S    
C151  H4    S    
C106  C287  A    
C46   C286  A    
C186  H110  S    
C150  H287  S    
C151  H3    S    
C54   C238  A    
C123  O107  S    
C58   C235  A    
C213  H188  S    
C200  O37   S    
C38   O101  S    
C99   O139  S    
C136  O119  S    
C94   C97   A    
C170  H59   S    
C180  H91   S    
C118  H24   S    
O65   Zn2   S    
C162  H38   S    
C181  H94   S    
C116  H234  S    
C147  H276  S    
C40   O103  S    
O61   Zn7   S    
C186  O22   S    
C262  C293  A    
O61   Zn13  S    
C87   O148  S    
O105  Zn3   S    
C72   C84   A    
C121  H113  S    
C120  H90   S    
C209  H178  S    
O64   Zn7   S    
C28   O80   A    
C160  H31   S    
C156  H20   S    
C175  H76   S    
C225  C239  A    
C260  O22   S    
C26   O82   A    
C269  O31   S    
C9    O2    A    
C177  H82   S    
C207  H173  S    
O70   Zn5   S    
C29   O81   A    
C32   O85   A    
O72   Zn10  S    
C213  H191  S    
C13   C296  A    
C237  C244  A    
C153  H10   S    
C177  H84   S    
O138  Zn8   S    
C206  H171  S    
C45   C81   A    
C60   C233  A    
C62   O125  S    
C65   C100  A    
C211  H186  S    
C157  C249  A    
O1    Zn8   S    
C108  C293  A    
C167  H54   S    
C125  H201  S    
C126  H215  S    
C5    C46   A    
C124  C201  A    
C268  C281  A    
C115  H1    S    
C23   C246  S    
C155  O139  S    
C242  O43   S    
C37   C221  A    
C208  H176  S    
C217  O53   S    
C41   C76   A    
C191  H123  S    
C72   O17   S    
C216  O52   S    
C26   C257  S    
C113  C245  A    
C238  C245  A    
C161  H33   S    
O61   Zn3   S    
C188  H118  S    
O81   Zn14  S    
C230  C234  A    
C79   C241  A    
C151  O134  S    
C200  H154  S    
C140  O123  S    
O61   Zn9   S    
C134  H241  S    
C19   C241  S    
O89   Zn10  S    
C66   O130  S    
C60   C95   A    
C121  H101  S    
C183  H99   S    
C118  H13   S    
C127  O110  S    
C140  H258  S    
C137  H248  S    
C38   C212  A    
C73   C83   A    
C208  O44   S    
C148  O131  S    
C147  H279  S    
C224  C257  A    
C112  O40   S    
C11   O24   A    
C214  O50   S    
C20   C243  S    
C4    C109  A    
C217  H203  S    
C10   O13   A    
C213  O49   S    
C131  O114  S    
C263  C285  A    
C120  H79   S    
C175  O11   S    
C6    C111  A    
C46   O53   S    
C186  H109  S    
C180  O16   S    
C197  H142  S    
C184  H102  S    
O60   Zn9   S    
O86   Zn10  S    
C204  H164  S    
C61   C96   A    
C45   O109  S    
O80   Zn15  S    
C199  O36   S    
C137  H249  S    
C43   O107  S    
O97   Zn13  S    
C210  O47   S    
C178  H86   S    
C273  C282  A    
C49   C84   A    
C163  H39   S    
C35   O52   S    
O71   Zn3   S    
C207  H172  S    
C189  H121  S    
C265  C278  A    
C158  H25   S    
C5    C110  A    
C201  C254  A    
C49   O112  S    
C261  C292  A    
C267  C280  A    
C61   C232  A    
C65   C227  A    
C195  H137  S    
C197  O33   S    
C210  H183  S    
C196  H139  S    
C261  O23   S    
C89   O146  S    
C209  H180  S    
C18   O92   A    
C196  H140  S    
C64   C99   A    
C15   O60   A    
C193  H129  S    
C24   C57   A    
C62   C230  A    
C139  H254  S    
C107  C108  A    
O88   Zn12  S    
C9    C280  S    
C176  H78   S    
C165  H48   S    
C149  H284  S    
C271  O33   S    
C189  H119  S    
C180  H88   S    
C162  O145  S    
C214  H192  S    
C25   O95   A    
C220  C275  A    
C124  C246  A    
C128  H220  S    
C206  H169  S    
C3    C24   A    
C286  O48   S    
C198  H147  S    
C132  H233  S    
C100  O135  S    
C153  H9    S    
C204  H162  S    
C14   O59   A    
O59   Zn14  S    
C181  O17   S    
C136  H244  S    
C45   C135  A    
C169  H56   S    
C118  H2    S    
C164  H43   S    
C135  C247  A    
C120  H68   S    
C192  H128  S    
C219  H209  S    
O94   Zn4   S    
C171  H64   S    
C207  O43   S    
C276  C284  A    
C85   O4    S    
C160  O143  S    
C105  C285  A    
C129  H226  S    
C196  O32   S    
O84   Zn1   S    
C141  O124  S    
C202  O38   S    
C163  O146  S    
C135  C190  A    
C148  H280  S    
C187  H111  S    
C153  O136  S    
C224  C240  A    
C78   O10   S    
C203  O39   S    
C144  O128  S    
O62   Zn1   S    
C125  O108  S    
C188  H116  S    
O24   Zn16  S    
C65   O129  S    
C239  C241  A    
O127  Zn5   S    
C68   O55   S    
C147  H277  S    
C218  H206  S    
C226  C255  A    
C112  C287  A    
C161  O144  S    
C88   O3    S    
C259  C277  A    
C117  H278  S    
C197  H144  S    
C122  H135  S    
C152  H8    S    
C154  H14   S    
C192  O28   S    
C8    C279  S    
C133  H237  S    
C33   O86   A    
O85   Zn11  S    
C253  O44   S    
C32   C255  S    
O69   Zn6   S    
C143  O126  S    
C155  H16   S    
O83   Zn5   S    
C160  H30   S    
O1    Zn4   S    
C166  H51   S    
C41   C179  A    
C274  C283  A    
C76   C80   A    
C43   C157  A    
C3    C114  A    
C34   O98   S    
C115  H112  S    
C48   O111  S    
C192  H126  S    
C36   C71   A    
O68   Zn3   S    
C79   C223  A    
C227  C256  A    
C128  H222  S    
C266  C279  A    
C129  H224  S    
C168  C250  A    
C194  O30   S    
C58   O121  S    
C174  H73   S    
C48   C83   A    
C193  O29   S    
C220  C288  A    
C130  H228  S    
C212  C255  A    
C134  H240  S    
C265  O27   S    
C178  H85   S    
C211  H187  S    
C203  H160  S    
C117  O100  S    
O83   Zn16  S    
C42   O106  S    
C194  H132  S    
C264  O45   S    
C158  H22   S    
C10   C277  S    
C169  O5    S    
C141  H262  S    
C11   O127  A    
C222  C257  A    
C67   O131  S    
C265  C287  A    
C171  O7    S    
C170  H61   S    
C266  C288  A    
C186  H108  S    
C176  H80   S    
C223  C258  A    
O78   Zn5   S    
C130  H229  S    
C56   C236  A    
C115  H212  S    
C198  H145  S    
C174  O10   S    
C132  H235  S    
O1    Zn12  S    
C92   C99   A    
C272  C294  A    
C155  H18   S    
C184  H104  S    
C2    C35   A    
C139  H255  S    
C194  H133  S    
C138  H251  S    
O35   Zn11  S    
C156  O140  S    
C95   O143  S    
C166  H49   S    
C145  H274  S    
C53   C239  A    
C1    C285  A    
C229  C254  A    
C127  H218  S    
C61   O124  S    
C116  H245  S    
C259  O21   S    
C185  O21   S    
C77   C78   A    
C34   C223  A    
C43   C78   A    
C187  O23   S    
C96   O140  S    
C29   C251  S    
C7    C114  A    
C150  H288  S    
C58   C93   A    
C74   C82   A    
C225  C258  A    
C154  O137  S    
C166  O3    S    
C47   O110  S    
C119  O102  S    
C49   C101  A    
C202  H156  S    
C242  C290  A    
C121  O104  S    
C67   C225  A    
C18   C249  S    
C52   C87   A    
C146  C248  A    
O56   Zn13  S    
C231  O42   S    
C213  H189  S    
C234  C249  A    
C119  H35   S    
C273  C295  A    
C208  H177  S    
C101  C244  A    
C274  C296  A    
C55   C91   A    
C275  C293  A    
C50   C85   A    
C173  H70   S    
C12   C283  S    
C176  O12   S    
C162  H36   S    
C14   O46   A    
C17   O63   A    
C149  O132  S    
C151  H5    S    
C59   C94   A    
C205  H165  S    
C74   O15   S    
C34   C70   A    
C235  C246  A    
C133  H239  S    
C195  H136  S    
C63   C229  A    
C216  H198  S    
C163  H41   S    
C4    C35   A    
C152  H6    S    
C162  H37   S    
C181  H92   S    
C167  O4    S    
C175  H75   S    
C6    C57   A    
C44   O108  S    
C128  O111  S    
C13   O50   S    
C115  O98   S    
C8    O138  A    
C51   C86   A    
C165  H45   S    
C42   C168  A    
O91   Zn1   S    
C122  H157  S    
C67   C103  A    
O72   Zn14  S    
C177  H83   S    
C55   C237  A    
C44   C80   A    
C267  O29   S    
C211  H185  S    
C57   O54   S    
O73   Zn4   S    
C167  H53   S    
C126  H216  S    
C259  C290  A    
C14   C284  S    
C185  H106  S    
C177  O14   S    
C240  C243  A    
C164  H42   S    
O92   Zn9   S    
C229  C235  A    
C125  H213  S    
C142  H263  S    
O96   Zn12  S    
C260  C278  A    
C272  O34   S    
C261  C279  A    
C19   O65   A    
C82   O9    S    
C262  C280  A    
C66   C226  A    
C153  H11   S    
C144  H271  S    
C131  H231  S    
C232  C251  A    
C206  O42   S    
C107  C292  A    
C215  O51   S    
C119  H57   S    
C134  H242  S    
C182  H95   S    
C164  O147  S    
C2    O49   S    
C77   O14   S    
C170  H60   S    
C39   C201  A    
C33   O79   A    
C159  H28   S    
C142  O125  S    
C269  C282  A    
C214  H193  S    
C174  H74   S    
C26   O71   A    
C191  H125  S    
C119  H46   S    
C101  C221  A    
C272  C281  A    
C27   C258  S    
C217  H202  S    
C36   O99   S    
C54   O118  S    
C199  H151  S    
C202  H155  S    
C150  H286  S    
C147  O130  S    
C131  H232  S    
C103  O133  S    
C150  O133  S    
C263  C277  A    
C215  H197  S    
C185  H105  S    
C4    C268  A    
C105  C106  A    
C181  H93   S    
C5    C269  A    
C17   C248  S    
C40   C75   A    
O1    Zn1   S    
C134  O118  S    
C7    C271  A    
C59   O122  S    
C275  O47   S    
C51   O114  S    
C109  C110  A    
C145  O129  S    
C47   C124  A    
C219  O55   S    
C143  H269  S    
C148  H282  S    
C232  C233  A    
C30   C252  S    
C146  C179  A    
C111  C114  A    
C171  H63   S    
C10   O116  A    
C205  H167  S    
C91   O147  S    
C231  C289  A    
C182  H97   S    
C210  H184  S    
O46   Zn10  S    
C117  H256  S    
C195  O31   S    
C87   C104  A    
C216  H200  S    
C262  O25   S    
C209  O45   S    
C75   O16   S    
C125  H211  S    
O79   Zn6   S    
C69   O132  S    
C273  O36   S    
C139  H253  S    
C126  O109  S    
C183  O19   S    
C50   O113  S    
C53   O117  S    
C165  H47   S    
C207  H174  S    
C60   O123  S    
C48   C113  A    
C228  C252  A    
O67   Zn4   S    
C154  H15   S    
C56   O120  S    
C199  H150  S    
C226  C238  A    
C89   C102  A    
C220  O41   S    
C148  H281  S    
C152  O135  S    
C95   C96   A    
C198  H148  S    
C76   O12   S    
C37   O100  S    
C130  O113  S    
C133  O117  S    
C126  H214  S    
C158  O141  S    
C266  O28   S    
C286  C294  A    
C169  H55   S    
C12   O58   A    
C164  H44   S    
C205  O41   S    
C193  H131  S    
C90   C222  A    
C208  H175  S    
O116  Zn6   S    
C167  H52   S    
C198  O34   S    
C31   O77   A    
C127  H219  S    
C47   C82   A    
C109  C294  A    
C227  C237  A    
C22   O68   A    
C161  H34   S    
C172  O8    S    
C129  H225  S    
C188  H117  S    
C188  O25   S    
C19   O89   A    
C189  H120  S    
C20   O66   A    
C200  H153  S    
C28   C250  S    
C105  C290  A    
C187  H115  S    
C17   O91   A    
C165  O148  S    
C71   C85   A    
C24   O51   S    
C183  H100  S    
C118  O101  S    
C215  H195  S    
C211  O48   S    
C159  H26   S    
C44   C146  A    
C92   O144  S    
C140  H257  S    
C178  H87   S    
C52   O115  S    
C104  O134  S    
C270  C283  A    
C140  H259  S    
O72   Zn2   S    
C31   O88   A    
C218  H207  S    
C70   C86   A    
C260  C291  A    
C20   O90   A    
C159  O142  S    
C97   O141  S    
C143  H268  S    
C199  H149  S    
C16   C282  S    
C216  H199  S    
C236  C247  A    
O72   Zn6   S    
C37   C72   A    
C131  H230  S    
C62   C97   A    
C30   O76   A    
C197  H143  S    
C39   O102  S    
C132  O115  S    
C51   C79   A    
C185  H107  S    
C173  H69   S    
C228  C236  A    
O63   Zn8   S    
C215  H196  S    
C142  H265  S    
C163  H40   S    
C267  C289  A    
C54   C89   A    
C66   C102  A    
C52   C240  A    
C219  H208  S    
C75   C81   A    
C161  H32   S    
C205  H166  S    
C173  O9    S    
C116  O99   S    
C195  H138  S    
C55   O119  S    
O2    Zn7   S    
C210  H182  S    
C263  O26   S    
C203  H159  S    
C1    C253  A    
C137  O120  S    
C209  H181  S    
C108  C289  A    
C120  O103  S    
C274  O37   S    
O83   Zn15  S    
C193  H130  S    
C27   O73   A    
C136  H246  S    
C156  H21   S    
C190  C252  A    
C32   O78   A    
C158  H23   S    
C141  H261  S    
C16   O57   A    
C84   O7    S    
O75   Zn2   S    
C8    O94   A    
C42   C77   A    
C21   C244  S    
C25   C247  S    
C86   O5    S    
C41   O104  S    
C53   C88   A    
C174  H72   S    
C15   O56   A    
C64   O128  S    
O82   Zn9   S    
C144  H270  S    
C122  H146  S    
C59   C234  A    
C21   O67   A    
C132  H236  S    
C36   C222  A    
C64   C228  A    
C88   C103  A    
C9    O105  A    
C12   O35   A    
C117  H267  S    
C155  H17   S    
C138  O121  S    
C27   O84   A    
C122  O106  S    
C136  H243  S    
C194  H134  S    
C138  H252  S    
C111  C296  A    
C11   C278  S    
C141  H260  S    
C145  H273  S    
C219  H210  S    
C29   O75   A    
C22   C245  S    
C127  H217  S    
C233  C248  A    
C154  H12   S    
C110  C295  A    
C172  H67   S    
C189  O26   S    
C63   O126  S    
C176  H81   S    
C69   C224  A    
C113  C212  A    
C107  C288  A    
C203  H161  S    
C204  H163  S    
C230  C250  A    
C106  C291  A    
C1    O39   S    
C129  O112  S    
C121  H124  S    
C271  C284  A    
C214  H194  S    
C183  H98   S    
C180  H89   S    
C93   C98   A    
O83   Zn11  S    
C191  H122  S    
C182  O18   S    
C192  H127  S    
C218  O54   S    
C217  H204  S    
C22   O97   A    
C149  H285  S    
C218  H205  S    
C56   C92   A    
C40   C190  A    
C152  H7    S    
C143  H266  S    
C116  H223  S    
O77   Zn8   S    
C137  H247  S    
C23   O69   A    
C191  O27   S    
C179  C251  A    
C90   C243  A    
C184  H103  S    
C102  O136  S    
C206  H170  S    
C13   C68   A    
C133  H238  S    
C202  H158  S    
C69   C104  A    
C38   C73   A    
