data_mof_unit_7011.cif
_audit_creation_date              2012-12-11T16:26:20-0500
_audit_creation_method            fapswitch 2.2
_symmetry_space_group_name_H-M    P1
_symmetry_Int_Tables_number       1
_space_group_crystal_system       triclinic
_cell_length_a                    14.020068
_cell_length_b                    14.02007
_cell_length_c                    31.94361
_cell_angle_alpha                 90.0
_cell_angle_beta                  90.00002
_cell_angle_gamma                 120.000243
_cell_volume                      5437.68274019

loop_
_atom_site_label
_atom_site_type_symbol
_atom_type_description
_atom_site_fract_x
_atom_site_fract_y
_atom_site_fract_z
_atom_type_partial_charge
C1    C     C_R   0.568017 0.443836 0.810599 0.546724
C2    C     C_R   0.875820 0.431984 0.689401 0.546723
C3    C     C_R   0.556163 0.124180 0.810599 0.546724
C4    C     C_R   0.568016 0.443837 0.689401 0.546725
C5    C     C_R   0.875820 0.431984 0.810599 0.546723
C6    C     C_R   0.556163 0.124180 0.689401 0.546724
C7    C     C_R   0.443837 0.568017 0.310599 0.546725
C8    C     C_R   0.431984 0.875820 0.189401 0.546724
C9    C     C_R   0.124180 0.556163 0.310599 0.546724
C10   C     C_R   0.443837 0.568016 0.189401 0.546725
C11   C     C_R   0.431984 0.875820 0.310599 0.546723
C12   C     C_R   0.124180 0.556163 0.189401 0.546724
C13   C     C_1   0.003178 0.520901 0.018734 0.062590
C14   C     C_1   0.517722 0.996820 0.481266 0.062591
C15   C     C_1   0.479098 0.482276 0.018734 0.062590
C16   C     C_1   0.003181 0.520902 0.481266 0.062589
C17   C     C_1   0.517724 0.996823 0.018734 0.062590
C18   C     C_1   0.479096 0.482277 0.481266 0.062591
C19   C     C_1   0.520901 0.003177 0.518734 0.062591
C20   C     C_1   0.996821 0.517722 0.981266 0.062591
C21   C     C_1   0.482275 0.479098 0.518734 0.062590
C22   C     C_1   0.520902 0.003181 0.981266 0.062589
C23   C     C_1   0.996823 0.517723 0.518734 0.062590
C24   C     C_1   0.482277 0.479098 0.981266 0.062590
C25   C     C_R   0.929824 0.469687 0.851647 -0.063862
C26   C     C_R   0.539863 0.070176 0.648353 -0.063862
C27   C     C_R   0.530313 0.460137 0.851647 -0.063862
C28   C     C_R   0.929824 0.469688 0.648353 -0.063862
C29   C     C_R   0.539863 0.070176 0.851647 -0.063862
C30   C     C_R   0.530312 0.460137 0.648353 -0.063862
C31   C     C_R   0.469687 0.929824 0.351647 -0.063862
C32   C     C_R   0.070176 0.539863 0.148353 -0.063862
C33   C     C_R   0.460137 0.530313 0.351647 -0.063862
C34   C     C_R   0.469688 0.929825 0.148353 -0.063862
C35   C     C_R   0.070176 0.539863 0.351647 -0.063862
C36   C     C_R   0.460137 0.530312 0.148353 -0.063862
C37   C     C_R   0.925208 0.555136 0.872741 -0.140219
C38   C     C_R   0.629927 0.074790 0.627259 -0.140219
C39   C     C_R   0.444862 0.370072 0.872741 -0.140219
C40   C     C_R   0.925208 0.555136 0.627259 -0.140219
C41   C     C_R   0.629928 0.074793 0.872741 -0.140219
C42   C     C_R   0.444862 0.370072 0.627259 -0.140219
C43   C     C_R   0.555136 0.925207 0.372741 -0.140219
C44   C     C_R   0.074791 0.629927 0.127259 -0.140219
C45   C     C_R   0.370072 0.444862 0.372741 -0.140219
C46   C     C_R   0.555137 0.925208 0.127259 -0.140219
C47   C     C_R   0.074793 0.629928 0.372741 -0.140220
C48   C     C_R   0.370071 0.444863 0.127259 -0.140219
C49   C     C_R   0.952887 0.575071 0.915322 0.238962
C50   C     C_R   0.622182 0.047109 0.584678 0.238962
C51   C     C_R   0.424927 0.377816 0.915322 0.238962
C52   C     C_R   0.952888 0.575071 0.584678 0.238962
C53   C     C_R   0.622184 0.047114 0.915322 0.238962
C54   C     C_R   0.424926 0.377816 0.584678 0.238963
C55   C     C_R   0.575071 0.952886 0.415322 0.238962
C56   C     C_R   0.047111 0.622183 0.084678 0.238962
C57   C     C_R   0.377816 0.424926 0.415322 0.238962
C58   C     C_R   0.575072 0.952889 0.084678 0.238962
C59   C     C_R   0.047114 0.622184 0.415322 0.238961
C60   C     C_R   0.377816 0.424927 0.084678 0.238962
C61   C     C_R   0.986991 0.509528 0.936546 0.062760
C62   C     C_R   0.522536 0.013007 0.563454 0.062759
C63   C     C_R   0.490472 0.477462 0.936546 0.062760
C64   C     C_R   0.986993 0.509529 0.563454 0.062759
C65   C     C_R   0.522538 0.013011 0.936546 0.062759
C66   C     C_R   0.490470 0.477463 0.563454 0.062759
C67   C     C_R   0.509528 0.986990 0.436546 0.062760
C68   C     C_R   0.013008 0.522537 0.063454 0.062759
C69   C     C_R   0.477462 0.490472 0.436546 0.062760
C70   C     C_R   0.509529 0.986993 0.063455 0.062760
C71   C     C_R   0.013011 0.522537 0.436546 0.062759
C72   C     C_R   0.477462 0.490471 0.063454 0.062759
C73   C     C_R   0.000780 0.429359 0.914646 0.206081
C74   C     C_R   0.428578 0.999220 0.585354 0.206080
C75   C     C_R   0.570643 0.571421 0.914646 0.206081
C76   C     C_R   0.000782 0.429360 0.585354 0.206081
C77   C     C_R   0.428579 0.999222 0.914646 0.206082
C78   C     C_R   0.570641 0.571421 0.585354 0.206081
C79   C     C_R   0.429359 0.000780 0.414646 0.206081
C80   C     C_R   0.999220 0.428578 0.085354 0.206081
C81   C     C_R   0.571420 0.570644 0.414646 0.206081
C82   C     C_R   0.429360 0.000782 0.085354 0.206081
C83   C     C_R   0.999221 0.428578 0.414646 0.206082
C84   C     C_R   0.571421 0.570641 0.085354 0.206081
C85   C     C_R   0.971444 0.410173 0.872482 -0.071413
C86   C     C_R   0.438729 0.028557 0.627518 -0.071413
C87   C     C_R   0.589829 0.561270 0.872482 -0.071413
C88   C     C_R   0.971445 0.410174 0.627518 -0.071413
C89   C     C_R   0.438729 0.028557 0.872482 -0.071412
C90   C     C_R   0.589827 0.561271 0.627518 -0.071414
C91   C     C_R   0.410174 0.971444 0.372482 -0.071413
C92   C     C_R   0.028557 0.438729 0.127518 -0.071413
C93   C     C_R   0.561270 0.589830 0.372483 -0.071414
C94   C     C_R   0.410174 0.971445 0.127518 -0.071413
C95   C     C_R   0.028557 0.438729 0.372482 -0.071412
C96   C     C_R   0.561271 0.589828 0.127518 -0.071413
Cr1   Cr    Cr6+3 0.504240 0.249200 0.750000 1.029562
Cr2   Cr    Cr6+3 0.744960 0.495760 0.750000 1.029563
Cr3   Cr    Cr6+3 0.750800 0.255040 0.750000 1.029563
Cr4   Cr    Cr6+3 0.249200 0.504240 0.250000 1.029563
Cr5   Cr    Cr6+3 0.495760 0.744960 0.250000 1.029563
Cr6   Cr    Cr6+3 0.255040 0.750800 0.250000 1.029562
H1    H     H_    0.893726 0.602041 0.856900 0.136228
H2    H     H_    0.708313 0.106270 0.643101 0.136228
H3    H     H_    0.397956 0.291685 0.856899 0.136228
H4    H     H_    0.893725 0.602040 0.643100 0.136229
H5    H     H_    0.708315 0.106274 0.856899 0.136229
H6    H     H_    0.397957 0.291685 0.643101 0.136228
H7    H     H_    0.602040 0.893724 0.356900 0.136228
H8    H     H_    0.106272 0.708314 0.143101 0.136229
H9    H     H_    0.291686 0.397955 0.356899 0.136228
H10   H     H_    0.602041 0.893726 0.143100 0.136228
H11   H     H_    0.106275 0.708315 0.356900 0.136229
H12   H     H_    0.291685 0.397957 0.143101 0.136228
H13   H     H_    0.023311 0.368023 0.143446 0.170977
H14   H     H_    0.344714 0.976690 0.356554 0.170977
H15   H     H_    0.631977 0.655289 0.143446 0.170977
H16   H     H_    0.023310 0.368023 0.356554 0.170977
H17   H     H_    0.344714 0.976691 0.143447 0.170977
H18   H     H_    0.631976 0.655292 0.356555 0.170977
H19   H     H_    0.368023 0.023313 0.643446 0.170977
H20   H     H_    0.976690 0.344713 0.856554 0.170977
H21   H     H_    0.655288 0.631977 0.643446 0.170977
H22   H     H_    0.368023 0.023311 0.856554 0.170977
H23   H     H_    0.976692 0.344715 0.643447 0.170977
H24   H     H_    0.655290 0.631977 0.856554 0.170977
O1    O     O_R   0.480350 0.140770 0.796330 -0.515706
O2    O     O_R   0.660420 0.519650 0.703670 -0.515706
O3    O     O_R   0.859230 0.339580 0.796330 -0.515705
O4    O     O_R   0.480350 0.140770 0.703670 -0.515705
O5    O     O_R   0.660420 0.519650 0.796330 -0.515706
O6    O     O_R   0.859230 0.339580 0.703670 -0.515705
O7    O     O_R   0.140770 0.480350 0.296330 -0.515705
O8    O     O_R   0.519650 0.660420 0.203670 -0.515705
O9    O     O_R   0.339580 0.859230 0.296330 -0.515705
O10   O     O_R   0.140770 0.480350 0.203670 -0.515705
O11   O     O_R   0.519650 0.660420 0.296330 -0.515706
O12   O     O_R   0.339580 0.859230 0.203670 -0.515705
O13   O     O_R   0.514930 0.348530 0.793250 -0.494852
O14   O     O_R   0.833600 0.485070 0.706750 -0.494852
O15   O     O_R   0.651470 0.166400 0.793250 -0.494851
O16   O     O_R   0.514930 0.348530 0.706750 -0.494851
O17   O     O_R   0.833600 0.485070 0.793250 -0.494852
O18   O     O_R   0.651470 0.166400 0.706750 -0.494851
O19   O     O_R   0.348530 0.514930 0.293250 -0.494851
O20   O     O_R   0.485070 0.833600 0.206750 -0.494852
O21   O     O_R   0.166400 0.651470 0.293250 -0.494851
O22   O     O_R   0.348530 0.514930 0.206750 -0.494851
O23   O     O_R   0.485070 0.833600 0.293250 -0.494852
O24   O     O_R   0.166400 0.651470 0.206750 -0.494851
O25   O     O_3   0.666667 0.333333 0.750000 -0.238333
O26   O     O_3   0.333333 0.666667 0.250000 -0.238334
O27   O     O_3   0.057719 0.712012 0.062758 -0.632639
H25   H     H_    0.083608 0.775563 0.082093 0.342874
O28   O     O_3   0.654290 0.942276 0.437242 -0.632640
H26   H     H_    0.691951 0.916386 0.417908 0.342876
O29   O     O_3   0.287986 0.345706 0.062758 -0.632640
H27   H     H_    0.224436 0.308044 0.082092 0.342875
O30   O     O_3   0.057724 0.712014 0.437242 -0.632639
H28   H     H_    0.083612 0.775564 0.417908 0.342875
O31   O     O_3   0.654292 0.942279 0.062758 -0.632639
H29   H     H_    0.691953 0.916390 0.082092 0.342875
O32   O     O_3   0.287987 0.345703 0.437241 -0.632640
H30   H     H_    0.224437 0.308040 0.417907 0.342875
O33   O     O_3   0.712012 0.057717 0.562759 -0.632640
H31   H     H_    0.775562 0.083605 0.582093 0.342875
O34   O     O_3   0.942278 0.654291 0.937242 -0.632639
H32   H     H_    0.916389 0.691953 0.917908 0.342875
O35   O     O_3   0.345705 0.287986 0.562758 -0.632638
H33   H     H_    0.308042 0.224436 0.582093 0.342875
O36   O     O_3   0.712014 0.057723 0.937242 -0.632640
H34   H     H_    0.775564 0.083611 0.917908 0.342875
O37   O     O_3   0.942278 0.654291 0.562758 -0.632640
H35   H     H_    0.916388 0.691952 0.582092 0.342875
O38   O     O_3   0.345706 0.287986 0.937242 -0.632640
H36   H     H_    0.308043 0.224436 0.917907 0.342875
O39   O     O_3   0.962687 0.327145 0.066694 -0.665498
H37   H     H_    0.935083 0.327018 0.038187 0.341933
O40   O     O_3   0.364461 0.037315 0.433306 -0.665497
H38   H     H_    0.391939 0.064919 0.461813 0.341932
O41   O     O_3   0.672855 0.635541 0.066694 -0.665497
H39   H     H_    0.672982 0.608063 0.038187 0.341931
O42   O     O_3   0.962687 0.327145 0.433306 -0.665496
H40   H     H_    0.935086 0.327019 0.461813 0.341931
O43   O     O_3   0.364461 0.037317 0.066695 -0.665497
H41   H     H_    0.391940 0.064923 0.038188 0.341929
O44   O     O_3   0.672852 0.635546 0.433307 -0.665498
H42   H     H_    0.672980 0.608068 0.461814 0.341932
O45   O     O_3   0.327145 0.962687 0.566694 -0.665497
H43   H     H_    0.327017 0.935079 0.538188 0.341932
O46   O     O_3   0.037314 0.364460 0.933306 -0.665497
H44   H     H_    0.064919 0.391937 0.961813 0.341931
O47   O     O_3   0.635541 0.672855 0.566694 -0.665497
H45   H     H_    0.608062 0.672982 0.538188 0.341931
O48   O     O_3   0.327145 0.962688 0.933306 -0.665496
H46   H     H_    0.327020 0.935088 0.961814 0.341931
O49   O     O_3   0.037318 0.364462 0.566695 -0.665497
H47   H     H_    0.064922 0.391939 0.538188 0.341930
O50   O     O_3   0.635543 0.672854 0.933306 -0.665497
H48   H     H_    0.608065 0.672981 0.961813 0.341932

loop_
_geom_bond_atom_site_label_1
_geom_bond_atom_site_label_2
_ccdc_geom_bond_type
C68   C80   A    
C44   H8    S    
C39   C51   A    
O36   H34   S    
C40   C52   A    
O33   H31   S    
C82   C94   A    
C46   H10   S    
Cr2   O17   S    
C18   C21   T    
C33   C45   A    
C90   H21   S    
O32   H30   S    
C3    O15   A    
C6    O4    A    
C35   C47   A    
C29   C89   A    
O31   H29   S    
C32   C92   A    
O37   H35   S    
Cr4   O26   S    
C55   O28   S    
C15   C72   S    
C77   C89   A    
O29   H27   S    
C31   C43   A    
Cr3   O6    S    
C48   H12   S    
C84   O41   S    
Cr1   O4    S    
C49   O34   S    
C76   O49   S    
C4    O16   A    
C21   C66   S    
C3    O1    A    
C5    O17   A    
C60   C72   A    
C19   C62   S    
Cr6   O12   S    
C37   C49   A    
C91   H14   S    
C8    O12   A    
C84   C96   A    
C7    O11   A    
C20   C61   S    
C3    C29   S    
C44   C56   A    
Cr6   O9    S    
C38   H2    S    
Cr5   O23   S    
C25   C37   A    
C59   O30   S    
C11   O23   A    
O30   H28   S    
C27   C39   A    
Cr2   O5    S    
C28   C88   A    
C2    O6    A    
C14   C67   S    
C34   C46   A    
C93   H18   S    
C53   C65   A    
C76   C88   A    
C79   C91   A    
C1    O13   A    
Cr1   O1    S    
C1    C27   S    
C18   C69   S    
Cr2   O2    S    
C81   O44   S    
C11   C31   S    
C17   C70   S    
C12   C32   S    
C7    C33   S    
C54   O35   S    
O49   H47   S    
C16   C71   S    
C86   H19   S    
C48   C60   A    
Cr5   O8    S    
C71   C83   A    
Cr2   O25   S    
C95   H16   S    
C64   C76   A    
C66   C78   A    
C8    O20   A    
Cr5   O20   S    
C65   C77   A    
C38   C50   A    
Cr3   O3    S    
C82   O43   S    
C83   O42   S    
O46   H44   S    
O35   H33   S    
C12   O24   A    
C96   H15   S    
C51   C63   A    
C60   O29   S    
C52   C64   A    
O34   H32   S    
C37   H1    S    
C4    O2    A    
C58   C70   A    
C61   C73   A    
O41   H39   S    
Cr3   O25   S    
C9    O21   A    
C78   C90   A    
O48   H46   S    
C73   O46   S    
Cr2   O14   S    
Cr3   O18   S    
C78   O47   S    
C80   C92   A    
C27   C87   A    
O42   H40   S    
C22   C65   S    
C88   H23   S    
C11   O9    A    
Cr6   O21   S    
C74   O45   S    
C81   C93   A    
C94   H17   S    
C36   C96   A    
O38   H36   S    
C57   O32   S    
Cr4   O19   S    
C26   C86   A    
C62   C74   A    
C45   C57   A    
C50   O33   S    
C25   C85   A    
Cr1   O25   S    
C67   C79   A    
C85   H20   S    
C8    C34   S    
C83   C95   A    
C74   C86   A    
C51   O38   S    
C41   C53   A    
C72   C84   A    
Cr6   O24   S    
C5    C25   S    
C75   C87   A    
C23   C64   S    
O47   H45   S    
C24   C63   S    
C31   C91   A    
C50   C62   A    
C79   O40   S    
C6    O18   A    
Cr4   O7    S    
C40   H4    S    
Cr6   O26   S    
C73   C85   A    
C43   C55   A    
C47   H11   S    
C15   C24   T    
Cr5   O11   S    
C41   H5    S    
C13   C20   T    
C29   C41   A    
C14   C19   T    
Cr3   O15   S    
C26   C38   A    
C34   C94   A    
C56   O27   S    
C1    O5    A    
C33   C93   A    
C39   H3    S    
C55   C67   A    
C45   H9    S    
C54   C66   A    
C89   H22   S    
C75   O50   S    
C16   C23   T    
Cr5   O26   S    
C17   C22   T    
C2    O14   A    
C80   O39   S    
C77   O48   S    
O44   H42   S    
C56   C68   A    
C42   C54   A    
C49   C61   A    
O43   H41   S    
C6    C26   S    
C63   C75   A    
Cr4   O22   S    
C5    O3    A    
C10   C36   S    
C36   C48   A    
C87   H24   S    
O45   H43   S    
C70   C82   A    
C92   H13   S    
C4    C30   S    
Cr1   O16   S    
C69   C81   A    
C53   O36   S    
C47   C59   A    
O40   H38   S    
O50   H48   S    
C10   O8    A    
C32   C44   A    
O39   H37   S    
C12   O10   A    
C59   C71   A    
O28   H26   S    
C9    C35   S    
C28   C40   A    
C30   C42   A    
C2    C28   S    
C43   H7    S    
C57   C69   A    
O27   H25   S    
C58   O31   S    
C42   H6    S    
C52   O37   S    
Cr1   O13   S    
C30   C90   A    
C46   C58   A    
Cr4   O10   S    
C10   O22   A    
C35   C95   A    
C7    O19   A    
C13   C68   S    
C9    O7    A    
