data_mof_unit_9530.cif
_audit_creation_date              2012-12-11T15:27:02-0500
_audit_creation_method            fapswitch 2.2
_symmetry_space_group_name_H-M    P1
_symmetry_Int_Tables_number       1
_space_group_crystal_system       triclinic
_cell_length_a                    8.217011
_cell_length_b                    14.916417
_cell_length_c                    19.034528
_cell_angle_alpha                 96.575429
_cell_angle_beta                  94.580815
_cell_angle_gamma                 97.700431
_cell_volume                      2286.0174677

loop_
_atom_site_label
_atom_site_type_symbol
_atom_type_description
_atom_site_fract_x
_atom_site_fract_y
_atom_site_fract_z
_atom_type_partial_charge
Ba1   Ba    Ba6+2 0.161750 0.544670 0.467760 1.674681
Ba2   Ba    Ba6+2 0.648430 0.455320 0.532180 1.695667
C1    C     C_3   0.386169 0.752336 0.211624 -0.172394
C2    C     C_R   0.889544 0.791696 0.515692 0.074936
C3    C     C_R   0.071471 0.233448 0.518542 -0.230170
C4    C     C_3   0.904806 0.790765 0.287028 0.318219
C5    C     C_R   0.166746 0.171333 0.543012 -0.009961
C6    C     C_R   0.105969 0.078487 0.534666 -0.146484
C7    C     C_R   0.946715 0.045128 0.500128 0.032952
C8    C     C_R   0.855219 0.109023 0.469869 0.016039
C9    C     C_R   0.877313 0.950378 0.493375 0.001179
C10   C     C_R   0.716792 0.921520 0.456931 -0.018459
C11   C     C_R   0.632871 0.985532 0.426359 -0.037775
C12   C     C_3   0.475952 0.789879 0.284145 1.039070
C13   C     C_R   0.702418 0.076387 0.430932 -0.029491
C14   C     C_R   0.959688 0.883687 0.523598 -0.123386
C15   C     C_R   0.734205 0.765074 0.478960 -0.282125
C16   C     C_3   0.993662 0.888278 0.296159 -0.304330
C17   C     C_R   0.919528 0.204053 0.479696 0.095425
C18   C     C_R   0.614521 0.543066 0.301217 -0.242382
C19   C     C_R   0.459721 0.493488 0.277205 0.071582
C20   C     C_R   0.403883 0.484762 0.204853 -0.120786
C21   C     C_R   0.504029 0.523367 0.155895 0.007714
C22   C     C_R   0.662952 0.569629 0.180856 -0.135958
C23   C     C_3   0.557807 0.732251 0.634993 0.301482
C24   C     C_R   0.718773 0.578024 0.253106 -0.020164
C25   C     C_R   0.482041 0.581005 0.036757 -0.063837
C26   C     C_R   0.428880 0.568661 0.964281 -0.044781
C27   C     C_R   0.339508 0.485430 0.930632 -0.040088
C28   C     C_3   0.760043 0.349023 0.316532 0.292257
C29   C     C_R   0.304499 0.413220 0.972817 0.429577
C30   C     C_R   0.358127 0.427407 0.045791 -0.083422
C31   C     C_R   0.446866 0.510674 0.078515 -0.014318
C32   C     C_R   0.121975 0.443244 0.825843 0.091625
C33   C     C_R   0.072962 0.437275 0.753147 0.001578
C34   C     C_3   0.594673 0.835307 0.653820 -0.371228
C35   C     C_R   0.340135 0.513906 0.733704 0.041717
C36   C     C_R   0.393941 0.515517 0.805774 -0.097080
C37   C     C_R   0.285563 0.478672 0.852866 0.064333
C38   C     C_R   0.182415 0.471707 0.707498 -0.287186
C39   C     C_3   0.728763 0.326195 0.236207 -0.358526
C40   C     C_3   0.000262 0.671888 0.696557 0.183770
C41   C     C_3   0.920423 0.712759 0.760998 0.229712
C42   C     C_3   0.247654 0.269218 0.372667 0.313087
C43   C     C_3   0.221434 0.166459 0.351047 -0.378263
C44   C     C_3   0.897769 0.211127 0.684824 1.070640
C45   C     C_3   0.928205 0.124898 0.716290 -0.271439
C46   C     C_3   0.417129 0.239229 0.716643 0.306472
C47   C     C_3   0.472413 0.205128 0.785834 -0.233884
C48   C     C_R   0.644350 0.828804 0.451664 -0.013286
F1    F     F_    0.577026 0.869927 0.277994 -0.768424
F2    F     F_    0.786627 0.187176 0.625058 -0.690985
H1    H     H_    0.552494 0.738069 0.300170 -0.349151
H2    H     H_    0.337687 0.285500 0.420612 0.058080
H3    H     H_    0.309074 0.686108 0.214732 0.082925
H4    H     H_    0.128355 0.148028 0.304223 0.134851
H5    H     H_    0.177099 0.130416 0.395117 0.040722
H6    H     H_    0.339491 0.143561 0.337402 0.131555
H7    H     H_    0.477206 0.741285 0.172596 0.039248
H8    H     H_    0.673180 0.706437 0.621302 -0.028189
H9    H     H_    0.464635 0.716831 0.588130 0.074643
H10   H     H_    0.690906 0.853144 0.699515 0.114512
H11   H     H_    0.639733 0.867265 0.607857 0.062397
H12   H     H_    0.616532 0.274819 0.222123 0.139287
H13   H     H_    0.480883 0.862843 0.668013 0.141646
H14   H     H_    0.306108 0.801051 0.193173 0.113180
H15   H     H_    0.905111 0.936698 0.308193 0.119295
H16   H     H_    0.017404 0.243325 0.669335 -0.299369
H17   H     H_    0.810597 0.088685 0.730442 0.102618
H18   H     H_    0.980824 0.078764 0.677012 0.053981
H19   H     H_    0.016681 0.142460 0.764687 0.104798
H20   H     H_    0.286905 0.251280 0.717611 -0.018077
H21   H     H_    0.495917 0.304304 0.712644 0.094479
H22   H     H_    0.376160 0.151481 0.798792 0.126951
H23   H     H_    0.710822 0.388156 0.211377 0.063781
H24   H     H_    0.495324 0.262495 0.829663 0.142313
H25   H     H_    0.853707 0.778865 0.338153 0.010359
H26   H     H_    0.588322 0.175432 0.781147 0.142301
H27   H     H_    0.678852 0.694495 0.475218 0.068757
H28   H     H_    0.512042 0.966139 0.397747 0.115843
H29   H     H_    0.077037 0.900957 0.554919 0.090088
H30   H     H_    0.121421 0.305143 0.525619 0.048157
H31   H     H_    0.187544 0.034399 0.554493 0.081014
H32   H     H_    0.632182 0.120733 0.404146 0.098174
H33   H     H_    0.518219 0.547126 0.825152 0.118275
H34   H     H_    0.836131 0.298405 0.214747 0.142337
H35   H     H_    0.456054 0.625628 0.934515 0.134029
H36   H     H_    0.548804 0.646434 0.060367 0.092615
H37   H     H_    0.803590 0.783067 0.243600 0.068564
H38   H     H_    0.283176 0.446869 0.186850 0.092599
H39   H     H_    0.332697 0.371985 0.077234 0.131782
H40   H     H_    0.032533 0.420042 0.860905 0.141890
H41   H     H_    0.745882 0.595429 0.144007 0.088855
H42   H     H_    0.142330 0.468991 0.651626 0.062371
H43   H     H_    0.658971 0.548292 0.356797 0.061034
H44   H     H_    0.092227 0.898285 0.340943 0.136013
H45   H     H_    0.120838 0.652244 0.714100 0.052252
H46   H     H_    0.049325 0.903159 0.246724 0.128642
H47   H     H_    0.649543 0.372360 0.337574 0.001776
H48   H     H_    0.866794 0.404085 0.329065 0.069172
H49   H     H_    0.233129 0.732302 0.848145 0.333973
H50   H     H_    0.209280 0.166165 0.964419 0.372420
H51   H     H_    0.920834 0.610158 0.669126 0.050228
H52   H     H_    0.956669 0.788015 0.769907 0.056982
H53   H     H_    0.784742 0.699410 0.750680 0.057458
H54   H     H_    0.128644 0.291147 0.384668 -0.006848
O1    O     O_2   0.164990 0.721870 0.541490 -0.442594
O2    O     O_2   0.729026 0.427725 0.746517 -0.465498
O3    O     O_3   0.831220 0.268892 0.735150 -0.630851
O4    O     O_3   0.893010 0.608480 0.539150 -0.501593
O5    O     O_3   0.426680 0.454510 0.415380 -0.495762
O6    O     O_2   0.638220 0.542340 0.670930 -0.473151
O7    O     O_3   0.498126 0.693659 0.693540 -0.634854
O8    O     O_2   0.495033 0.172758 0.528942 -0.425228
O9    O     O_3   0.434033 0.173461 0.659982 -0.565859
O10   O     O_3   0.389100 0.667490 0.413860 -0.470305
O11   O     O_2   0.306899 0.826337 0.465327 -0.490951
O12   O     O_3   0.306346 0.311556 0.315946 -0.629922
O13   O     O_3   0.030751 0.741487 0.653703 -0.660053
O14   O     O_3   0.359541 0.809335 0.331836 -0.596048
O15   O     O_2   0.172070 0.457600 0.329050 -0.463008
O16   O     O_3   0.964370 0.622050 0.377340 -0.469796
O17   O     O_2   0.050952 0.559030 0.251671 -0.476320
O18   O     O_2   0.931923 0.733210 0.903115 -0.264489
O19   O     O_2   0.886693 0.577353 0.842878 -0.298125
O20   O     O_3   0.182334 0.669208 0.852031 -0.545488
O21   O     O_2   0.019032 0.300855 0.953898 -0.284819
O22   O     O_2   0.206964 0.279266 0.861893 -0.386371
O23   O     O_3   0.015629 0.730481 0.267973 -0.581452
O24   O     O_3   0.277573 0.225048 0.983593 -0.508698
O25   O     O_2   0.645300 0.278070 0.458480 -0.456455
O26   O     O_3   0.917280 0.391520 0.460790 -0.503854
O27   O     O_3   0.421200 0.332510 0.586090 -0.492807
O28   O     O_3   0.792219 0.270364 0.345240 -0.642718
O29   O     O_3   0.383620 0.545480 0.584560 -0.479828
O30   O     O_3   0.845920 0.377940 0.622610 -0.448885
P1    P     P_3+3 0.990670 0.707470 0.561860 0.984854
P2    P     P_3+3 0.340140 0.430100 0.338890 0.989501
P3    P     P_3+3 0.935340 0.621623 0.285513 0.972002
P4    P     P_3+3 0.819620 0.292520 0.438080 0.989109
P5    P     P_3+3 0.868497 0.380916 0.714989 1.043146
P6    P     P_3+3 0.427127 0.785759 0.416391 0.990562
P7    P     P_3+3 0.464167 0.574776 0.673186 0.965191
P8    P     P_3+3 0.378994 0.213262 0.579737 1.015517
S1    S     S_3+6 0.977946 0.671262 0.842235 -0.098929
S2    S     S_3+6 0.196927 0.303208 0.939955 -0.115858

loop_
_geom_bond_atom_site_label_1
_geom_bond_atom_site_label_2
_ccdc_geom_bond_type
O1    P1    D    
C44   F2    S    
O24   S2    S    
C6    H31   S    
C16   H44   S    
C48   P6    S    
Ba1   O26   S    
C40   H51   S    
C5    C6    A    
C25   C31   A    
C39   H34   S    
Ba2   O6    S    
C35   C36   A    
O6    P7    D    
C26   C27   A    
C22   C24   A    
O16   P3    S    
C32   C33   A    
C35   C38   A    
C8    C13   A    
O28   P4    S    
C36   C37   A    
C28   H48   S    
C40   O13   S    
C30   H39   S    
O17   P3    D    
C15   H27   S    
C47   H26   S    
Ba1   Ba2   S    
C41   H53   S    
C41   H52   S    
C5    P8    S    
O25   P4    D    
C2    P1    S    
C44   C45   S    
C29   S2    S    
C1    H3    S    
C45   H17   S    
C12   F1    S    
C43   H4    S    
C17   P4    S    
C28   O28   S    
Ba2   O26   S    
C21   C22   A    
C28   C39   S    
C23   H8    S    
C34   H11   S    
C7    C8    A    
O29   P7    S    
C11   H28   S    
C19   C20   A    
C19   P2    S    
C46   H20   S    
C4    O23   S    
C34   H10   S    
O2    P5    D    
O20   S1    S    
Ba2   O25   S    
Ba1   O15   S    
C4    C16   S    
Ba2   O5    S    
Ba2   O27   S    
C36   H33   S    
C32   C37   A    
O13   P1    S    
O14   P6    S    
C24   P3    S    
C40   H45   S    
C3    C5    A    
C34   H13   S    
C6    C7    A    
C4    H25   S    
O21   S2    D    
C21   C31   S    
C16   H15   S    
C28   H47   S    
Ba2   O30   S    
O7    P7    S    
O8    P8    D    
O15   P2    D    
C2    C14   A    
C45   H18   S    
C44   H16   S    
O30   P5    S    
C41   S1    S    
C23   O7    S    
Ba1   O4    S    
C39   H23   S    
C9    C14   A    
C29   C30   A    
O23   P3    S    
C42   O12   S    
C8    C17   A    
C43   H5    S    
C27   C37   S    
C26   H35   S    
H49   O20   S    
C20   H38   S    
C47   H24   S    
C23   H9    S    
C18   C19   A    
C7    C9    A    
C45   H19   S    
C1    C12   S    
C33   P5    S    
C46   O9    S    
O10   P6    S    
C2    C15   A    
C46   C47   S    
Ba1   O10   S    
C18   H43   S    
Ba1   O1    S    
C12   O14   S    
C11   C13   A    
C1    H14   S    
C40   C41   S    
C43   H6    S    
Ba1   P1    S    
C42   C43   S    
O9    P8    S    
Ba2   O4    S    
O27   P8    S    
C35   P7    S    
C47   H22   S    
C46   H21   S    
O4    P1    S    
H50   O24   S    
C38   H42   S    
C15   C48   A    
C10   C48   A    
C9    C10   A    
C13   H32   S    
C3    C17   A    
C42   H54   S    
O26   P4    S    
C4    H37   S    
O18   S1    D    
Ba2   O29   S    
Ba2   P4    S    
C30   C31   A    
O11   P6    D    
C27   C29   A    
O19   S1    D    
C22   H41   S    
Ba1   O5    S    
C3    H30   S    
O22   S2    D    
C18   C24   A    
C14   H29   S    
C33   C38   A    
C25   H36   S    
C32   H40   S    
C23   C34   S    
C42   H2    S    
C12   H1    S    
C10   C11   A    
C44   O3    S    
Ba1   O29   S    
C25   C26   A    
C20   C21   A    
O3    P5    S    
C16   H46   S    
C39   H12   S    
O12   P2    S    
Ba1   P2    S    
Ba1   O16   S    
O5    P2    S    
C1    H7    S    
