data_mof_unit_5810.cif
_audit_creation_date              2012-12-10T18:49:58-0500
_audit_creation_method            fapswitch 2.2
_symmetry_space_group_name_H-M    P1
_symmetry_Int_Tables_number       1
_space_group_crystal_system       triclinic
_cell_length_a                    10.738896
_cell_length_b                    9.894675
_cell_length_c                    10.686367
_cell_angle_alpha                 90.500218
_cell_angle_beta                  91.807864
_cell_angle_gamma                 90.344694
_cell_volume                      1134.87981376

loop_
_atom_site_label
_atom_site_type_symbol
_atom_type_description
_atom_site_fract_x
_atom_site_fract_y
_atom_site_fract_z
_atom_type_partial_charge
C1    C     C_R   0.261823 0.499498 0.517284 0.999084
C2    C     C_3   0.620724 0.526685 0.932720 -0.368488
C3    C     C_R   0.066014 0.373557 0.555412 -0.119052
C4    C     C_R   0.068452 0.620375 0.570970 -0.109707
C5    C     C_R   0.936799 0.374516 0.542759 0.331544
C6    C     C_R   0.938856 0.622201 0.556094 0.344369
C7    C     C_R   0.874827 0.499495 0.530469 -0.172352
C8    C     C_R   0.131489 0.497569 0.551627 -0.281320
C9    C     C_R   0.575781 0.072196 0.582265 0.500074
C10   C     C_R   0.575484 0.930162 0.582454 0.513519
C11   C     C_R   0.421660 0.926901 0.421058 -0.130355
C12   C     C_R   0.420704 0.070291 0.422069 -0.101717
C13   C     C_R   0.492594 0.499470 0.257568 0.912517
C14   C     C_R   0.740921 0.500190 0.506512 0.941744
C15   C     C_R   0.494995 0.500172 0.741649 0.841611
C16   C     C_3   0.389172 0.611895 0.065695 -0.145595
C17   C     C_3   0.447683 0.349224 0.065500 -0.157760
C18   C     C_3   0.399471 0.612101 0.920349 -0.420104
C19   C     C_3   0.434772 0.362648 0.921322 -0.402554
C20   C     C_3   0.618293 0.532123 0.075649 -0.374125
C21   C     C_3   0.484422 0.498277 0.120055 -0.118816
C22   C     C_3   0.488240 0.499891 0.877271 0.060609
H1    H     H_    0.358403 0.871869 0.358288 0.218509
H2    H     H_    0.356614 0.122860 0.360012 0.231056
H3    H     H_    0.307890 0.600226 0.870357 0.243368
H4    H     H_    0.335485 0.357261 0.887771 0.230811
H5    H     H_    0.435829 0.710986 0.887222 0.220547
H6    H     H_    0.479379 0.275027 0.874959 0.233832
H7    H     H_    0.653415 0.631509 0.109120 0.241830
H8    H     H_    0.688594 0.462058 0.116523 0.197570
H9    H     H_    0.657579 0.624413 0.897907 0.197144
H10   H     H_    0.685343 0.446339 0.902030 0.219426
N1    N     N_R   0.499970 0.857200 0.499970 -0.182337
N2    N     N_R   0.499970 0.142800 0.499970 -0.180419
O1    O     O_R   0.316750 0.614620 0.499990 -0.595681
O2    O     O_R   0.316750 0.385380 0.499990 -0.593172
O3    O     O_R   0.499970 0.614670 0.314790 -0.584580
O4    O     O_R   0.499970 0.385330 0.314790 -0.576897
O5    O     O_R   0.683220 0.614710 0.500010 -0.585003
O6    O     O_R   0.683220 0.385290 0.500010 -0.587660
O7    O     O_R   0.500010 0.614660 0.685200 -0.651959
O8    O     O_R   0.500010 0.385340 0.685200 -0.652339
Zn1   Zn    Zn3+2 0.499980 0.653120 0.500000 1.026325
Zn2   Zn    Zn3+2 0.499980 0.346880 0.500000 1.019010
C23   C     C_2   0.413015 0.759918 0.107144 0.926640
O9    O     O_2   0.515059 0.800008 0.145577 -0.612639
O10   O     O_R   0.316706 0.853689 0.091403 -0.744011
H11   H     H_    0.342237 0.948017 0.120033 0.383440
C24   C     C_2   0.548738 0.242101 0.094981 0.944933
O11   O     O_2   0.644839 0.238452 0.036445 -0.598841
O12   O     O_R   0.529368 0.143507 0.185346 -0.793573
H12   H     H_    0.601793 0.078769 0.195076 0.380398
C25   C     C_2   0.255864 0.580881 0.104208 0.957644
O13   O     O_2   0.226222 0.603170 0.212161 -0.587063
O14   O     O_R   0.166736 0.527850 0.018478 -0.790628
H13   H     H_    0.083002 0.511923 0.057235 0.365037
C26   C     C_2   0.324787 0.289156 0.111946 0.922300
O15   O     O_2   0.273388 0.197222 0.052302 -0.578056
O16   O     O_R   0.274152 0.330535 0.224808 -0.783758
H14   H     H_    0.194096 0.280956 0.243677 0.368596
C27   C     C_2   0.130288 0.241997 0.567501 0.958602
O17   O     O_2   0.115357 0.155982 0.485569 -0.598491
O18   O     O_R   0.209465 0.218575 0.671396 -0.780273
H15   H     H_    0.251115 0.127085 0.668020 0.336125
C28   C     C_2   0.136978 0.746869 0.603115 0.953059
O19   O     O_2   0.201754 0.753829 0.699124 -0.630291
O20   O     O_R   0.130655 0.855830 0.521377 -0.725728
H16   H     H_    0.189349 0.931104 0.549644 0.349786
O21   O     O_3   0.870088 0.254330 0.538437 -0.688024
H17   H     H_    0.908943 0.189337 0.597595 0.369963
O22   O     O_3   0.872929 0.741596 0.564509 -0.694626
H18   H     H_    0.918607 0.807635 0.618965 0.370436
O23   O     O_3   0.653656 0.134945 0.669727 -0.693849
H19   H     H_    0.653224 0.232106 0.655059 0.388666
O24   O     O_3   0.652785 0.869595 0.670060 -0.696937
H20   H     H_    0.651103 0.772069 0.655493 0.388655

loop_
_geom_bond_atom_site_label_1
_geom_bond_atom_site_label_2
_ccdc_geom_bond_type
C16   C23   S    
O3    Zn1   S    
C5    O21   S    
C11   C12   A    
O24   H20   S    
O4    Zn2   S    
C16   C21   S    
O12   H12   S    
C11   N1    A    
C7    C14   S    
C1    C8    S    
O1    Zn1   S    
C9    C10   A    
C12   H2    S    
C15   O8    A    
C13   O3    A    
O10   H11   S    
C4    C8    A    
C1    O2    A    
O14   H13   S    
O22   H18   S    
C3    C5    A    
C23   O10   S    
C13   O4    A    
C13   C21   S    
O16   H14   S    
C16   C18   S    
C20   H8    S    
C2    C22   S    
C19   H6    S    
O7    Zn1   S    
C15   O7    A    
C26   O15   D    
C6    C7    A    
C18   H3    S    
O8    Zn2   S    
C27   O18   S    
C4    C28   S    
C4    C6    A    
C17   C19   S    
C14   O6    A    
C9    N2    A    
C28   O19   D    
C10   N1    A    
C20   H7    S    
C25   O14   S    
C3    C8    A    
C27   O17   D    
O21   H17   S    
C26   O16   S    
O2    Zn2   S    
C3    C27   S    
C12   N2    A    
O18   H15   S    
N1    Zn1   S    
C6    O22   S    
C23   O9    D    
O6    Zn2   S    
C19   C22   S    
N2    Zn2   S    
C20   C21   S    
C1    O1    A    
C2    H10   S    
C24   O11   D    
O23   H19   S    
C17   C24   S    
C11   H1    S    
C5    C7    A    
C19   H4    S    
C16   C25   S    
O5    Zn1   S    
C24   O12   S    
C14   O5    A    
C18   C22   S    
C2    C20   S    
C9    O23   S    
C15   C22   S    
C17   C21   S    
C18   H5    S    
O20   H16   S    
C25   O13   D    
C17   C26   S    
C2    H9    S    
C28   O20   S    
C10   O24   S    
