data_mof_unit_7625.cif
_audit_creation_date              2012-12-10T18:31:57-0500
_audit_creation_method            fapswitch 2.2
_symmetry_space_group_name_H-M    P1
_symmetry_Int_Tables_number       1
_space_group_crystal_system       triclinic
_cell_length_a                    10.69844
_cell_length_b                    14.920515
_cell_length_c                    15.214748
_cell_angle_alpha                 82.662157
_cell_angle_beta                  89.454904
_cell_angle_gamma                 103.468205
_cell_volume                      2340.59829523

loop_
_atom_site_label
_atom_site_type_symbol
_atom_type_description
_atom_site_fract_x
_atom_site_fract_y
_atom_site_fract_z
_atom_type_partial_charge
C1    C     C_R   0.483771 0.441955 0.663043 0.866500
C2    C     C_3   0.122705 0.505445 0.493110 0.059534
C3    C     C_3   0.102219 0.602408 0.443378 0.232806
C4    C     C_3   0.065152 0.485366 0.591564 -0.056292
C5    C     C_R   0.495996 0.406114 0.756087 -0.116218
C6    C     C_R   0.559055 0.590964 0.243395 -0.117536
C7    C     C_R   0.482162 0.276235 0.873448 0.224762
C8    C     C_R   0.464159 0.310976 0.785526 -0.204768
C9    C     C_R   0.549969 0.467766 0.813676 -0.272292
C10   C     C_R   0.580877 0.436752 0.899336 0.002973
C11   C     C_R   0.541954 0.339612 0.932736 0.119661
C12   C     C_R   0.741726 0.500695 0.497657 0.895437
C13   C     C_R   0.634455 0.503170 0.955769 0.038220
C14   C     C_R   0.608634 0.477192 0.046916 0.013403
C15   C     C_R   0.583839 0.382194 0.080517 -0.234927
C16   C     C_R   0.560595 0.313244 0.024367 0.195041
C17   C     C_R   0.705651 0.595700 0.925787 0.087960
C18   C     C_R   0.720016 0.663459 0.982892 -0.228610
C19   C     C_R   0.667153 0.641510 0.069909 0.106670
C20   C     C_R   0.611229 0.547032 0.101824 0.060311
C21   C     C_R   0.670797 0.710654 0.126675 0.222666
C22   C     C_R   0.617963 0.684096 0.213638 -0.201735
C23   C     C_R   0.521186 0.557841 0.336883 0.853821
C24   C     C_R   0.551793 0.524534 0.186169 -0.252536
C25   C     C_R   0.680057 0.838078 0.646730 -0.279355
C26   C     C_R   0.655939 0.751068 0.618578 -0.003348
C27   C     C_R   0.522808 0.796946 0.506724 -0.047364
C28   C     C_R   0.552086 0.888676 0.526921 -0.039686
C29   C     C_R   0.621765 0.906184 0.604139 0.122375
C30   C     C_R   0.505754 0.960663 0.477400 0.007854
C31   C     C_R   0.501150 0.040841 0.518352 -0.000117
C32   C     C_R   0.543585 0.045741 0.606907 0.143708
C33   C     C_R   0.620672 0.986429 0.642583 0.078114
C34   C     C_R   0.258752 0.501941 0.495935 0.846072
C35   C     C_R   0.462471 0.955645 0.389138 0.204249
C36   C     C_R   0.390176 0.016670 0.352683 -0.237710
C37   C     C_R   0.386616 0.096317 0.390769 0.074315
C38   C     C_R   0.454440 0.112971 0.468938 -0.003619
C39   C     C_R   0.327448 0.164579 0.347947 0.006718
C40   C     C_R   0.346555 0.249806 0.379723 0.011404
C41   C     C_R   0.482321 0.204269 0.490161 -0.081047
C42   C     C_3   0.901936 0.415646 0.455139 -0.398498
C43   C     C_3   0.046832 0.423260 0.443936 -0.132230
C44   C     C_3   0.953070 0.592140 0.434924 -0.031845
C45   C     C_3   0.927977 0.501876 0.591576 -0.042093
C46   C     C_3   0.878237 0.501696 0.494813 0.029880
H1    H     H_    0.854415 0.408836 0.390767 0.200998
H2    H     H_    0.926813 0.651841 0.461373 0.157386
H3    H     H_    0.498171 0.454283 0.208230 0.167382
H4    H     H_    0.624803 0.735667 0.258566 0.164492
H5    H     H_    0.772881 0.733356 0.957977 0.169474
H6    H     H_    0.420777 0.263588 0.740007 0.167083
H7    H     H_    0.564483 0.541258 0.791740 0.174332
H8    H     H_    0.857352 0.350551 0.499437 0.164899
H9    H     H_    0.588732 0.361083 0.150884 0.155126
H10   H     H_    0.551899 0.226750 0.538447 0.161688
H11   H     H_    0.304180 0.303775 0.347234 0.135517
H12   H     H_    0.349525 0.006879 0.288708 0.150988
H13   H     H_    0.738489 0.849837 0.703759 0.169106
H14   H     H_    0.698121 0.697291 0.651307 0.125556
H15   H     H_    0.456232 0.774888 0.457014 0.137937
H16   H     H_    0.064417 0.355725 0.475321 0.152192
H17   H     H_    0.931728 0.571951 0.611113 0.188530
H18   H     H_    0.058251 0.410166 0.614201 0.173458
N1    N     N_R   0.573860 0.731700 0.552730 -0.097679
N2    N     N_R   0.426060 0.268290 0.447230 -0.121846
O1    O     O_R   0.462770 0.383110 0.605620 -0.608081
O2    O     O_R   0.510160 0.531900 0.639510 -0.616756
O3    O     O_R   0.661510 0.425600 0.483070 -0.618663
O4    O     O_R   0.708900 0.574390 0.516960 -0.636684
O5    O     O_R   0.489840 0.468100 0.360490 -0.621712
O6    O     O_R   0.537230 0.616890 0.394380 -0.621667
O7    O     O_R   0.291100 0.425610 0.483040 -0.637946
O8    O     O_R   0.338490 0.574400 0.516930 -0.618110
Zn1   Zn    Zn3+2 0.468350 0.400660 0.477370 0.920053
Zn2   Zn    Zn3+2 0.531650 0.599340 0.522630 0.920160
C47   C     C_3   0.146256 0.535940 0.662357 -0.864930
H19   H     H_    0.238321 0.514289 0.670407 0.247262
H20   H     H_    0.166217 0.612480 0.647342 0.273306
H21   H     H_    0.094571 0.516361 0.728079 0.236735
N3    N     N_3   0.150369 0.679784 0.495275 -0.491606
H22   H     H_    0.250002 0.701195 0.489199 0.205606
H23   H     H_    0.120410 0.738851 0.467698 0.159892
C48   C     C_3   0.560801 0.215751 0.066049 -0.919498
H24   H     H_    0.600243 0.215097 0.133374 0.235151
H25   H     H_    0.462172 0.171053 0.074881 0.241787
H26   H     H_    0.624845 0.186122 0.026459 0.244819
C49   C     C_3   0.425244 0.173668 0.900456 -0.937080
H27   H     H_    0.374115 0.140080 0.845663 0.234682
H28   H     H_    0.501264 0.136249 0.918385 0.247301
H29   H     H_    0.351570 0.163475 0.954805 0.247745
N4    N     N_3   0.779886 0.620361 0.843409 -0.466851
H30   H     H_    0.788324 0.561685 0.815179 0.198245
H31   H     H_    0.735380 0.662079 0.800031 0.165731
C50   C     C_3   0.731124 0.811997 0.096754 -0.959177
H32   H     H_    0.723430 0.855818 0.149441 0.245121
H33   H     H_    0.834770 0.821216 0.079359 0.243109
H34   H     H_    0.681799 0.837240 0.038082 0.244318
N5    N     N_3   0.688106 0.002315 0.722579 -0.477478
H35   H     H_    0.743621 0.070693 0.714663 0.193189
H36   H     H_    0.621951 0.993311 0.775750 0.195076
C51   C     C_3   0.492123 0.100800 0.670014 -0.963455
H37   H     H_    0.568979 0.160456 0.684830 0.242661
H38   H     H_    0.406981 0.124877 0.645026 0.247924
H39   H     H_    0.456104 0.055508 0.733021 0.244300
C52   C     C_3   0.506534 0.898084 0.325424 -0.962380
H40   H     H_    0.594243 0.875403 0.347176 0.245760
H41   H     H_    0.427474 0.837505 0.315848 0.232832
H42   H     H_    0.533931 0.940658 0.259669 0.247683
N6    N     N_3   0.251856 0.150764 0.271408 -0.479681
H43   H     H_    0.310879 0.142395 0.219427 0.185387
H44   H     H_    0.178889 0.090229 0.286498 0.188448
N7    N     N_3   0.084731 0.435086 0.349243 -0.428178
H45   H     H_    0.182508 0.437226 0.341775 0.201038
H46   H     H_    0.036795 0.375826 0.322522 0.182608
C53   C     C_3   0.907789 0.599556 0.338097 -0.862971
H47   H     H_    0.939769 0.550089 0.299718 0.282017
H48   H     H_    0.801602 0.586110 0.336503 0.227112
H49   H     H_    0.945867 0.671114 0.303535 0.234481
N8    N     N_3   0.169253 0.625055 0.355045 -0.436382
H50   H     H_    0.267473 0.628945 0.361010 0.167188
H51   H     H_    0.163525 0.691678 0.327052 0.178849
C54   C     C_3   0.839642 0.430988 0.662469 -0.936164
H52   H     H_    0.746333 0.449740 0.669956 0.243346
H53   H     H_    0.821888 0.359187 0.645313 0.243677
H54   H     H_    0.883233 0.431635 0.728309 0.251600

loop_
_geom_bond_atom_site_label_1
_geom_bond_atom_site_label_2
_ccdc_geom_bond_type
C12   O3    A    
C50   H32   S    
C48   H26   S    
O6    Zn2   S    
N3    H22   S    
C50   H34   S    
C54   H52   S    
C47   H19   S    
C45   C54   S    
C7    C11   A    
N1    Zn2   S    
O8    Zn2   S    
C30   C35   A    
C1    C5    S    
C28   C29   A    
C19   C21   A    
C48   H25   S    
C36   H12   S    
C30   C31   A    
C54   H53   S    
C52   H40   S    
N2    Zn1   S    
C15   C16   A    
C6    C22   A    
C29   C33   A    
C16   C48   S    
C1    O2    A    
C53   H47   S    
C51   H39   S    
C18   C19   A    
C42   C46   S    
C7    C49   S    
C20   C24   A    
N6    H43   S    
C27   H15   S    
C39   N6    S    
C19   C20   A    
C44   C46   S    
C3    N3    S    
C9    C10   A    
C8    H6    S    
C22   H4    S    
C2    C34   S    
C40   N2    A    
C21   C22   A    
O7    Zn1   S    
C17   N4    S    
N3    H23   S    
N8    H51   S    
C18   H5    S    
C4    C45   S    
C47   H20   S    
C25   C29   A    
C3    C44   S    
C53   H49   S    
C23   O5    A    
C7    C8    A    
C48   H24   S    
C38   C41   A    
C12   C46   S    
C10   C11   A    
C39   C40   A    
C54   H54   S    
C21   C50   S    
C25   C26   A    
C45   C46   S    
C45   H17   S    
C33   N5    S    
C35   C36   A    
C15   H9    S    
C2    C4    S    
C41   H10   S    
C5    C9    A    
C37   C38   A    
C27   N1    A    
C14   C20   A    
C11   C16   A    
C31   C32   A    
C49   H29   S    
C2    C43   S    
C6    C24   A    
N4    H31   S    
C17   C18   A    
C51   H38   S    
C34   O8    A    
N5    H36   S    
C49   H28   S    
O4    Zn2   S    
C32   C51   S    
O1    Zn1   S    
C42   C43   S    
N8    H50   S    
N7    H45   S    
C47   H21   S    
C24   H3    S    
C12   O4    A    
C36   C37   A    
C40   H11   S    
C26   N1    A    
C23   O6    A    
C10   C13   A    
C5    C8    A    
C50   H33   S    
C41   N2    A    
O2    Zn2   S    
C4    H18   S    
C31   C38   A    
C13   C17   A    
C32   C33   A    
C28   C30   A    
C2    C3    S    
C4    C47   S    
C37   C39   A    
C35   C52   S    
N5    H35   S    
C43   N7    S    
O5    Zn1   S    
C52   H41   S    
C6    C23   S    
N4    H30   S    
C1    O1    A    
C53   H48   S    
O3    Zn1   S    
C42   H1    S    
C51   H37   S    
N6    H44   S    
C3    N8    S    
C34   O7    A    
C9    H7    S    
C49   H27   S    
C44   C53   S    
C27   C28   A    
C14   C15   A    
C25   H13   S    
C13   C14   A    
C26   H14   S    
C42   H8    S    
C44   H2    S    
C43   H16   S    
N7    H46   S    
C52   H42   S    
