data_mof_unit_55020.cif
_audit_creation_date              2013-03-05T16:20:27-0500
_audit_creation_method            fapswitch 2.2
_symmetry_space_group_name_H-M    P1
_symmetry_Int_Tables_number       1
_space_group_crystal_system       triclinic
_cell_length_a                    23.289827
_cell_length_b                    30.008093
_cell_length_c                    8.52165
_cell_angle_alpha                 90.0
_cell_angle_beta                  93.593512
_cell_angle_gamma                 89.966692
_cell_volume                      5943.92803377

loop_
_atom_site_label
_atom_site_type_symbol
_atom_site_description
_atom_site_fract_x
_atom_site_fract_y
_atom_site_fract_z
_atom_type_partial_charge
P1    P     P_3+3 0.879620 0.451210 0.061380 0.461030
P2    P     P_3+3 0.879620 0.548790 0.561380 0.461581
P3    P     P_3+3 0.379620 0.951210 0.061380 0.461137
P4    P     P_3+3 0.379620 0.048790 0.561380 0.461230
O1    O     O_2   0.885280 0.436300 0.888260 -0.355919
O2    O     O_2   0.885280 0.563700 0.388260 -0.355034
O3    O     O_2   0.385280 0.936300 0.888260 -0.355839
O4    O     O_2   0.385280 0.063700 0.388260 -0.355061
O5    O     O_3   0.933180 0.477650 0.134870 -0.414704
O6    O     O_3   0.933180 0.522350 0.634870 -0.415318
O7    O     O_3   0.433180 0.977650 0.134870 -0.415181
O8    O     O_3   0.433180 0.022350 0.634870 -0.415924
O9    O     O_3   0.980100 0.397030 0.639600 -0.336383
O10   O     O_3   0.980100 0.602970 0.139600 -0.337622
O11   O     O_3   0.480100 0.897030 0.639600 -0.336268
O12   O     O_3   0.480100 0.102970 0.139600 -0.336407
O13   O     O_2   0.875919 0.373644 0.687140 -0.414762
O14   O     O_2   0.875791 0.626113 0.187062 -0.413965
O15   O     O_2   0.375903 0.873614 0.687191 -0.414403
O16   O     O_2   0.375745 0.126047 0.186324 -0.413487
O17   O     O_3   0.819953 0.486866 0.050281 -0.554694
O18   O     O_3   0.819976 0.513165 0.550317 -0.554511
O19   O     O_3   0.319958 0.986869 0.050255 -0.554518
O20   O     O_3   0.319979 0.013162 0.550318 -0.554456
O21   O     O_3   0.947426 0.306776 0.701458 -0.582522
O22   O     O_3   0.947288 0.692887 0.203336 -0.582148
O23   O     O_3   0.447428 0.806767 0.701392 -0.582601
O24   O     O_3   0.446882 0.192983 0.203741 -0.582564
C1    C     C_3   0.963162 0.232566 0.610792 -0.028097
C2    C     C_3   0.958838 0.767496 0.111652 -0.043152
C3    C     C_3   0.463205 0.732565 0.610703 -0.029239
C4    C     C_3   0.458136 0.267762 0.113357 0.061824
H1    H     H_    0.967383 0.217684 0.730059 0.146973
H2    H     H_    0.965654 0.783157 0.229217 0.141594
H3    H     H_    0.467436 0.717686 0.729976 0.146739
H4    H     H_    0.462692 0.282631 0.232591 0.125605
P5    P     P_3+3 0.120160 0.450850 0.628590 0.500122
P6    P     P_3+3 0.120160 0.549150 0.128590 0.507504
P7    P     P_3+3 0.620160 0.950850 0.628590 0.499425
P8    P     P_3+3 0.620160 0.049150 0.128590 0.508496
P9    P     P_3+3 0.061923 0.350584 0.099673 0.563605
P10   P     P_3+3 0.062011 0.649388 0.599225 0.562784
P11   P     P_3+3 0.561951 0.850584 0.099555 0.563252
P12   P     P_3+3 0.562180 0.149312 0.598440 0.559164
O25   O     O_2   0.114450 0.435960 0.801790 -0.355710
O26   O     O_2   0.114450 0.564040 0.301790 -0.359084
O27   O     O_2   0.614450 0.935960 0.801790 -0.355193
O28   O     O_2   0.614450 0.064040 0.301790 -0.355486
O29   O     O_3   0.019500 0.396970 0.050670 -0.323654
O30   O     O_3   0.019500 0.603030 0.550670 -0.322087
O31   O     O_3   0.519500 0.896970 0.050670 -0.324408
O32   O     O_3   0.519500 0.103030 0.550670 -0.323887
O33   O     O_2   0.114961 0.356673 0.001674 -0.323846
O34   O     O_2   0.114950 0.643200 0.500870 -0.326585
O35   O     O_2   0.614978 0.856689 0.001516 -0.324283
O36   O     O_2   0.614849 0.143100 0.499093 -0.327049
O37   O     O_3   0.185586 0.480208 0.651101 -0.651440
O38   O     O_3   0.185744 0.519828 0.150641 -0.640372
O39   O     O_3   0.685691 0.979973 0.650928 -0.650328
O40   O     O_3   0.685743 0.019917 0.150463 -0.638175
O41   O     O_3   0.028126 0.302760 0.021835 -0.453567
O42   O     O_3   0.028195 0.697250 0.521467 -0.453721
O43   O     O_3   0.528142 0.802751 0.021829 -0.453505
O44   O     O_3   0.528177 0.197192 0.521534 -0.455843
C5    C     C_3   0.976470 0.297562 0.095773 0.446836
C6    C     C_3   0.977345 0.703092 0.598691 0.402020
C7    C     C_3   0.476471 0.797588 0.095741 0.448438
C8    C     C_3   0.477266 0.202810 0.598714 0.410032
H5    H     H_    0.946389 0.325186 0.061641 0.088369
H6    H     H_    0.946946 0.675404 0.568402 0.091449
H7    H     H_    0.446404 0.825214 0.061528 0.088284
H8    H     H_    0.446787 0.175292 0.566843 0.093459
H9    H     H_    0.984947 0.296920 0.225138 0.037074
H10   H     H_    0.986985 0.704560 0.727570 0.046482
H11   H     H_    0.484931 0.796970 0.225112 0.036857
H12   H     H_    0.486754 0.203603 0.727727 0.053779
C9    C     C_3   0.948103 0.253547 0.047029 -0.831250
C10   C     C_3   0.948674 0.746864 0.548650 -0.766146
C11   C     C_3   0.448085 0.753573 0.047084 -0.833732
C12   C     C_3   0.448844 0.246890 0.550782 -0.803009
H13   H     H_    0.925504 0.256684 0.929434 0.233300
H14   H     H_    0.926737 0.743528 0.430354 0.218424
H15   H     H_    0.425547 0.756681 0.929400 0.233514
H16   H     H_    0.424462 0.243363 0.435731 0.224877
H17   H     H_    0.980658 0.226521 0.045643 0.300001
H18   H     H_    0.980950 0.774092 0.548704 0.299730
H19   H     H_    0.480619 0.726527 0.045928 0.300141
H20   H     H_    0.481632 0.273562 0.544060 0.285652
C13   C     C_3   0.186707 0.484630 0.044184 0.530853
C14   C     C_3   0.186696 0.515080 0.543450 0.537557
C15   C     C_3   0.687008 0.985081 0.042705 0.503379
C16   C     C_3   0.687616 0.014249 0.541211 0.536243
H21   H     H_    0.157799 0.492087 0.940060 0.065353
H22   H     H_    0.157277 0.507802 0.440211 0.065729
H23   H     H_    0.657511 0.992341 0.939570 0.064712
H24   H     H_    0.657678 0.007224 0.438735 0.067012
C17   C     C_3   0.245909 0.478667 0.975609 0.100455
C18   C     C_3   0.245600 0.520113 0.473062 0.062857
C19   C     C_3   0.745935 0.980109 0.971946 0.176674
C20   C     C_3   0.746525 0.017778 0.469766 0.047838
H25   H     H_    0.246819 0.446313 0.912494 0.125554
H26   H     H_    0.247421 0.552508 0.410422 0.132753
H27   H     H_    0.747481 0.947624 0.909964 0.113619
H28   H     H_    0.749442 0.050163 0.407651 0.138073
H29   H     H_    0.249625 0.505557 0.888791 0.155631
H30   H     H_    0.247877 0.493239 0.385719 0.142592
H31   H     H_    0.748335 0.006915 0.884170 0.152632
H32   H     H_    0.747578 0.990840 0.382069 0.146338
Ba1   Ba    Ba6+2 0.999920 0.468170 0.845000 1.652903
Ba2   Ba    Ba6+2 0.999920 0.531830 0.345000 1.653861
Ba3   Ba    Ba6+2 0.499920 0.968170 0.845000 1.652422
Ba4   Ba    Ba6+2 0.499920 0.031830 0.345000 1.653233
C21   C     C_3   0.836143 0.528234 0.991312 0.425879
C22   C     C_3   0.836196 0.471776 0.491473 0.429133
C23   C     C_3   0.336151 0.028229 0.991222 0.426826
C24   C     C_3   0.336206 0.971769 0.491509 0.427401
H33   H     H_    0.851414 0.524087 0.871801 0.085783
H34   H     H_    0.851475 0.475893 0.371964 0.085579
H35   H     H_    0.351440 0.024069 0.871737 0.085743
H36   H     H_    0.351496 0.975880 0.372010 0.085775
H37   H     H_    0.870285 0.543823 0.069866 0.136536
H38   H     H_    0.870337 0.456177 0.570096 0.136073
H39   H     H_    0.370286 0.043826 0.069773 0.136595
H40   H     H_    0.370341 0.956174 0.570162 0.136280
C25   C     C_3   0.784056 0.558968 0.982381 -0.909034
C26   C     C_3   0.784126 0.441072 0.482579 -0.914664
C27   C     C_3   0.284060 0.058959 0.982193 -0.910133
C28   C     C_3   0.284136 0.941065 0.482602 -0.911449
H41   H     H_    0.749716 0.544920 0.900625 0.272201
H42   H     H_    0.749781 0.455130 0.400787 0.272453
H43   H     H_    0.249734 0.044900 0.900417 0.272150
H44   H     H_    0.249800 0.955116 0.400768 0.271998
H45   H     H_    0.796126 0.592334 0.939298 0.215744
H46   H     H_    0.796216 0.407693 0.439559 0.216159
H47   H     H_    0.296132 0.092321 0.939083 0.216055
H48   H     H_    0.296232 0.907682 0.439629 0.216041
H49   H     H_    0.767347 0.562809 0.100899 0.270450
H50   H     H_    0.767414 0.437257 0.601097 0.269673
H51   H     H_    0.267332 0.062810 0.100683 0.270251
H52   H     H_    0.267410 0.937260 0.601108 0.270254
H53   H     H_    0.174475 0.668001 0.294732 0.200093
H54   H     H_    0.174562 0.332271 0.794525 0.202500
H55   H     H_    0.674331 0.168213 0.294191 0.200633
H56   H     H_    0.674542 0.832257 0.794549 0.202243
O45   O     O_3   0.066770 0.522240 0.054830 -0.364433
O46   O     O_3   0.066770 0.477760 0.554830 -0.364523
O47   O     O_3   0.566770 0.022240 0.054830 -0.365892
O48   O     O_3   0.566770 0.977760 0.554830 -0.366498
P13   P     P_3+3 0.927921 0.643663 0.102621 0.444362
P14   P     P_3+3 0.928074 0.356272 0.602280 0.444669
P15   P     P_3+3 0.427949 0.143724 0.102468 0.444227
P16   P     P_3+3 0.428063 0.856269 0.602275 0.444806
C29   C     C_3   0.985217 0.281051 0.614516 0.668519
C30   C     C_3   0.983147 0.719663 0.114237 0.684685
C31   C     C_3   0.485227 0.781059 0.614420 0.668740
C32   C     C_3   0.482705 0.220013 0.115377 0.633341
H57   H     H_    0.986828 0.292335 0.491048 -0.086074
H58   H     H_    0.984606 0.708403 0.990793 -0.086107
H59   H     H_    0.486814 0.792344 0.490948 -0.085934
H60   H     H_    0.484271 0.209005 0.991662 -0.057103
H61   H     H_    0.916654 0.232640 0.573394 0.046741
H62   H     H_    0.911674 0.766092 0.084118 0.052884
H63   H     H_    0.416697 0.732618 0.573300 0.047151
H64   H     H_    0.411414 0.266354 0.079148 0.052363
H65   H     H_    0.228413 0.657461 0.541384 0.196995
H66   H     H_    0.228328 0.342454 0.041497 0.196973
H67   H     H_    0.728168 0.157504 0.540987 0.196810
H68   H     H_    0.728362 0.842650 0.041346 0.198597
H69   H     H_    0.915589 0.244327 0.130947 0.198625
H70   H     H_    0.915482 0.755776 0.630990 0.231049
H71   H     H_    0.415518 0.744405 0.130916 0.198447
H72   H     H_    0.417924 0.256889 0.638214 0.230880
C33   C     C_R   0.171391 0.632572 0.043193 -0.248222
C34   C     C_R   0.171492 0.367471 0.542672 -0.260638
C35   C     C_R   0.671568 0.132467 0.043221 -0.248453
C36   C     C_R   0.671486 0.867511 0.542758 -0.264172
H73   H     H_    0.208328 0.622008 0.117265 0.143005
H74   H     H_    0.208499 0.377997 0.616489 0.129298
H75   H     H_    0.708367 0.121930 0.117872 0.145611
H76   H     H_    0.708463 0.878051 0.616658 0.128541
C37   C     C_R   0.125076 0.602443 0.017917 0.313954
C38   C     C_R   0.125166 0.397636 0.517612 0.316321
C39   C     C_R   0.625262 0.102342 0.017598 0.311442
C40   C     C_R   0.625159 0.897660 0.517586 0.318880
C41   C     C_R   0.120280 0.685746 0.873600 -0.221551
C42   C     C_R   0.120065 0.314246 0.374158 -0.225020
C43   C     C_R   0.620823 0.185487 0.872417 -0.217510
C44   C     C_R   0.620152 0.814287 0.374058 -0.224105
H77   H     H_    0.111023 0.718742 0.828775 0.177198
H78   H     H_    0.110714 0.281218 0.329889 0.181477
H79   H     H_    0.611746 0.218399 0.826989 0.172767
H80   H     H_    0.610872 0.781258 0.329669 0.181280
C45   C     C_R   0.086501 0.650715 0.810948 0.127804
C46   C     C_R   0.086294 0.349284 0.311390 0.128347
C47   C     C_R   0.587051 0.150464 0.809792 0.134524
C48   C     C_R   0.586382 0.849326 0.311205 0.128153
C49   C     C_R   0.877186 0.317136 0.323603 -0.369374
C50   C     C_R   0.877042 0.682889 0.823689 -0.375858
C51   C     C_R   0.377088 0.817138 0.323659 -0.369723
C52   C     C_R   0.376949 0.182883 0.823550 -0.372850
H81   H     H_    0.889264 0.284651 0.368004 0.124379
H82   H     H_    0.888889 0.715398 0.868170 0.141440
H83   H     H_    0.389079 0.784649 0.368209 0.124688
H84   H     H_    0.388633 0.215397 0.868179 0.136558
C53   C     C_R   0.905988 0.353859 0.391684 0.203955
C54   C     C_R   0.905946 0.646175 0.891799 0.199251
C55   C     C_R   0.405951 0.853846 0.391676 0.204111
C56   C     C_R   0.405981 0.146221 0.891624 0.195591
C57   C     C_R   0.828794 0.366694 0.136114 -0.303930
C58   C     C_R   0.828744 0.633311 0.636207 -0.298688
C59   C     C_R   0.328748 0.866714 0.136125 -0.302403
C60   C     C_R   0.328688 0.133232 0.636268 -0.301150
H85   H     H_    0.794561 0.375312 0.049962 0.161726
H86   H     H_    0.794513 0.624687 0.550092 0.163422
H87   H     H_    0.294517 0.875352 0.049992 0.163204
H88   H     H_    0.294429 0.124553 0.550313 0.163523
C61   C     C_R   0.871303 0.399253 0.174658 0.292732
C62   C     C_R   0.871303 0.600760 0.674713 0.291198
C63   C     C_R   0.371292 0.899250 0.174636 0.291966
C64   C     C_R   0.371316 0.100744 0.674706 0.291376
C65   C     C_R   0.167129 0.677245 0.984484 0.135783
C66   C     C_R   0.167057 0.322765 0.484432 0.140535
C67   C     C_R   0.667481 0.177082 0.983916 0.134845
C68   C     C_R   0.667111 0.822816 0.484456 0.139492
C69   C     C_R   0.083014 0.611833 0.898609 -0.216978
C70   C     C_R   0.082975 0.388241 0.398679 -0.212178
C71   C     C_R   0.583508 0.111573 0.897374 -0.222419
C72   C     C_R   0.583084 0.888320 0.398316 -0.214593
H89   H     H_    0.051114 0.586991 0.863395 0.142403
H90   H     H_    0.050997 0.413070 0.363671 0.141781
H91   H     H_    0.551827 0.086622 0.861559 0.142524
H92   H     H_    0.551260 0.913226 0.362876 0.141617
C73   C     C_R   0.833216 0.322812 0.202489 0.117686
C74   C     C_R   0.833077 0.677180 0.702613 0.113338
C75   C     C_R   0.333110 0.822839 0.202563 0.117192
C76   C     C_R   0.332980 0.177108 0.702522 0.116119
C77   C     C_R   0.907592 0.393225 0.308161 -0.446426
C78   C     C_R   0.907603 0.606802 0.808215 -0.440735
C79   C     C_R   0.407592 0.893204 0.308109 -0.446499
C80   C     C_R   0.407677 0.106841 0.808071 -0.439595
H93   H     H_    0.934517 0.420292 0.353272 0.146788
H94   H     H_    0.934559 0.579728 0.853321 0.146137
H95   H     H_    0.434550 0.920257 0.353182 0.146864
H96   H     H_    0.434696 0.079797 0.853132 0.146283
C81   C     C_R   0.209791 0.748937 0.773560 -0.159935
C82   C     C_R   0.209333 0.250829 0.273708 -0.160305
C83   C     C_R   0.710246 0.248813 0.773057 -0.176740
C84   C     C_R   0.709620 0.751027 0.273663 -0.157746
C85   C     C_R   0.721213 0.285055 0.678383 -0.093970
C86   C     C_R   0.720730 0.714814 0.178933 -0.059242
C87   C     C_R   0.220862 0.785131 0.678754 -0.064281
C88   C     C_R   0.220357 0.214567 0.179102 -0.064513
C89   C     C_R   0.765122 0.313898 0.724465 -0.097323
C90   C     C_R   0.764820 0.686062 0.224807 -0.105457
C91   C     C_R   0.264869 0.813911 0.724675 -0.104134
C92   C     C_R   0.264460 0.185817 0.224920 -0.104929
C93   C     C_R   0.794517 0.308041 0.869741 -0.159183
C94   C     C_R   0.794285 0.691967 0.369939 -0.164417
C95   C     C_R   0.294293 0.808042 0.869896 -0.162597
C96   C     C_R   0.294014 0.191776 0.369887 -0.164919
C97   C     C_R   0.772419 0.280161 0.985449 0.066158
C98   C     C_R   0.772137 0.719807 0.485740 0.068361
C99   C     C_R   0.272174 0.780212 0.985708 0.067084
C100  C     C_R   0.271933 0.219659 0.485677 0.068206
C101  C     C_R   0.229993 0.747442 0.933862 0.103237
C102  C     C_R   0.229710 0.252429 0.433874 0.103734
C103  C     C_R   0.730328 0.247340 0.933433 0.106711
C104  C     C_R   0.729911 0.752571 0.433900 0.101960
C105  C     C_R   0.793100 0.283822 0.146528 -0.061233
C106  C     C_R   0.792845 0.716136 0.646788 -0.059066
C107  C     C_R   0.292902 0.783884 0.146747 -0.059075
C108  C     C_R   0.292666 0.216003 0.646697 -0.056879
C109  C     C_R   0.773910 0.250210 0.251742 0.111166
C110  C     C_R   0.773591 0.749707 0.752130 0.120046
C111  C     C_R   0.273695 0.750308 0.252072 0.112041
C112  C     C_R   0.273355 0.249522 0.752098 0.119291
C113  C     C_R   0.232582 0.716806 0.199458 0.084342
C114  C     C_R   0.232397 0.283148 0.699420 0.084904
C115  C     C_R   0.732758 0.216751 0.199030 0.083829
C116  C     C_R   0.732537 0.783268 0.699450 0.081594
C117  C     C_R   0.210255 0.714268 0.039288 -0.040876
C118  C     C_R   0.210103 0.285692 0.539242 -0.042994
C119  C     C_R   0.710551 0.214158 0.038786 -0.042480
C120  C     C_R   0.710215 0.785783 0.539289 -0.044806
C121  C     C_R   0.793498 0.248844 0.412612 -0.224959
C122  C     C_R   0.793032 0.750915 0.913096 -0.191435
C123  C     C_R   0.293251 0.749026 0.412960 -0.225956
C124  C     C_R   0.292661 0.250600 0.913151 -0.203111
C125  C     C_R   0.283674 0.712533 0.507549 -0.116473
C126  C     C_R   0.283166 0.287077 0.007926 -0.084408
C127  C     C_R   0.783813 0.212342 0.507065 -0.112198
C128  C     C_R   0.783453 0.787410 0.007739 -0.141735
C129  C     C_R   0.241615 0.682450 0.460126 -0.077240
C130  C     C_R   0.241409 0.317408 0.960263 -0.079633
C131  C     C_R   0.741563 0.182410 0.459681 -0.077405
C132  C     C_R   0.741534 0.817618 0.960142 -0.088461
C133  C     C_R   0.212703 0.687406 0.314181 -0.105502
C134  C     C_R   0.212624 0.312648 0.814080 -0.108475
C135  C     C_R   0.712687 0.187455 0.313743 -0.106668
C136  C     C_R   0.712697 0.812741 0.814084 -0.099822
H97   H     H_    0.187809 0.721874 0.713949 0.136450
H98   H     H_    0.187254 0.277853 0.213991 0.136087
H99   H     H_    0.688500 0.221679 0.713263 0.139333
H100  H     H_    0.687526 0.778057 0.214027 0.137336
H101  H     H_    0.200732 0.787335 0.560953 0.161189
H102  H     H_    0.200124 0.212296 0.061439 0.160659
H103  H     H_    0.701123 0.287240 0.560531 0.161986
H104  H     H_    0.700554 0.712576 0.061196 0.160995
H105  H     H_    0.778794 0.338635 0.642565 0.158895
H106  H     H_    0.778555 0.661342 0.142879 0.159364
H107  H     H_    0.278584 0.838618 0.642717 0.159387
H108  H     H_    0.278147 0.161058 0.143061 0.159481
H109  H     H_    0.834372 0.325799 0.890249 0.179801
H110  H     H_    0.834213 0.674251 0.390296 0.180939
H111  H     H_    0.334187 0.825758 0.890283 0.180559
H112  H     H_    0.333944 0.174054 0.390113 0.180845
H113  H     H_    0.812989 0.276400 0.474485 0.148939
H114  H     H_    0.812422 0.723251 0.974701 0.140412
H115  H     H_    0.312688 0.776636 0.474648 0.148354
H116  H     H_    0.311954 0.222859 0.974572 0.137985
H117  H     H_    0.803324 0.210720 0.625689 0.149497
H118  H     H_    0.802863 0.788909 0.126481 0.145437
H119  H     H_    0.303174 0.710980 0.626197 0.148391
H120  H     H_    0.302527 0.288496 0.126735 0.140681
N1    N     N_R   0.043350 0.284821 0.689063 0.249768
O49   O     O_R   0.071292 0.250473 0.747786 -0.353223
O50   O     O_R   0.066404 0.324073 0.704897 -0.381085
N2    N     N_R   0.041863 0.717616 0.185941 0.249315
O51   O     O_R   0.069449 0.753139 0.235706 -0.355204
O52   O     O_R   0.066615 0.679006 0.203873 -0.381889
N3    N     N_R   0.543363 0.784851 0.688928 0.249843
O53   O     O_R   0.571329 0.750515 0.747656 -0.352735
O54   O     O_R   0.566393 0.824112 0.704736 -0.380818
N4    N     N_R   0.541376 0.217970 0.187391 0.256458
O55   O     O_R   0.568089 0.253231 0.243051 -0.355403
O56   O     O_R   0.566591 0.179454 0.202043 -0.380536
S1    S     S_3+6 0.308923 0.482706 0.106412 0.082943
O57   O     O_2   0.312463 0.528329 0.179004 -0.264992
O58   O     O_2   0.309304 0.447785 0.232703 -0.215889
O59   O     O_3   0.367127 0.474625 0.002650 -0.384597
H121  H     H_    0.375962 0.504195 0.958590 0.402343
S2    S     S_3+6 0.308864 0.514222 0.601844 0.068261
O60   O     O_2   0.360739 0.519872 0.507493 -0.134503
O61   O     O_2   0.310829 0.549228 0.727980 -0.237475
O62   O     O_3   0.311203 0.463067 0.682258 -0.488723
H122  H     H_    0.300528 0.442430 0.594139 0.357453
S3    S     S_3+6 0.809485 0.985611 0.099737 0.065027
O63   O     O_2   0.811020 0.031010 0.174058 -0.257018
O64   O     O_2   0.812630 0.949919 0.223577 -0.260382
O65   O     O_3   0.866829 0.980378 0.990822 -0.398331
H123  H     H_    0.900606 0.985269 0.065345 0.394638
S4    S     S_3+6 0.809867 0.010400 0.597232 0.096820
O66   O     O_2   0.861626 0.014381 0.501440 -0.149240
O67   O     O_2   0.814009 0.045557 0.722816 -0.184417
O68   O     O_3   0.810001 0.959375 0.678431 -0.479887
H124  H     H_    0.803842 0.938574 0.588707 0.353122
S5    S     S_3+6 0.999180 0.197112 0.478775 0.032862
O69   O     O_2   0.043437 0.169602 0.570884 -0.151830
O70   O     O_2   0.028451 0.223641 0.357602 -0.328369
O71   O     O_3   0.950857 0.162682 0.387785 -0.430389
H125  H     H_    0.922032 0.182567 0.333525 0.331419
S6    S     S_3+6 0.989130 0.802999 0.969051 0.021047
O72   O     O_2   0.018355 0.841930 0.051274 -0.182149
O73   O     O_2   0.032404 0.778385 0.878265 -0.280950
O74   O     O_3   0.936231 0.821955 0.842986 -0.497272
H126  H     H_    0.909040 0.837350 0.909659 0.360615
S7    S     S_3+6 0.499253 0.697131 0.478687 0.033392
O75   O     O_2   0.543496 0.669613 0.570817 -0.151260
O76   O     O_2   0.528548 0.723679 0.357607 -0.328205
O77   O     O_3   0.450950 0.662708 0.387572 -0.429380
H127  H     H_    0.422140 0.682597 0.333271 0.330990
S8    S     S_3+6 0.491224 0.304257 0.979093 0.015106
O78   O     O_2   0.444996 0.327846 0.879583 -0.236894
O79   O     O_2   0.526943 0.338155 0.071381 -0.186800
O80   O     O_3   0.533610 0.275825 0.861843 -0.585108
H128  H     H_    0.552266 0.298902 0.799272 0.383374
N5    N     N_R   0.166946 0.444612 0.120309 0.218972
O81   O     O_R   0.202458 0.413924 0.173479 -0.448362
O82   O     O_R   0.114522 0.444234 0.162572 -0.392361
N6    N     N_R   0.167967 0.555479 0.619083 0.223078
O83   O     O_R   0.204361 0.585396 0.673322 -0.438248
O84   O     O_R   0.115692 0.556473 0.662379 -0.393263
N7    N     N_R   0.668483 0.944607 0.118261 0.218986
O85   O     O_R   0.705112 0.914999 0.173821 -0.450901
O86   O     O_R   0.616124 0.943389 0.160876 -0.391508
N8    N     N_R   0.670438 0.055337 0.615227 0.221405
O87   O     O_R   0.708090 0.084224 0.670309 -0.440452
O88   O     O_R   0.618271 0.057545 0.658924 -0.393744

loop_
_geom_bond_atom_site_label_1
_geom_bond_atom_site_label_2
_geom_bond_distance
_ccdc_geom_bond_type
C19   H27   1.110367 S    
C48   C72   1.390409 A    
C85   C89   1.378330 A    
S5    O69   1.502516 D    
C50   C54   1.397848 A    
C109  C121  1.417993 A    
C106  C110  1.439339 A    
P16   C55   1.837242 S    
C34   C66   1.431956 A    
P9    O41   1.747843 S    
C96   C100  1.414668 A    
C111  C123  1.417870 A    
C11   H19   1.110463 S    
S1    O57   1.502516 D    
C101  C117  1.435868 A    
P12   O44   1.747752 S    
O11   Ba3   2.780994 S    
P6    C37   1.863813 S    
C93   C97   1.414637 A    
C35   C39   1.414053 A    
C130  C134  1.384591 A    
C95   C99   1.414578 A    
O25   Ba1   2.881822 S    
C127  H117  1.083096 S    
C75   C107  1.554036 S    
C1    H1    1.108829 S    
C80   H96   1.082181 S    
S8    O78   1.504657 D    
C36   C40   1.413674 A    
C63   C79   1.385882 A    
P2    O18   1.751183 S    
C123  C125  1.386186 A    
C115  C119  1.431701 A    
P4    O8    1.574368 S    
Ba2   O45   3.017167 S    
P5    Ba1   3.486956 S    
C12   H16   1.106873 S    
C17   H29   1.101845 S    
P7    Ba3   3.486956 S    
C52   C56   1.397845 A    
C41   C65   1.420859 A    
C17   S1    1.790562 S    
P9    O29   1.742064 S    
C84   C86   1.387559 A    
C74   C106  1.553606 S    
C91   C95   1.387678 A    
C81   C101  1.417339 A    
C23   H39   1.110353 S    
O37   C14   1.392916 S    
P11   O43   1.747859 S    
C7    C11   1.523221 S    
O59   H121  0.990250 S    
C39   C71   1.395279 A    
C2    H2    1.109013 S    
S2    O60   1.502284 D    
C131  C135  1.384513 A    
C60   C64   1.414736 A    
C37   C69   1.395549 A    
C18   H26   1.111136 S    
C125  C129  1.374455 A    
C52   C76   1.417804 A    
C42   H78   1.077964 S    
N8    O88   1.294506 A    
P11   C48   1.857287 S    
C51   C75   1.417935 A    
C10   H14   1.105786 S    
O68   H124  0.990533 S    
C32   H60   1.107565 S    
C8    H8    1.111788 S    
S4    O66   1.502426 D    
C54   C78   1.381375 A    
S5    O71   1.681452 S    
O26   Ba2   2.882860 S    
C116  C136  1.416386 A    
C90   H106  1.080614 S    
C40   C72   1.395452 A    
P5    O25   1.555775 D    
N7    O85   1.299936 A    
S1    O59   1.681679 S    
P7    O27   1.555775 D    
O5    Ba2   2.814225 S    
C99   C101  1.440164 A    
P8    O47   1.580036 S    
C83   H99   1.071104 S    
O7    Ba4   2.814225 S    
C84   H100  1.071319 S    
O22   P13   1.753341 S    
Ba1   O45   2.812097 S    
S2    O62   1.680541 S    
P13   C54   1.838445 S    
O80   H128  0.990983 S    
C94   H110  1.075474 S    
C30   H58   1.107413 S    
C18   H30   1.100935 S    
S8    O80   1.680287 S    
C47   C71   1.390551 A    
C57   C61   1.415278 A    
O4    Ba4   2.880891 S    
C45   C69   1.390589 A    
C12   H20   1.110495 S    
Ba3   O48   3.017340 S    
C6    H6    1.111746 S    
O27   Ba3   2.881822 S    
O10   P13   1.737102 S    
C59   C75   1.434228 A    
O12   P15   1.738117 S    
C128  H118  1.083040 S    
O65   H123  0.990543 S    
O38   C13   1.393418 S    
C27   H43   1.110534 S    
C29   N1    1.463472 S    
O41   C5    1.401396 S    
C2    C30   1.542369 S    
C26   H46   1.108855 S    
P2    C62   1.850811 S    
C35   C67   1.432014 A    
C64   C80   1.386282 A    
C79   H95   1.082172 S    
O74   H126  0.990966 S    
P5    O37   1.760599 S    
N6    O83   1.299908 A    
C71   H91   1.081936 S    
O23   P16   1.753535 S    
P8    O40   1.760686 S    
Ba3   Ba4   4.669466 S    
O30   Ba2   2.783099 S    
C34   C38   1.413881 A    
O77   H127  0.990540 S    
C1    S5    1.794008 S    
P8    Ba4   3.487439 S    
C68   C120  1.549524 S    
O1    Ba1   2.881921 S    
O44   C8    1.401566 S    
C22   C26   1.521539 S    
S6    O72   1.503379 D    
O32   Ba4   2.783099 S    
C6    H10   1.107990 S    
S4    O68   1.680180 S    
C10   H70   1.108689 S    
C115  C135  1.415870 A    
O6    Ba1   2.813181 S    
N1    O50   1.298298 A    
O9    Ba1   2.780994 S    
C4    C32   1.542281 S    
C14   N6    1.452572 S    
C50   H82   1.076415 S    
C110  C122  1.417752 A    
C33   H73   1.081921 S    
S7    O77   1.681459 S    
P10   O42   1.747974 S    
C97   C105  1.430191 A    
P7    C40   1.862688 S    
C87   H101  1.082989 S    
P8    C39   1.863035 S    
C83   C103  1.417160 A    
C102  C118  1.435946 A    
H53   C133  1.068318 S    
C9    H17   1.110466 S    
C129  C133  1.384642 A    
C94   C98   1.414617 A    
C13   N5    1.453524 S    
O71   H125  0.990535 S    
C60   C76   1.433663 A    
H56   C136  1.068258 S    
C20   H32   1.102180 S    
C62   C78   1.386176 A    
O42   C6    1.401348 S    
C31   H59   1.108166 S    
C128  C132  1.374303 A    
P3    O7    1.575100 S    
O17   C21   1.399986 S    
P3    Ba3   3.486861 S    
C49   C73   1.417821 A    
N4    O55   1.302062 A    
H65   C129  1.078579 S    
C70   H90   1.081810 S    
C24   H36   1.106594 S    
C124  C126  1.386178 A    
P10   C45   1.858264 S    
C25   H41   1.110534 S    
C91   H107  1.080631 S    
C92   H108  1.080662 S    
C52   H84   1.076107 S    
P9    O33   1.544737 D    
P10   O30   1.742680 S    
C21   H33   1.106584 S    
C100  C102  1.439914 A    
O28   Ba4   2.882860 S    
O20   C24   1.399997 S    
C23   H35   1.106577 S    
C113  C133  1.416217 A    
C7    H11   1.107859 S    
C61   C77   1.385858 A    
C125  H119  1.083099 S    
P11   O35   1.544794 D    
O10   Ba2   2.780581 S    
C36   C68   1.431724 A    
C126  C130  1.374257 A    
C42   C46   1.398749 A    
N2    O51   1.302120 A    
C41   H77   1.078089 S    
C8    H12   1.107989 S    
C59   C63   1.415284 A    
C121  C127  1.386217 A    
C114  C134  1.416470 A    
Ba4   O47   3.017167 S    
C122  C128  1.386302 A    
C44   H80   1.078012 S    
C65   C117  1.550411 S    
C28   H52   1.110845 S    
C2    S6    1.793811 S    
S3    O65   1.680748 S    
C43   C67   1.420376 A    
C4    H64   1.109570 S    
S8    O79   1.504754 D    
C42   C66   1.420435 A    
N5    O82   1.294494 A    
C15   H23   1.102712 S    
C89   C93   1.387737 A    
C36   H76   1.081951 S    
C21   H37   1.110376 S    
O24   P15   1.754216 S    
S5    O70   1.501197 D    
C15   C19   1.540403 S    
C82   C102  1.417484 A    
C95   H111  1.075361 S    
C86   C90   1.378527 A    
C16   N8    1.452308 S    
C49   C53   1.397492 A    
O13   P14   1.542575 D    
C66   C118  1.549453 S    
C33   C65   1.432073 A    
C18   S2    1.789852 S    
H55   C135  1.068227 S    
C85   H103  1.082987 S    
C86   H104  1.082996 S    
P1    O1    1.555085 D    
O29   Ba1   2.782692 S    
C27   H47   1.108845 S    
O9    P14   1.737411 S    
P3    O3    1.555085 D    
C28   H48   1.108854 S    
C3    H63   1.109757 S    
P4    O20   1.751185 S    
S2    O61   1.501605 D    
C26   H42   1.110540 S    
C81   H97   1.071242 S    
C11   H71   1.108826 S    
O16   P15   1.542676 D    
P1    Ba1   3.486861 S    
P6    O38   1.762133 S    
P3    O19   1.751157 S    
S7    O75   1.502521 D    
C19   S3    1.789405 S    
P4    C64   1.850317 S    
S4    O67   1.501598 D    
P7    O48   1.579298 S    
P5    O46   1.579298 S    
P6    Ba2   3.487439 S    
C30   N2    1.463669 S    
C34   H74   1.081967 S    
C55   C79   1.380917 A    
C81   C87   1.387549 A    
C33   C37   1.414004 A    
C100  C108  1.430003 A    
C51   H83   1.076571 S    
O11   P16   1.737665 S    
S1    O58   1.501721 D    
C14   H22   1.102601 S    
C67   C119  1.550857 S    
C83   C85   1.387456 A    
O23   C31   1.414353 S    
C6    C10   1.521952 S    
C121  H113  1.066887 S    
O21   C29   1.414383 S    
C123  H115  1.066934 S    
C5    C9    1.523227 S    
C124  H116  1.067197 S    
C126  H120  1.083046 S    
S3    O63   1.501861 D    
C38   C70   1.395593 A    
C25   H49   1.110846 S    
C76   C108  1.553326 S    
C69   H89   1.081856 S    
N3    O53   1.301801 A    
P9    C46   1.857513 S    
Ba3   O47   2.812097 S    
C98   C106  1.430100 A    
C32   N4    1.463656 S    
P12   O36   1.544707 D    
C87   C91   1.378467 A    
C103  C119  1.435990 A    
C108  C112  1.439057 A    
P7    O39   1.759084 S    
C96   H112  1.075493 S    
P1    O5    1.575100 S    
S7    O76   1.501217 D    
C53   C77   1.380891 A    
C15   N7    1.453013 S    
C3    H3    1.108845 S    
C4    H4    1.108725 S    
C72   H92   1.081869 S    
O12   Ba4   2.780581 S    
N6    O84   1.294437 A    
C112  C124  1.417552 A    
H66   C130  1.078458 S    
C113  C117  1.431869 A    
P2    Ba2   3.486384 S    
P12   C47   1.857360 S    
C3    S7    1.794016 S    
C24   H40   1.110424 S    
C3    C31   1.542895 S    
C77   H93   1.082169 S    
C19   H31   1.102252 S    
C88   H102  1.082999 S    
C105  C109  1.439340 A    
C46   C70   1.390319 A    
N8    O87   1.300008 A    
Ba1   Ba2   4.669466 S    
P10   O34   1.544787 D    
C11   H15   1.106300 S    
P11   O31   1.742212 S    
S6    O73   1.502228 D    
C5    H5    1.111913 S    
P5    C38   1.863201 S    
O3    Ba3   2.881921 S    
C7    H7    1.111929 S    
O39   C16   1.392634 S    
C58   C74   1.434033 A    
C29   H57   1.108170 S    
N1    O49   1.301801 A    
C57   H85   1.080719 S    
C132  C136  1.384547 A    
C20   S4    1.789960 S    
C82   H98   1.071310 S    
P3    C63   1.850428 S    
P1    C61   1.850407 S    
S6    O74   1.681911 S    
C8    C12   1.523084 S    
C59   H87   1.080716 S    
P1    O17   1.751178 S    
C127  C131  1.374508 A    
Ba1   O46   3.017340 S    
C16   H24   1.103200 S    
P4    O4    1.555128 D    
C56   C80   1.381491 A    
C23   C27   1.521549 S    
C82   C88   1.387650 A    
C4    S8    1.792695 S    
C107  C111  1.439344 A    
C109  C115  1.440702 A    
C104  C120  1.435739 A    
C110  C116  1.440502 A    
C111  C113  1.440772 A    
C97   C103  1.440168 A    
C73   C105  1.553921 S    
N4    O56   1.298584 A    
C21   C25   1.521546 S    
C90   C94   1.387680 A    
C92   C96   1.387595 A    
C5    H9    1.107859 S    
P8    O28   1.555729 D    
C20   H28   1.110757 S    
C60   H88   1.080726 S    
C49   H81   1.076536 S    
C98   C104  1.439913 A    
C9    H13   1.106305 S    
P15   C56   1.838585 S    
O14   P13   1.542541 D    
C43   H79   1.076784 S    
C88   C92   1.378573 A    
C10   H18   1.110551 S    
P4    Ba4   3.486384 S    
C13   H21   1.102554 S    
O2    Ba2   2.880891 S    
P2    O2    1.555128 D    
C27   H51   1.110845 S    
C28   H44   1.110540 S    
H67   C131  1.078591 S    
O43   C7    1.401463 S    
H68   C132  1.078671 S    
P6    O26   1.555729 D    
C89   H105  1.080579 S    
C1    H61   1.109738 S    
N2    O52   1.298570 A    
C50   C74   1.417779 A    
C35   H75   1.081898 S    
C58   H86   1.080718 S    
Ba4   O48   2.811053 S    
C13   C17   1.541212 S    
O21   P14   1.753546 S    
N7    O86   1.294520 A    
P6    O45   1.580036 S    
C93   H109  1.075321 S    
S3    O64   1.502139 D    
O18   C22   1.399980 S    
H54   C134  1.068251 S    
C51   C55   1.397589 A    
O15   P16   1.542645 D    
N3    O54   1.298294 A    
N5    O81   1.299798 A    
C22   H34   1.106589 S    
C31   N3    1.463477 S    
C44   C68   1.420567 A    
C112  C114  1.440433 A    
C122  H114  1.067018 S    
C114  C118  1.431682 A    
O22   C30   1.414151 S    
P2    O6    1.574368 S    
C16   C20   1.539184 S    
C1    C29   1.542911 S    
O40   C15   1.392926 S    
C25   H45   1.108859 S    
C26   H50   1.110846 S    
O31   Ba3   2.782692 S    
C43   C47   1.398706 A    
C116  C120  1.431696 A    
P14   C53   1.837079 S    
C41   C45   1.399035 A    
C84   C104  1.417445 A    
C2    H62   1.109562 S    
C78   H94   1.082173 S    
C58   C62   1.415041 A    
Ba2   O46   2.811053 S    
P12   O32   1.741698 S    
C99   C107  1.430194 A    
C57   C73   1.434247 A    
O19   C23   1.399991 S    
C22   H38   1.110422 S    
C44   C48   1.399019 A    
C9    H69   1.108822 S    
C24   C28   1.521539 S    
O24   C32   1.414412 S    
C12   H72   1.109379 S    
O62   H122  0.992954 S    
C14   C18   1.538828 S    
O8    Ba3   2.813181 S    
C17   H25   1.110734 S    
