data_mof_unit_43709.cif
_audit_creation_date              2013-03-05T15:46:00-0500
_audit_creation_method            fapswitch 2.2
_symmetry_space_group_name_H-M    P1
_symmetry_Int_Tables_number       1
_space_group_crystal_system       triclinic
_cell_length_a                    15.239639
_cell_length_b                    14.959831
_cell_length_c                    10.188804
_cell_angle_alpha                 90.454665
_cell_angle_beta                  85.599139
_cell_angle_gamma                 91.600151
_cell_volume                      2315.0772334

loop_
_atom_site_label
_atom_site_type_symbol
_atom_site_description
_atom_site_fract_x
_atom_site_fract_y
_atom_site_fract_z
_atom_type_partial_charge
O1    O     O_R   0.398960 0.091100 0.433300 -0.610934
O2    O     O_R   0.601040 0.908900 0.566700 -0.615520
O3    O     O_R   0.601040 0.091100 0.566700 -0.609449
O4    O     O_R   0.398960 0.908900 0.433300 -0.609070
O5    O     O_R   0.898960 0.591100 0.433300 -0.610932
O6    O     O_R   0.101040 0.408900 0.566700 -0.615524
O7    O     O_R   0.101040 0.591100 0.566700 -0.609448
O8    O     O_R   0.898960 0.408900 0.433300 -0.609080
O9    O     O_R   0.430710 0.091090 0.646210 -0.612595
O10   O     O_R   0.569290 0.908910 0.353790 -0.604312
O11   O     O_R   0.569290 0.091090 0.353790 -0.611436
O12   O     O_R   0.430710 0.908910 0.646210 -0.603656
O13   O     O_R   0.930710 0.591090 0.646210 -0.612587
O14   O     O_R   0.069290 0.408910 0.353790 -0.604318
O15   O     O_R   0.069290 0.591090 0.353790 -0.611437
O16   O     O_R   0.930710 0.408910 0.646210 -0.603654
C1    C     C_R   0.383722 0.117579 0.551801 0.891953
C2    C     C_R   0.612930 0.881006 0.447958 0.937717
C3    C     C_R   0.610153 0.124665 0.450939 0.922231
C4    C     C_R   0.385067 0.879932 0.552311 0.908407
C5    C     C_R   0.883721 0.617578 0.551801 0.891958
C6    C     C_R   0.112931 0.381008 0.447957 0.937717
C7    C     C_R   0.110157 0.624660 0.450936 0.922231
C8    C     C_R   0.885068 0.379930 0.552310 0.908404
C9    C     C_2   0.490043 0.009090 0.928410 -0.029171
C10   C     C_2   0.509594 0.013598 0.071473 -0.021028
C11   C     C_2   0.990043 0.509088 0.928410 -0.029171
C12   C     C_2   0.009594 0.513596 0.071473 -0.021027
Zn1   Zn    Zn3+2 0.478810 0.000000 0.357840 0.935486
Zn2   Zn    Zn3+2 0.521190 0.000000 0.642160 0.930167
Zn3   Zn    Zn3+2 0.978810 0.500000 0.357840 0.935487
Zn4   Zn    Zn3+2 0.021190 0.500000 0.642160 0.930173
N1    N     N_2   0.549450 0.000000 0.831550 -0.050891
N2    N     N_2   0.450550 0.000000 0.168450 -0.044429
N3    N     N_2   0.049450 0.500000 0.831550 -0.050891
N4    N     N_2   0.950550 0.500000 0.168450 -0.044435
C13   C     C_2   0.311265 0.817081 0.581144 0.007063
C14   C     C_2   0.664248 0.206689 0.437438 -0.011081
C15   C     C_2   0.679312 0.816402 0.422337 0.013426
C16   C     C_2   0.306801 0.174350 0.574278 -0.024848
C17   C     C_2   0.811271 0.317074 0.581139 0.007097
C18   C     C_2   0.164261 0.706675 0.437425 -0.011049
C19   C     C_2   0.179318 0.316411 0.422336 0.013439
C20   C     C_2   0.806798 0.674347 0.574282 -0.024844
C21   C     C_2   0.230257 0.836677 0.544277 0.215474
C22   C     C_2   0.661910 0.266527 0.539627 0.220629
C23   C     C_2   0.675621 0.741753 0.496897 0.208596
C24   C     C_2   0.247237 0.180162 0.479658 0.230505
C25   C     C_2   0.730254 0.336679 0.544316 0.215481
C26   C     C_2   0.161914 0.766527 0.539594 0.220621
C27   C     C_2   0.175628 0.241760 0.496887 0.208601
C28   C     C_2   0.747227 0.680151 0.479671 0.230518
H1    H     H_    0.576303 0.028618 0.096339 0.139374
H2    H     H_    0.422449 0.012944 0.903250 0.144570
H3    H     H_    0.076304 0.528614 0.096339 0.139375
H4    H     H_    0.922449 0.512941 0.903250 0.144571
C29   C     C_3   0.362562 0.969513 0.141038 -0.667366
H5    H     H_    0.327472 0.023750 0.094902 0.184380
H6    H     H_    0.365030 0.908887 0.077150 0.196669
H7    H     H_    0.324719 0.950600 0.233898 0.237416
C30   C     C_3   0.641708 0.996911 0.856109 -0.654973
H8    H     H_    0.664196 0.061388 0.898822 0.180127
H9    H     H_    0.653316 0.940319 0.922088 0.191153
H10   H     H_    0.681230 0.986439 0.761575 0.239490
C31   C     C_3   0.862560 0.469516 0.141039 -0.667353
H11   H     H_    0.827473 0.523753 0.094901 0.184376
H12   H     H_    0.865026 0.408888 0.077155 0.196668
H13   H     H_    0.824716 0.450605 0.233900 0.237433
C32   C     C_3   0.141708 0.496913 0.856109 -0.654958
H14   H     H_    0.164195 0.561391 0.898821 0.180133
H15   H     H_    0.153318 0.440322 0.922087 0.191147
H16   H     H_    0.181230 0.486442 0.761574 0.239487
C33   C     C_3   0.591318 0.265182 0.653240 -0.878698
H17   H     H_    0.592464 0.328603 0.710488 0.226863
H18   H     H_    0.525056 0.257091 0.615680 0.232256
H19   H     H_    0.602506 0.211111 0.723421 0.262394
C34   C     C_3   0.203757 0.929051 0.509691 -0.939476
H20   H     H_    0.140790 0.945882 0.565131 0.244638
H21   H     H_    0.252650 0.980656 0.536523 0.228953
H22   H     H_    0.193510 0.930459 0.403183 0.237462
C35   C     C_3   0.251865 0.134245 0.345168 -0.874792
H23   H     H_    0.191965 0.145640 0.292412 0.227741
H24   H     H_    0.309094 0.160499 0.281633 0.259639
H25   H     H_    0.256092 0.061781 0.353417 0.248159
C36   C     C_3   0.596147 0.713983 0.587356 -0.937461
H26   H     H_    0.602887 0.645073 0.624550 0.242765
H27   H     H_    0.588775 0.759436 0.673810 0.265149
H28   H     H_    0.535907 0.714600 0.532655 0.228540
C37   C     C_3   0.091304 0.765206 0.653179 -0.878762
H29   H     H_    0.092447 0.828638 0.710403 0.226882
H30   H     H_    0.025049 0.757116 0.615594 0.232244
H31   H     H_    0.102471 0.711144 0.723385 0.262406
C38   C     C_3   0.703739 0.429066 0.509825 -0.939574
H32   H     H_    0.640827 0.445902 0.565402 0.244637
H33   H     H_    0.752668 0.480657 0.536562 0.228959
H34   H     H_    0.693388 0.430499 0.403358 0.237503
C39   C     C_3   0.751845 0.634219 0.345193 -0.874816
H35   H     H_    0.691939 0.645606 0.292447 0.227745
H36   H     H_    0.809068 0.660470 0.281641 0.259644
H37   H     H_    0.756079 0.561755 0.353454 0.248145
C40   C     C_3   0.096151 0.213979 0.587332 -0.937484
H38   H     H_    0.102894 0.145069 0.624523 0.242765
H39   H     H_    0.088768 0.259429 0.673789 0.265152
H40   H     H_    0.035916 0.214592 0.532620 0.228540
C41   C     C_3   0.724926 0.220007 0.314313 -0.967677
H41   H     H_    0.716770 0.164459 0.242925 0.244317
H42   H     H_    0.709907 0.283504 0.266127 0.255636
H43   H     H_    0.794660 0.222380 0.338803 0.257440
C42   C     C_3   0.328979 0.729059 0.644424 -0.969235
H44   H     H_    0.397756 0.727289 0.672886 0.248601
H45   H     H_    0.284282 0.719628 0.734853 0.259572
H46   H     H_    0.318426 0.672820 0.575203 0.252030
C43   C     C_3   0.295569 0.226383 0.702169 -0.960925
H47   H     H_    0.351909 0.217903 0.763409 0.255417
H48   H     H_    0.291272 0.298861 0.681569 0.255533
H49   H     H_    0.234814 0.202913 0.760172 0.258998
C44   C     C_3   0.755644 0.842062 0.324593 -0.967535
H50   H     H_    0.752490 0.913211 0.295089 0.236422
H51   H     H_    0.819358 0.833819 0.368612 0.255672
H52   H     H_    0.753294 0.800933 0.233896 0.257551
C45   C     C_3   0.224962 0.719965 0.314317 -0.967674
H53   H     H_    0.216814 0.664404 0.242947 0.244306
H54   H     H_    0.209960 0.783455 0.266096 0.255638
H55   H     H_    0.294690 0.722335 0.338837 0.257435
C46   C     C_3   0.828998 0.229036 0.644365 -0.969253
H56   H     H_    0.897778 0.227264 0.672811 0.248594
H57   H     H_    0.784310 0.219581 0.734797 0.259573
H58   H     H_    0.818444 0.172814 0.575117 0.252030
C47   C     C_3   0.795573 0.726389 0.702166 -0.960921
H59   H     H_    0.851918 0.717912 0.763400 0.255421
H60   H     H_    0.791275 0.798865 0.681555 0.255532
H61   H     H_    0.734820 0.702922 0.760178 0.258997
C48   C     C_3   0.255655 0.342085 0.324605 -0.967539
H62   H     H_    0.252497 0.413237 0.295114 0.236417
H63   H     H_    0.319366 0.333842 0.368631 0.255673
H64   H     H_    0.253313 0.300963 0.233899 0.257550

loop_
_geom_bond_atom_site_label_1
_geom_bond_atom_site_label_2
_geom_bond_distance
_ccdc_geom_bond_type
O6    Zn4   1.965115 S    
C38   H32   1.109590 S    
O2    C2    1.277987 A    
C33   H17   1.110207 S    
O13   Zn4   1.963482 S    
O14   Zn3   1.963482 S    
C35   H25   1.092040 S    
C19   C48   1.515180 S    
C39   H35   1.112085 S    
C36   H26   1.111282 S    
C47   H60   1.110693 S    
C41   H42   1.110196 S    
C22   C25   1.460896 S    
O11   C3    1.299647 A    
C40   H38   1.111283 S    
C7    C18   1.460451 S    
C23   C36   1.515136 S    
C43   H47   1.110047 S    
C44   H51   1.110651 S    
C29   H6    1.111977 S    
O6    C6    1.277981 A    
C28   C39   1.525595 S    
C24   C35   1.525599 S    
C30   H9    1.111570 S    
C32   H15   1.111569 S    
C38   H33   1.105253 S    
C45   H55   1.109656 S    
C39   H36   1.110053 S    
C10   N2    1.297634 D    
C24   C27   1.447433 S    
C16   C43   1.513369 S    
C31   H12   1.111975 S    
C46   H58   1.109749 S    
O3    C3    1.281765 A    
C37   H30   1.110218 S    
C13   C42   1.510825 S    
O4    Zn1   1.926058 S    
C34   H20   1.109661 S    
C43   H49   1.109486 S    
C20   C28   1.378770 D    
O15   C7    1.299629 A    
O16   C8    1.290654 A    
C48   H63   1.110655 S    
C8    C17   1.459427 S    
C33   H18   1.110221 S    
C30   H8    1.111301 S    
C47   H61   1.109488 S    
C17   C25   1.358040 D    
C35   H24   1.110058 S    
C12   H3    1.083551 S    
C35   H23   1.112089 S    
C34   H21   1.105304 S    
C41   H43   1.109653 S    
C45   H54   1.110198 S    
O11   Zn1   1.909755 S    
C36   H27   1.109269 S    
Zn4   N3    2.009128 S    
C17   C46   1.510821 S    
C9    H2    1.083627 S    
C42   H46   1.109751 S    
N4    C31   1.450987 S    
C29   H7    1.104188 S    
C11   N3    1.296035 D    
C20   C47   1.513365 S    
C15   C44   1.515173 S    
Zn1   N2    2.009129 S    
C1    C16   1.469426 S    
O3    Zn2   1.926056 S    
C2    C15   1.426773 S    
C3    C14   1.460482 S    
N2    C29   1.450982 S    
C5    C20   1.469431 S    
C26   C37   1.518459 S    
C6    C19   1.426751 S    
C31   H13   1.104189 S    
O12   C4    1.290650 A    
O1    Zn1   1.965115 S    
O13   C5    1.312511 A    
C37   H31   1.109179 S    
C12   N4    1.297632 D    
C45   H53   1.110670 S    
O9    Zn2   1.963482 S    
C18   C26   1.366714 D    
C48   H64   1.108441 S    
O9    C1    1.312513 A    
C38   H34   1.108559 S    
C46   H56   1.109806 S    
C33   H19   1.109183 S    
C44   H52   1.108438 S    
O16   Zn4   1.909757 S    
C13   C21   1.358038 D    
C10   H1    1.083550 S    
C39   H37   1.092050 S    
C15   C23   1.353050 D    
C47   H59   1.110052 S    
C40   H39   1.109270 S    
C36   H28   1.110211 S    
C16   C24   1.378771 D    
O7    Zn4   1.926056 S    
Zn2   N1    2.009128 S    
O12   Zn2   1.909757 S    
C11   H4    1.083624 S    
O8    Zn3   1.926058 S    
C32   H16   1.108552 S    
O15   Zn3   1.909755 S    
C23   C28   1.447448 S    
C27   C40   1.515137 S    
C41   H41   1.110665 S    
O1    C1    1.274018 A    
O2    Zn2   1.965115 S    
C25   C38   1.502546 S    
O14   C6    1.287201 A    
C14   C41   1.511357 S    
C42   H45   1.110484 S    
C9    C10   1.510627 S    
C44   H50   1.111632 S    
C30   H10   1.108551 S    
C4    C13   1.459429 S    
C34   H22   1.108612 S    
O10   Zn1   1.963482 S    
C19   C27   1.353044 D    
C29   H5    1.110904 S    
C48   H62   1.111633 S    
C21   C26   1.460871 S    
O10   C2    1.287207 A    
O7    C7    1.281768 A    
O8    C8    1.291038 A    
C32   H14   1.111301 S    
C14   C22   1.366736 D    
O4    C4    1.291041 A    
O5    C5    1.274023 A    
N3    C32   1.448912 S    
N1    C30   1.448912 S    
C31   H11   1.110903 S    
C11   C12   1.510626 S    
C46   H57   1.110480 S    
Zn3   N4    2.009129 S    
C21   C34   1.502538 S    
C40   H40   1.110211 S    
O5    Zn3   1.965115 S    
C37   H29   1.110212 S    
C42   H44   1.109814 S    
C22   C33   1.518477 S    
C18   C45   1.511355 S    
C9    N1    1.296037 D    
C43   H48   1.110691 S    
