data_mof_unit_27651.cif
_audit_creation_date              2012-12-11T14:15:37-0500
_audit_creation_method            fapswitch 2.2
_symmetry_space_group_name_H-M    P1
_symmetry_Int_Tables_number       1
_space_group_crystal_system       triclinic
_cell_length_a                    11.186696
_cell_length_b                    12.677533
_cell_length_c                    23.601468
_cell_angle_alpha                 90.774936
_cell_angle_beta                  96.077424
_cell_angle_gamma                 68.457633
_cell_volume                      3094.68143926

loop_
_atom_site_label
_atom_site_type_symbol
_atom_type_description
_atom_site_fract_x
_atom_site_fract_y
_atom_site_fract_z
_atom_type_partial_charge
C1    C     C_R   0.149382 0.616290 0.428551 0.551441
C2    C     C_R   0.713598 0.535112 0.309518 -0.099709
C3    C     C_R   0.723537 0.722985 0.318621 -0.138310
C4    C     C_R   0.719545 0.733303 0.259381 0.000684
C5    C     C_R   0.701878 0.645261 0.226667 0.041617
C6    C     C_R   0.639973 0.673467 0.172928 0.120218
C7    C     C_R   0.709472 0.835595 0.170380 -0.015299
C8    C     C_R   0.724567 0.830540 0.231453 0.030476
C9    C     C_1   0.238027 0.158512 0.124168 -0.000918
C10   C     C_2   0.194394 0.222546 0.229693 -0.131988
C11   C     C_2   0.167271 0.155250 0.265555 -0.131209
C12   C     C_R   0.753046 0.602390 0.403704 0.543238
C13   C     C_1   0.141022 0.191012 0.322763 -0.055580
C14   C     C_1   0.217391 0.190095 0.171860 -0.046818
C15   C     C_1   0.120673 0.227515 0.369724 -0.006489
C16   C     C_1   0.167138 0.748013 0.123259 0.029189
C17   C     C_2   0.148211 0.678783 0.226771 -0.128206
C18   C     C_2   0.235285 0.677084 0.270953 -0.108399
C19   C     C_1   0.216763 0.651859 0.328388 -0.054680
C20   C     C_1   0.158233 0.714896 0.169976 -0.021316
C21   C     C_1   0.193476 0.633769 0.375453 -0.005749
C22   C     C_1   0.628367 0.755156 0.864676 -0.000136
C23   C     C_R   0.102075 0.281623 0.423665 0.546032
C24   C     C_2   0.699019 0.704105 0.761076 -0.115982
C25   C     C_2   0.609760 0.704775 0.718234 -0.099690
C26   C     C_1   0.647464 0.670207 0.662224 -0.002600
C27   C     C_1   0.663553 0.733541 0.817843 -0.042858
C28   C     C_1   0.687089 0.640277 0.616764 0.045787
C29   C     C_R   0.216199 0.163234 0.849427 -0.026543
C30   C     C_R   0.110206 0.218586 0.638250 -0.002335
C31   C     C_R   0.005091 0.179778 0.715576 -0.126915
C32   C     C_R   0.003119 0.203675 0.657900 -0.117736
C33   C     C_R   0.221315 0.201278 0.675277 -0.100091
C34   C     C_R   0.103485 0.594642 0.594647 0.579692
C35   C     C_R   0.219081 0.190671 0.733157 0.057040
C36   C     C_R   0.110820 0.177286 0.753887 0.020098
C37   C     C_R   0.111223 0.161254 0.812341 -0.138767
C38   C     C_R   0.315191 0.189953 0.828314 -0.104260
C39   C     C_R   0.319994 0.199364 0.770829 0.128486
C40   C     C_R   0.105947 0.734776 0.861333 -0.004917
C41   C     C_R   0.114210 0.606404 0.657393 0.012840
C42   C     C_R   0.227536 0.529483 0.748947 -0.139412
C43   C     C_R   0.212507 0.522249 0.690461 -0.157733
C44   C     C_R   0.023659 0.698705 0.684485 0.127707
C45   C     C_R   0.748661 0.602761 0.565820 0.555515
C46   C     C_R   0.043536 0.711908 0.744612 0.036895
C47   C     C_R   0.147485 0.623295 0.776937 0.022038
C48   C     C_R   0.173794 0.632346 0.836624 0.009565
C49   C     C_R   0.989271 0.806326 0.833574 -0.120842
C50   C     C_R   0.963671 0.807251 0.774766 0.002857
C51   C     C_R   0.265845 0.109550 0.069630 0.545767
C52   C     C_R   0.594683 0.777293 0.082574 0.559956
C53   C     C_R   0.189206 0.787645 0.069718 0.554875
C54   C     C_R   0.243883 0.112010 0.906510 0.545781
C55   C     C_R   0.573977 0.776113 0.918054 0.544265
C56   C     C_R   0.099802 0.277323 0.584380 0.534956
C57   C     C_R   0.160152 0.782623 0.910205 0.535131
C58   C     C_R   0.655777 0.760127 0.141639 -0.000485
C59   C     C_R   0.717795 0.625462 0.343297 -0.004483
C60   C     C_R   0.715517 0.540752 0.251580 0.035530
Cr1   Cr    Cr6+3 0.189770 0.415650 0.511620 1.043685
Cr2   Cr    Cr6+3 0.930400 0.667320 0.496770 1.067883
Cr3   Cr    Cr6+3 0.879870 0.417010 0.491650 1.023933
Cr4   Cr    Cr6+3 0.149500 0.973980 0.985330 1.017567
Cr5   Cr    Cr6+3 0.457000 0.976510 0.994660 1.017201
Cr6   Cr    Cr6+3 0.411170 0.724270 0.995270 1.056271
H1    H     H_    0.064677 0.658012 0.233517 0.128958
H2    H     H_    0.508694 0.729846 0.725204 0.143490
H3    H     H_    0.800140 0.677245 0.754110 0.153137
H4    H     H_    0.033842 0.142768 0.828545 0.124033
H5    H     H_    0.395538 0.195744 0.856419 0.172727
H6    H     H_    0.921320 0.170501 0.730570 0.118940
H7    H     H_    0.916158 0.216163 0.629484 0.146700
H8    H     H_    0.305072 0.208690 0.659387 0.193313
H9    H     H_    0.925996 0.871786 0.857964 0.148995
H10   H     H_    0.306869 0.461877 0.771603 0.171899
H11   H     H_    0.279115 0.449465 0.671002 0.178879
H12   H     H_    0.716970 0.456416 0.328295 0.146256
H13   H     H_    0.731825 0.788888 0.346375 0.135210
H14   H     H_    0.162644 0.074535 0.251877 0.138201
H15   H     H_    0.198271 0.303444 0.243530 0.138708
H16   H     H_    0.317731 0.699697 0.264619 0.175028
O1    O     O_R   0.196340 0.303200 0.448500 -0.499269
O2    O     O_R   0.811960 0.658090 0.547150 -0.463455
O3    O     O_R   0.757930 0.506140 0.547110 -0.512892
O4    O     O_R   0.988670 0.321620 0.556040 -0.502189
O5    O     O_3   0.000020 0.499990 0.500010 -0.281820
O6    O     O_R   0.113660 0.883270 0.047820 -0.532276
O7    O     O_R   0.186930 0.068530 0.043990 -0.495200
O8    O     O_R   0.377770 0.089040 0.054220 -0.513089
O9    O     O_R   0.562800 0.872960 0.056970 -0.522399
O10   O     O_R   0.555390 0.700940 0.062700 -0.460534
O11   O     O_R   0.295020 0.731920 0.049950 -0.455098
O12   O     O_R   0.199310 0.519670 0.454880 -0.485386
O13   O     O_R   0.094290 0.884230 0.921550 -0.525843
O14   O     O_R   0.168980 0.069410 0.926940 -0.494989
O15   O     O_R   0.358400 0.089990 0.927950 -0.523140
O16   O     O_R   0.544850 0.873850 0.939920 -0.494793
O17   O     O_R   0.536020 0.701900 0.936430 -0.507835
O18   O     O_R   0.277070 0.732810 0.932890 -0.507767
O19   O     O_3   0.339220 0.891590 0.991750 -0.244346
O20   O     O_R   0.045660 0.691380 0.441680 -0.509849
O21   O     O_R   0.811930 0.659460 0.430950 -0.505897
O22   O     O_R   0.757900 0.507620 0.421760 -0.521984
O23   O     O_R   0.988630 0.322990 0.439840 -0.499542
O24   O     O_R   0.196380 0.301720 0.573850 -0.525163
O25   O     O_R   0.199350 0.518300 0.571080 -0.503921
O26   O     O_R   0.045700 0.689900 0.567030 -0.447052
Br1   Br    Br    0.488519 0.630691 0.158885 -0.551500
Br2   Br    Br    0.468487 0.222586 0.747403 -0.643119
C61   C     C_3   0.257430 0.530411 0.874900 -0.271201
C62   C     C_3   0.189575 0.446153 0.877785 -0.447206
H17   H     H_    0.096413 0.486999 0.896122 0.154160
H18   H     H_    0.169317 0.416003 0.834862 0.171462
H19   H     H_    0.251318 0.372480 0.905766 0.145503
H20   H     H_    0.355040 0.489470 0.860725 0.153386
H21   H     H_    0.273451 0.553530 0.919581 0.170616
C63   C     C_3   0.735586 0.925918 0.136471 -0.258613
C64   C     C_3   0.862949 0.941250 0.155592 -0.452546
H22   H     H_    0.847840 0.015184 0.183404 0.139471
H23   H     H_    0.931942 0.863715 0.177982 0.169580
H24   H     H_    0.906368 0.958132 0.118148 0.159506
H25   H     H_    0.745456 0.900721 0.091651 0.168094
H26   H     H_    0.653448 0.008443 0.136874 0.162239
C65   C     C_3   0.861645 0.916311 0.746821 -0.253852
C66   C     C_3   0.814916 0.021302 0.783663 -0.442868
H27   H     H_    0.751771 0.010965 0.814743 0.175560
H28   H     H_    0.898079 0.038049 0.806163 0.145190
H29   H     H_    0.756770 0.096399 0.755890 0.198992
H30   H     H_    0.904276 0.943412 0.711968 0.202557
H31   H     H_    0.773596 0.899497 0.730907 0.215058
Br3   Br    Br    0.866876 0.795623 0.639262 -0.553888
C67   C     C_3   0.733294 0.434381 0.217422 -0.265510
C68   C     C_3   0.863080 0.340691 0.235729 -0.452582
H32   H     H_    0.941869 0.373548 0.233725 0.167762
H33   H     H_    0.866100 0.309396 0.279743 0.154746
H34   H     H_    0.878516 0.268329 0.206663 0.147946
H35   H     H_    0.654088 0.403626 0.223122 0.176265
H36   H     H_    0.731342 0.451221 0.171218 0.187831
C69   C     C_3   0.731398 0.930907 0.266284 -0.263716
C70   C     C_3   0.864826 0.907769 0.299329 -0.433187
H37   H     H_    0.904329 0.823649 0.321583 0.167911
H38   H     H_    0.935987 0.910848 0.270918 0.149118
H39   H     H_    0.856654 0.973886 0.331608 0.145146
H40   H     H_    0.702630 0.009354 0.239773 0.150580
H41   H     H_    0.657203 0.952839 0.296707 0.138601

loop_
_geom_bond_atom_site_label_1
_geom_bond_atom_site_label_2
_ccdc_geom_bond_type
C1    C21   S    
C66   H27   S    
C6    C58   A    
C35   C39   A    
C35   C36   A    
C9    C51   S    
C24   C27   S    
Cr5   O19   S    
C4    C8    A    
C3    H13   S    
C68   H34   S    
C62   H18   S    
C7    C8    A    
C34   C41   S    
C23   O1    A    
C34   O25   A    
C36   C37   A    
C19   C21   T    
Cr5   O16   S    
C12   O22   A    
C70   H38   S    
C51   O8    A    
C5    C6    A    
C2    C60   A    
Cr2   O26   S    
C29   C54   S    
C40   C49   A    
C23   O23   A    
C17   C20   S    
C40   C48   A    
C18   C19   S    
C46   C47   A    
Cr6   O18   S    
C16   C53   S    
Cr1   O5    S    
C33   C35   A    
C63   C64   S    
C12   C59   S    
C65   H30   S    
C39   Br2   S    
C61   C62   S    
C44   C46   A    
C1    O12   A    
C29   C38   A    
C49   H9    S    
C54   O15   A    
C61   H20   S    
Cr3   O23   S    
C7    C58   A    
C54   O14   A    
C30   C33   A    
C42   C47   A    
C15   C23   S    
C65   C66   S    
C67   H35   S    
C37   H4    S    
Cr3   O3    S    
C41   C43   A    
C7    C63   S    
Cr4   O19   S    
C25   H2    S    
Cr4   O7    S    
C62   H17   S    
Cr6   O19   S    
C24   H3    S    
C64   H23   S    
Cr5   O8    S    
C28   C45   S    
C17   H1    S    
C53   O11   A    
C69   C70   S    
Cr4   O14   S    
C12   O21   A    
C10   C14   S    
C70   H39   S    
C69   H41   S    
C32   H7    S    
Cr1   O12   S    
Cr3   O22   S    
Cr6   O10   S    
C66   H29   S    
C25   C26   S    
C57   O18   A    
C30   C56   S    
Cr6   O17   S    
C45   O3    A    
C9    C14   T    
C2    H12   S    
C65   H31   S    
C56   O4    A    
C47   C48   A    
C16   C20   T    
C17   C18   D    
C50   C65   S    
C63   H26   S    
C24   C25   D    
Cr1   O24   S    
C56   O24   A    
C22   C55   S    
C52   C58   S    
Cr6   O11   S    
C31   H6    S    
C67   H36   S    
C22   C27   T    
C13   C15   T    
Cr3   O4    S    
Cr1   O1    S    
C67   C68   S    
C41   C44   A    
C52   O10   A    
C45   O2    A    
C44   Br3   S    
C42   C43   A    
C29   C37   A    
C3    C4    A    
Cr2   O21   S    
C64   H24   S    
Cr5   O9    S    
Cr2   O2    S    
C38   H5    S    
C66   H28   S    
C40   C57   S    
C5    C60   A    
Cr3   O5    S    
C2    C59   A    
C26   C28   T    
C31   C32   A    
Cr4   O13   S    
C4    C5    A    
C69   H40   S    
C68   H33   S    
C64   H22   S    
C68   H32   S    
C11   H14   S    
C6    Br1   S    
C43   H11   S    
Cr2   O5    S    
C46   C50   A    
C10   H15   S    
C42   H10   S    
C8    C69   S    
C61   H21   S    
C34   O26   A    
Cr5   O15   S    
C70   H37   S    
C51   O7    A    
C30   C32   A    
C11   C13   S    
C38   C39   A    
C60   C67   S    
C55   O16   A    
C18   H16   S    
C53   O6    A    
C63   H25   S    
Cr1   O25   S    
C10   C11   D    
C33   H8    S    
C48   C61   S    
C49   C50   A    
C57   O13   A    
C55   O17   A    
C31   C36   A    
C52   O9    A    
C1    O20   A    
Cr4   O6    S    
C62   H19   S    
Cr2   O20   S    
C3    C59   A    
