data_mof_unit_39316.cif
_audit_creation_date              2012-12-10T17:04:31-0500
_audit_creation_method            fapswitch 2.2
_symmetry_space_group_name_H-M    P1
_symmetry_Int_Tables_number       1
_space_group_crystal_system       triclinic
_cell_length_a                    14.995471
_cell_length_b                    10.740083
_cell_length_c                    10.036987
_cell_angle_alpha                 89.591123
_cell_angle_beta                  90.012864
_cell_angle_gamma                 90.249332
_cell_volume                      1616.4263884

loop_
_atom_site_label
_atom_site_type_symbol
_atom_type_description
_atom_site_fract_x
_atom_site_fract_y
_atom_site_fract_z
_atom_type_partial_charge
C1    C     C_R   0.504000 0.262789 0.500201 0.853977
C2    C     C_R   0.184913 0.436691 0.391133 0.474590
C3    C     C_R   0.230918 0.487010 0.500633 -0.212958
C4    C     C_R   0.326776 0.496595 0.499958 0.895607
C5    C     C_R   0.185545 0.527197 0.613656 -0.263928
C6    C     C_2   0.499495 0.933680 0.388399 -0.166086
C7    C     C_2   0.483109 0.867614 0.498306 -0.303495
C8    C     C_2   0.492543 0.067074 0.393445 -0.230016
C9    C     C_2   0.520683 0.132336 0.499199 -0.141878
C10   C     C_2   0.545057 0.579533 0.925509 0.142592
C11   C     C_2   0.531749 0.590956 0.074135 -0.112810
C12   C     C_R   0.907358 0.529893 0.617462 -0.086000
C13   C     C_R   0.496182 0.736978 0.499522 0.934389
C14   C     C_R   0.673210 0.499403 0.500082 0.890614
C15   C     C_R   0.814909 0.532575 0.614851 -0.184817
C16   C     C_R   0.768937 0.495678 0.500799 -0.091643
C17   C     C_R   0.814099 0.453217 0.388663 -0.250660
C18   C     C_R   0.906211 0.447250 0.389915 0.179976
C19   C     C_R   0.953323 0.486286 0.504287 0.024366
C20   C     C_1   0.576771 0.081856 0.604585 0.182682
C21   C     C_1   0.609197 0.661635 0.863648 0.150388
C22   C     C_3   0.410601 0.336948 0.873780 -0.141841
C23   C     C_R   0.951647 0.403057 0.278495 -0.227306
C24   C     C_3   0.250282 0.265180 0.304352 -0.313069
C25   C     C_3   0.102508 0.502381 0.932428 -0.237231
C26   C     C_3   0.903170 0.742323 0.835792 -0.251508
C27   C     C_R   0.043986 0.398064 0.279278 -0.201806
C28   C     C_R   0.091940 0.438682 0.391028 0.060050
C29   C     C_R   0.046210 0.482812 0.504578 -0.076423
C30   C     C_R   0.093296 0.524152 0.617810 -0.084143
C31   C     C_R   0.047550 0.563854 0.732350 0.419950
C32   C     C_R   0.954361 0.570824 0.730468 0.397788
H1    H     H_    0.778390 0.564658 0.700956 0.210221
H2    H     H_    0.516214 0.890645 0.294028 0.175439
H3    H     H_    0.474219 0.283679 0.871852 0.134225
H4    H     H_    0.374258 0.328328 0.778311 0.189569
H5    H     H_    0.367975 0.293236 0.951561 0.126321
H6    H     H_    0.293889 0.252543 0.393144 0.150405
H7    H     H_    0.287057 0.229355 0.216834 0.187414
H8    H     H_    0.188348 0.208591 0.315633 0.151949
H9    H     H_    0.140276 0.533875 0.021162 0.217632
H10   H     H_    0.140652 0.424932 0.886653 0.145657
H11   H     H_    0.036242 0.468377 0.967341 0.175812
H12   H     H_    0.460032 0.910378 0.589784 0.157902
H13   H     H_    0.864832 0.774683 0.923378 0.192860
H14   H     H_    0.866823 0.773514 0.744819 0.153310
H15   H     H_    0.970213 0.786923 0.839895 0.189886
H16   H     H_    0.460202 0.112126 0.309077 0.164943
H17   H     H_    0.552921 0.676320 0.122198 0.136521
H18   H     H_    0.495073 0.415163 0.104836 0.208460
H19   H     H_    0.777550 0.423197 0.301200 0.161120
H20   H     H_    0.915776 0.372517 0.190737 0.150527
H21   H     H_    0.077584 0.363195 0.191792 0.171651
H22   H     H_    0.222554 0.563522 0.697752 0.236490
N1    N     N_2   0.500970 0.501330 0.852150 0.061532
N2    N     N_2   0.500990 0.501360 0.147810 -0.169376
N3    N     N_1   0.621508 0.042009 0.688507 -0.205061
N4    N     N_1   0.660549 0.728282 0.814475 -0.207011
O1    O     O_R   0.499990 0.319060 0.613040 -0.642033
O2    O     O_3   0.230512 0.391875 0.281514 -0.596593
O3    O     O_3   0.093788 0.603842 0.843558 -0.601616
O4    O     O_3   0.909347 0.611447 0.842284 -0.603810
O5    O     O_R   0.500010 0.319100 0.386900 -0.626679
O6    O     O_R   0.367830 0.499950 0.613080 -0.619331
O7    O     O_R   0.367860 0.499990 0.386940 -0.546643
O8    O     O_R   0.499990 0.680900 0.613100 -0.610070
O9    O     O_R   0.500010 0.680940 0.386960 -0.623447
O10   O     O_R   0.632140 0.500010 0.613060 -0.629353
O11   O     O_R   0.632170 0.500050 0.386920 -0.623812
O12   O     O_3   0.423174 0.462896 0.906638 -0.534763
Zn1   Zn    Zn3+2 0.499980 0.499970 0.650990 0.988007
Zn2   Zn    Zn3+2 0.500020 0.500030 0.349010 0.972395

loop_
_geom_bond_atom_site_label_1
_geom_bond_atom_site_label_2
_ccdc_geom_bond_type
C25   H10   S    
O11   Zn2   S    
C24   H6    S    
C8    H16   S    
O8    Zn1   S    
N1    Zn1   S    
C6    C7    D    
C11   H17   S    
C23   C27   A    
O7    Zn2   S    
C22   H4    S    
C31   O3    S    
C9    C20   S    
C31   C32   A    
C12   C15   A    
C24   O2    S    
C17   H19   S    
C27   H21   S    
C2    C3    A    
C26   O4    S    
C32   O4    S    
C21   N4    T    
C11   N2    D    
C25   O3    S    
C7    H12   S    
C12   C32   A    
C10   N1    D    
C25   H11   S    
C23   H20   S    
C29   C30   A    
C26   H15   S    
O10   Zn1   S    
C6    C8    S    
C1    O5    A    
C12   C19   A    
C28   C29   A    
C24   H8    S    
C15   H1    S    
C17   C18   A    
C2    O2    S    
C13   O8    A    
C1    O1    A    
C10   C21   S    
C30   C31   A    
C14   O11   A    
C14   C16   S    
N1    O12   S    
C22   H3    S    
C10   C11   S    
C26   H14   S    
C18   C23   A    
C19   C29   A    
C16   C17   A    
C6    H2    S    
C5    H22   S    
C7    C13   S    
C24   H7    S    
C1    C9    S    
O5    Zn2   S    
C4    O6    A    
O9    Zn2   S    
C13   O9    A    
O6    Zn1   S    
C25   H9    S    
C27   C28   A    
C14   O10   A    
C4    O7    A    
C18   C19   A    
C2    C28   A    
C26   H13   S    
C3    C5    A    
C20   N3    T    
C22   H5    S    
C22   O12   S    
H18   N2    S    
C3    C4    S    
C15   C16   A    
C5    C30   A    
O1    Zn1   S    
C8    C9    D    
N2    Zn2   S    
