data_mof_unit_10815.cif
_audit_creation_date              2013-03-05T15:40:10-0500
_audit_creation_method            fapswitch 2.2
_symmetry_space_group_name_H-M    P1
_symmetry_Int_Tables_number       1
_space_group_crystal_system       triclinic
_cell_length_a                    33.830691
_cell_length_b                    33.8601
_cell_length_c                    33.859861
_cell_angle_alpha                 59.908026
_cell_angle_beta                  59.889046
_cell_angle_gamma                 59.865973
_cell_volume                      27356.5307845

loop_
_atom_site_label
_atom_site_type_symbol
_atom_site_description
_atom_site_fract_x
_atom_site_fract_y
_atom_site_fract_z
_atom_type_partial_charge
O1    O     O_R   0.716970 0.488630 0.223920 -0.516572
O2    O     O_R   0.223920 0.716970 0.488630 -0.490192
O3    O     O_R   0.488630 0.223920 0.716970 -0.504724
O4    O     O_R   0.223920 0.488630 0.716970 -0.525472
O5    O     O_R   0.488630 0.716970 0.223920 -0.502798
O6    O     O_R   0.716970 0.223920 0.488630 -0.522275
O7    O     O_R   0.783170 0.487770 0.157850 -0.611569
O8    O     O_R   0.157850 0.783170 0.487770 -0.568111
O9    O     O_R   0.487770 0.157850 0.783170 -0.580738
O10   O     O_R   0.157850 0.487770 0.783170 -0.562242
O11   O     O_R   0.487770 0.783170 0.157850 -0.538763
O12   O     O_R   0.783170 0.157850 0.487770 -0.557414
C1    C     C_R   0.743635 0.475126 0.184786 0.812866
C2    C     C_R   0.175532 0.735026 0.500816 0.759825
C3    C     C_R   0.500744 0.175614 0.735013 0.748552
C4    C     C_R   0.184666 0.475332 0.743538 0.774792
C5    C     C_R   0.500701 0.735013 0.175621 0.805282
C6    C     C_R   0.743582 0.184738 0.475212 0.821980
C7    C     C_R   0.720634 0.468458 0.162282 -0.175499
C8    C     C_R   0.149143 0.708822 0.504660 -0.174076
C9    C     C_R   0.504808 0.149305 0.708633 -0.171429
C10   C     C_R   0.162074 0.468810 0.720538 -0.164073
C11   C     C_R   0.504780 0.708626 0.149296 -0.172544
C12   C     C_R   0.720550 0.162162 0.468681 -0.176116
C13   C     C_R   0.744017 0.469467 0.113904 -0.159639
C14   C     C_R   0.102719 0.733984 0.500259 -0.172212
C15   C     C_R   0.501164 0.102656 0.733525 -0.175324
C16   C     C_R   0.113635 0.469945 0.743883 -0.138348
C17   C     C_R   0.501050 0.733512 0.102668 -0.120296
C18   C     C_R   0.743750 0.113596 0.470251 -0.130525
H1    H     H_    0.780140 0.471941 0.094222 0.175549
H2    H     H_    0.084991 0.771867 0.497304 0.171925
H3    H     H_    0.498380 0.084835 0.771350 0.171890
H4    H     H_    0.094012 0.472219 0.780059 0.185491
H5    H     H_    0.498154 0.771366 0.084859 0.192939
H6    H     H_    0.779702 0.093793 0.473178 0.187239
O13   O     O_R   0.224060 0.570410 0.716850 -0.562737
O14   O     O_R   0.716850 0.224060 0.570410 -0.564406
O15   O     O_R   0.570410 0.716850 0.224060 -0.578432
O16   O     O_R   0.716850 0.570410 0.224060 -0.539426
O17   O     O_R   0.570410 0.224060 0.716850 -0.568077
O18   O     O_R   0.224060 0.716850 0.570410 -0.552331
O19   O     O_R   0.157990 0.571150 0.783050 -0.541176
O20   O     O_R   0.783050 0.157990 0.571150 -0.539974
O21   O     O_R   0.571150 0.783050 0.157990 -0.555050
O22   O     O_R   0.783050 0.571150 0.157990 -0.580126
O23   O     O_R   0.571150 0.157990 0.783050 -0.542161
O24   O     O_R   0.157990 0.783050 0.571150 -0.528427
C19   C     C_R   0.175045 0.586991 0.734619 0.847496
C20   C     C_R   0.734597 0.175046 0.587006 0.841031
C21   C     C_R   0.588804 0.734834 0.175375 0.752083
C22   C     C_R   0.734365 0.586104 0.175110 0.776053
C23   C     C_R   0.588782 0.175398 0.734929 0.722763
C24   C     C_R   0.175373 0.734933 0.588841 0.735287
C25   C     C_R   0.146110 0.634675 0.707759 -0.103149
C26   C     C_R   0.707782 0.146067 0.634708 -0.101524
C27   C     C_R   0.636022 0.707274 0.146283 -0.092543
C28   C     C_R   0.706605 0.632962 0.146109 -0.164861
C29   C     C_R   0.636586 0.146594 0.708176 -0.113759
C30   C     C_R   0.146596 0.708212 0.636671 -0.117383
C31   C     C_R   0.094722 0.654635 0.727774 -0.032239
C32   C     C_R   0.727870 0.094691 0.654727 -0.030422
C33   C     C_R   0.655964 0.726707 0.094938 -0.062290
C34   C     C_R   0.724292 0.650154 0.094513 -0.033248
C35   C     C_R   0.656600 0.095476 0.728348 -0.025074
C36   C     C_R   0.095428 0.728399 0.656743 -0.024798
O25   O     O_R   0.488840 0.570440 0.223920 -0.487216
O26   O     O_R   0.223920 0.488840 0.570440 -0.510628
O27   O     O_R   0.570440 0.223920 0.488840 -0.510202
O28   O     O_R   0.223920 0.570440 0.488840 -0.487261
O29   O     O_R   0.570440 0.488840 0.223920 -0.509155
O30   O     O_R   0.488840 0.223920 0.570440 -0.486757
O31   O     O_R   0.487980 0.571180 0.157850 -0.565153
O32   O     O_R   0.157850 0.487980 0.571180 -0.606043
O33   O     O_R   0.571180 0.157850 0.487980 -0.603789
O34   O     O_R   0.157850 0.571180 0.487980 -0.572946
O35   O     O_R   0.571180 0.487980 0.157850 -0.608475
O36   O     O_R   0.487980 0.157850 0.571180 -0.570989
C37   C     C_R   0.502653 0.587355 0.175338 0.826662
C38   C     C_R   0.184870 0.475166 0.596405 0.815107
C39   C     C_R   0.596391 0.185076 0.474776 0.816367
C40   C     C_R   0.175295 0.587539 0.502471 0.820918
C41   C     C_R   0.596395 0.474841 0.185051 0.806074
C42   C     C_R   0.502633 0.175322 0.587387 0.822968
C43   C     C_R   0.506509 0.636178 0.148913 -0.172214
C44   C     C_R   0.162235 0.468591 0.648592 -0.159689
C45   C     C_R   0.648724 0.162547 0.467887 -0.155044
C46   C     C_R   0.148882 0.636551 0.505939 -0.172890
C47   C     C_R   0.648727 0.467895 0.162583 -0.156390
C48   C     C_R   0.506498 0.148883 0.636222 -0.173092
C49   C     C_R   0.503072 0.661427 0.102185 -0.203319
C50   C     C_R   0.113811 0.469783 0.672509 -0.215971
C51   C     C_R   0.672640 0.114163 0.469094 -0.212312
C52   C     C_R   0.102447 0.662152 0.501564 -0.211775
C53   C     C_R   0.672762 0.468707 0.114333 -0.219756
C54   C     C_R   0.503075 0.102142 0.661505 -0.205162
H7    H     H_    0.501161 0.643808 0.084183 0.178102
H8    H     H_    0.094499 0.471467 0.653779 0.176661
H9    H     H_    0.653881 0.095023 0.470561 0.180066
H10   H     H_    0.084715 0.644747 0.498975 0.173453
H11   H     H_    0.654057 0.470079 0.095193 0.174637
H12   H     H_    0.501149 0.084121 0.643918 0.176227
C55   C     C_R   0.225059 0.224971 0.473239 -0.018557
C56   C     C_R   0.511017 0.211287 0.212712 -0.019104
C57   C     C_R   0.224637 0.474295 0.224206 -0.018609
C58   C     C_R   0.075445 0.222856 0.478904 0.020887
C59   C     C_R   0.534683 0.056657 0.204762 0.016214
C60   C     C_R   0.227010 0.466677 0.078623 0.084119
C61   C     C_R   0.532597 0.205496 0.057673 0.074773
C62   C     C_R   0.226599 0.077619 0.469666 0.016355
C63   C     C_R   0.079249 0.465349 0.227515 0.027498
H13   H     H_    0.166252 0.244191 0.534718 0.181212
H14   H     H_    0.572875 0.158631 0.234960 0.186775
H15   H     H_    0.241338 0.537205 0.166229 0.181397
H16   H     H_    0.448398 0.269955 0.195808 0.186595
H17   H     H_    0.289305 0.210360 0.413048 0.186045
H18   H     H_    0.212984 0.412392 0.287383 0.187857
H19   H     H_    0.086620 0.210749 0.416488 0.145830
H20   H     H_    0.477609 0.069095 0.183636 0.157225
H21   H     H_    0.165731 0.525722 0.057688 0.140666
H22   H     H_    0.475414 0.184538 0.070125 0.158021
H23   H     H_    0.168011 0.055058 0.532424 0.146461
H24   H     H_    0.058370 0.525203 0.166631 0.139141
C64   C     C_R   0.213211 0.141587 0.139526 -0.156607
C65   C     C_R   0.142144 0.214067 0.140908 -0.220748
C66   C     C_R   0.145963 0.144980 0.214611 -0.175116
H25   H     H_    0.248841 0.121941 0.119776 0.146323
H26   H     H_    0.122729 0.250498 0.122191 0.149654
H27   H     H_    0.129440 0.127871 0.252922 0.132858
C67   C     C_R   0.259814 0.059290 0.223670 -0.028135
C68   C     C_R   0.191620 0.224393 0.028421 -0.004117
C69   C     C_R   0.032236 0.200443 0.234015 -0.015842
C70   C     C_R   0.201815 0.030713 0.231020 0.013242
C71   C     C_R   0.060052 0.260084 0.224588 0.019292
C72   C     C_R   0.253628 0.223506 0.046913 0.010844
C73   C     C_R   0.283911 0.011474 0.248161 -0.145329
C74   C     C_R   0.213782 0.247179 0.979066 -0.119160
C75   C     C_R   0.985142 0.224470 0.259542 -0.116088
C76   C     C_R   0.225255 0.984011 0.257447 -0.237393
C77   C     C_R   0.012018 0.284327 0.248676 -0.154547
C78   C     C_R   0.275821 0.244521 0.997194 -0.143721
O37   O     O_R   0.283280 0.775980 0.511290 -0.571191
O38   O     O_R   0.511290 0.283280 0.775980 -0.574264
O39   O     O_R   0.775980 0.511290 0.283280 -0.571175
O40   O     O_R   0.511290 0.775980 0.283280 -0.593661
O41   O     O_R   0.775980 0.283280 0.511290 -0.572143
O42   O     O_R   0.283280 0.511290 0.775980 -0.564796
O43   O     O_R   0.217080 0.842050 0.512160 -0.567366
O44   O     O_R   0.512160 0.217080 0.842050 -0.570299
O45   O     O_R   0.842050 0.512160 0.217080 -0.570325
O46   O     O_R   0.512160 0.842050 0.217080 -0.597621
O47   O     O_R   0.842050 0.217080 0.512160 -0.573771
O48   O     O_R   0.217080 0.512160 0.842050 -0.570406
C79   C     C_R   0.265131 0.824188 0.499760 0.726063
C80   C     C_R   0.522452 0.257646 0.816400 0.791669
C81   C     C_R   0.824215 0.499904 0.265029 0.730718
C82   C     C_R   0.523055 0.816066 0.257389 0.751827
C83   C     C_R   0.824328 0.265113 0.499311 0.725460
C84   C     C_R   0.265402 0.498186 0.824450 0.791512
C85   C     C_R   0.291585 0.851050 0.494660 -0.062040
C86   C     C_R   0.528245 0.280325 0.839665 -0.069862
C87   C     C_R   0.851170 0.494883 0.291296 -0.067236
C88   C     C_R   0.529199 0.839117 0.280036 -0.059368
C89   C     C_R   0.851219 0.291217 0.494616 -0.062613
C90   C     C_R   0.291936 0.493125 0.851337 -0.070280
C91   C     C_R   0.269721 0.900671 0.488818 -0.192941
C92   C     C_R   0.530819 0.255562 0.886738 -0.190162
C93   C     C_R   0.901096 0.487816 0.269845 -0.194256
C94   C     C_R   0.532503 0.885879 0.255033 -0.193594
C95   C     C_R   0.900882 0.269218 0.488937 -0.194416
C96   C     C_R   0.270148 0.487116 0.901009 -0.195512
H28   H     H_    0.233165 0.919659 0.487444 0.146375
H29   H     H_    0.530950 0.218537 0.905232 0.153451
H30   H     H_    0.920206 0.485363 0.233741 0.147078
H31   H     H_    0.532986 0.904210 0.217891 0.150204
H32   H     H_    0.920038 0.232912 0.486979 0.146068
H33   H     H_    0.233878 0.485019 0.920070 0.145921
O49   O     O_R   0.511420 0.429400 0.283150 -0.568990
O50   O     O_R   0.283150 0.511420 0.429400 -0.564765
O51   O     O_R   0.429400 0.283150 0.511420 -0.564052
O52   O     O_R   0.283150 0.429400 0.511420 -0.570163
O53   O     O_R   0.429400 0.511420 0.283150 -0.562675
O54   O     O_R   0.511420 0.283150 0.429400 -0.567247
O55   O     O_R   0.512280 0.428670 0.216950 -0.586404
O56   O     O_R   0.216950 0.512280 0.428670 -0.567025
O57   O     O_R   0.428670 0.216950 0.512280 -0.565373
O58   O     O_R   0.216950 0.428670 0.512280 -0.563810
O59   O     O_R   0.428670 0.512280 0.216950 -0.548952
O60   O     O_R   0.512280 0.216950 0.428670 -0.569400
C97   C     C_R   0.501180 0.410151 0.264648 0.714879
C98   C     C_R   0.264805 0.500592 0.410501 0.733214
C99   C     C_R   0.410765 0.264867 0.500255 0.736613
C100  C     C_R   0.265137 0.411673 0.498827 0.722835
C101  C     C_R   0.411434 0.499213 0.265013 0.741211
C102  C     C_R   0.499791 0.264910 0.411025 0.720743
C103  C     C_R   0.498618 0.361099 0.289944 -0.059827
C104  C     C_R   0.290774 0.496295 0.362050 -0.069668
C105  C     C_R   0.362504 0.291154 0.495443 -0.072112
C106  C     C_R   0.291672 0.363681 0.493299 -0.075759
C107  C     C_R   0.363117 0.494494 0.291147 -0.078977
C108  C     C_R   0.496653 0.290364 0.362186 -0.065955
C109  C     C_R   0.499188 0.336825 0.265896 -0.098279
C110  C     C_R   0.268469 0.491641 0.339709 -0.101338
C111  C     C_R   0.340381 0.269150 0.490195 -0.102908
C112  C     C_R   0.270367 0.342329 0.486135 -0.052193
C113  C     C_R   0.341312 0.488489 0.269361 -0.060946
C114  C     C_R   0.495663 0.266673 0.338640 -0.049617
H34   H     H_    0.501527 0.354302 0.228196 0.155705
H35   H     H_    0.231572 0.491262 0.358237 0.152227
H36   H     H_    0.358810 0.232186 0.490075 0.153884
H37   H     H_    0.234718 0.362226 0.482466 0.164433
H38   H     H_    0.360978 0.485360 0.233524 0.160875
H39   H     H_    0.494909 0.229941 0.357386 0.164032
H40   H     H_    0.964577 0.281630 0.546480 0.177754
H41   H     H_    0.592232 0.946091 0.273677 0.173042
H42   H     H_    0.333423 0.418692 0.998249 0.128385
H43   H     H_    0.590041 0.274527 0.947321 0.127761
H44   H     H_    0.330660 0.998929 0.416689 0.174868
H45   H     H_    0.998394 0.417098 0.333112 0.170172
O61   O     O_R   0.511410 0.775980 0.429490 -0.593164
O62   O     O_R   0.429490 0.511410 0.775980 -0.563645
O63   O     O_R   0.775980 0.429490 0.511410 -0.588900
O64   O     O_R   0.429490 0.775980 0.511410 -0.558790
O65   O     O_R   0.775980 0.511410 0.429490 -0.588133
O66   O     O_R   0.511410 0.429490 0.775980 -0.595193
O67   O     O_R   0.512270 0.842050 0.428760 -0.592997
O68   O     O_R   0.428760 0.512270 0.842050 -0.563687
O69   O     O_R   0.842050 0.428760 0.512270 -0.587201
O70   O     O_R   0.428760 0.842050 0.512270 -0.557207
O71   O     O_R   0.842050 0.512270 0.428760 -0.585476
O72   O     O_R   0.512270 0.428760 0.842050 -0.600173
C115  C     C_R   0.523377 0.815986 0.403510 0.717418
C116  C     C_R   0.412291 0.497987 0.824509 0.803231
C117  C     C_R   0.824154 0.410752 0.500316 0.717156
C118  C     C_R   0.412441 0.824522 0.497843 0.809031
C119  C     C_R   0.824339 0.499416 0.411321 0.719748
C120  C     C_R   0.523197 0.403521 0.816094 0.708568
C121  C     C_R   0.529780 0.838946 0.351534 -0.052653
C122  C     C_R   0.364045 0.492489 0.851519 -0.074113
C123  C     C_R   0.850900 0.362313 0.495915 -0.057970
C124  C     C_R   0.364168 0.851476 0.492606 -0.076620
C125  C     C_R   0.851413 0.494020 0.363225 -0.056883
C126  C     C_R   0.529140 0.351697 0.839303 -0.046415
C127  C     C_R   0.533522 0.885558 0.326170 -0.189636
C128  C     C_R   0.342249 0.485850 0.901334 -0.190847
C129  C     C_R   0.900281 0.339921 0.491105 -0.193113
C130  C     C_R   0.342446 0.901294 0.485899 -0.187367
C131  C     C_R   0.901509 0.486268 0.341944 -0.196700
C132  C     C_R   0.532190 0.326609 0.886187 -0.198992
H46   H     H_    0.533738 0.904042 0.344473 0.156648
H47   H     H_    0.361467 0.483735 0.920424 0.147045
H48   H     H_    0.919181 0.358690 0.490008 0.156503
H49   H     H_    0.361861 0.920535 0.483212 0.152227
H50   H     H_    0.920740 0.483551 0.361390 0.149986
H51   H     H_    0.532304 0.345001 0.904652 0.149044
O73   O     O_R   0.429600 0.775990 0.283160 -0.552714
O74   O     O_R   0.283160 0.429600 0.775990 -0.585883
O75   O     O_R   0.775990 0.283160 0.429600 -0.567842
O76   O     O_R   0.283160 0.775990 0.429600 -0.559237
O77   O     O_R   0.775990 0.429600 0.283160 -0.563689
O78   O     O_R   0.429600 0.283160 0.775990 -0.566514
O79   O     O_R   0.428860 0.842070 0.216970 -0.556097
O80   O     O_R   0.216970 0.428860 0.842070 -0.599450
O81   O     O_R   0.842070 0.216970 0.428860 -0.581676
O82   O     O_R   0.216970 0.842070 0.428860 -0.566555
O83   O     O_R   0.842070 0.428860 0.216970 -0.573350
O84   O     O_R   0.428860 0.216970 0.842070 -0.571873
C133  C     C_R   0.412291 0.824526 0.265204 0.792016
C134  C     C_R   0.256854 0.403608 0.815715 0.735461
C135  C     C_R   0.824137 0.264817 0.410718 0.717874
C136  C     C_R   0.264876 0.824105 0.410657 0.734684
C137  C     C_R   0.824322 0.411270 0.264954 0.725672
C138  C     C_R   0.403616 0.257553 0.816378 0.812996
C139  C     C_R   0.363485 0.851222 0.291114 -0.072162
C140  C     C_R   0.279544 0.351786 0.839098 -0.045839
C141  C     C_R   0.850687 0.290573 0.361985 -0.052876
C142  C     C_R   0.290748 0.850602 0.361857 -0.060386
C143  C     C_R   0.851085 0.362689 0.290843 -0.061253
C144  C     C_R   0.351870 0.280465 0.839758 -0.075953
C145  C     C_R   0.340259 0.900027 0.268013 -0.176814
C146  C     C_R   0.255236 0.327399 0.886823 -0.174157
C147  C     C_R   0.899434 0.267408 0.338749 -0.188552
C148  C     C_R   0.267289 0.899012 0.338161 -0.184557
C149  C     C_R   0.900197 0.339804 0.268066 -0.173300
C150  C     C_R   0.327731 0.256733 0.887784 -0.167545
H52   H     H_    0.359005 0.918993 0.231365 0.156555
H53   H     H_    0.218385 0.345904 0.905761 0.160571
H54   H     H_    0.918047 0.230274 0.356954 0.154087
H55   H     H_    0.229850 0.917420 0.355986 0.152529
H56   H     H_    0.919192 0.358475 0.231394 0.156671
H57   H     H_    0.346655 0.220499 0.907302 0.163439
H58   H     H_    0.001311 0.250112 0.421735 0.137284
H59   H     H_    0.478302 0.985625 0.224320 0.146730
H60   H     H_    0.203967 0.534134 0.971962 0.141571
H61   H     H_    0.476144 0.225187 0.986589 0.149976
H62   H     H_    0.206448 0.969685 0.539531 0.148505
H63   H     H_    0.972486 0.534256 0.204617 0.142619
C151  C     C_R   0.201594 0.246414 0.508937 -0.205067
C152  C     C_R   0.543379 0.192459 0.236955 -0.191040
C153  C     C_R   0.244460 0.511176 0.201172 -0.218695
C154  C     C_R   0.473897 0.255781 0.213979 -0.209600
C155  C     C_R   0.271450 0.226367 0.441121 -0.196190
C156  C     C_R   0.227498 0.441520 0.269968 -0.187449
C157  C     C_R   0.224142 0.268221 0.513751 0.311850
C158  C     C_R   0.540079 0.217982 0.261305 0.304056
C159  C     C_R   0.265924 0.516578 0.223703 0.311465
C160  C     C_R   0.468009 0.281178 0.240146 0.327268
C161  C     C_R   0.294255 0.249928 0.443432 0.333954
C162  C     C_R   0.250948 0.444350 0.292500 0.325246
C163  C     C_R   0.270661 0.270941 0.480373 -0.145274
C164  C     C_R   0.501698 0.262535 0.263769 -0.152520
C165  C     C_R   0.269995 0.482604 0.269606 -0.154235
Cu1   Cu    Cu3+1 0.500020 0.500020 0.260100 1.133604
Cu2   Cu    Cu3+1 0.260100 0.500020 0.500020 1.128387
Cu3   Cu    Cu3+1 0.500020 0.260100 0.500020 1.136432
Cu4   Cu    Cu3+1 0.500030 0.500030 0.180750 1.023590
Cu5   Cu    Cu3+1 0.180750 0.500030 0.500030 1.019980
Cu6   Cu    Cu3+1 0.500030 0.180750 0.500030 1.028113
Cu7   Cu    Cu3+1 0.260230 0.739800 0.500010 1.072927
Cu8   Cu    Cu3+1 0.500010 0.260230 0.739800 1.063499
Cu9   Cu    Cu3+1 0.739800 0.500010 0.260230 1.068605
Cu10  Cu    Cu3+1 0.500010 0.739800 0.260230 1.061751
Cu11  Cu    Cu3+1 0.739800 0.260230 0.500010 1.068637
Cu12  Cu    Cu3+1 0.260230 0.500010 0.739800 1.065544
Cu13  Cu    Cu3+1 0.180880 0.819150 0.500010 1.035233
Cu14  Cu    Cu3+1 0.500010 0.180880 0.819150 1.034423
Cu15  Cu    Cu3+1 0.819150 0.500010 0.180880 0.986098
Cu16  Cu    Cu3+1 0.500010 0.819150 0.180880 1.041573
Cu17  Cu    Cu3+1 0.819150 0.180880 0.500010 1.035474
Cu18  Cu    Cu3+1 0.180880 0.500010 0.819150 1.028897
C166  C     C_R   0.192232 0.119522 0.189237 0.095546
C167  C     C_R   0.188485 0.189010 0.115263 0.007567
C168  C     C_R   0.120551 0.192110 0.190494 0.010131
C169  C     C_R   0.673908 0.464541 0.187610 0.312020
C170  C     C_R   0.170810 0.659071 0.510858 0.300784
C171  C     C_R   0.510820 0.171078 0.658923 0.300442
C172  C     C_R   0.187363 0.465011 0.673807 0.310565
C173  C     C_R   0.510854 0.658899 0.171070 0.291189
C174  C     C_R   0.673953 0.187588 0.464414 0.307391
C175  C     C_R   0.720761 0.468287 0.090152 0.135834
C176  C     C_R   0.078921 0.710665 0.499306 0.132575
C177  C     C_R   0.501051 0.078618 0.709917 0.133064
C178  C     C_R   0.089718 0.469226 0.720499 0.127486
C179  C     C_R   0.500999 0.709842 0.078643 0.117206
C180  C     C_R   0.720493 0.089781 0.469175 0.123787
C181  C     C_R   0.170878 0.661677 0.662435 -0.188982
C182  C     C_R   0.662397 0.170821 0.661691 -0.197935
C183  C     C_R   0.662299 0.661244 0.170821 -0.167891
H64   H     H_    0.209871 0.646458 0.647173 0.199510
H65   H     H_    0.647119 0.209773 0.646492 0.198656
H66   H     H_    0.648182 0.647350 0.209996 0.195622
C184  C     C_R   0.069565 0.702480 0.703090 -0.056929
C185  C     C_R   0.703090 0.069567 0.702561 -0.058070
C186  C     C_R   0.701343 0.699105 0.069101 -0.005400
C187  C     C_R   0.338952 0.826978 0.495786 -0.205142
C188  C     C_R   0.528207 0.328018 0.815980 -0.218706
C189  C     C_R   0.826861 0.497212 0.338119 -0.213553
C190  C     C_R   0.528665 0.815650 0.327921 -0.221196
C191  C     C_R   0.826869 0.338071 0.496936 -0.214007
C192  C     C_R   0.339072 0.494999 0.827149 -0.202009
H67   H     H_    0.355845 0.788730 0.500273 0.173248
H68   H     H_    0.525643 0.347355 0.779929 0.173452
H69   H     H_    0.788405 0.502509 0.354732 0.174231
H70   H     H_    0.525536 0.779831 0.347450 0.174323
H71   H     H_    0.788768 0.355337 0.500625 0.173366
H72   H     H_    0.355976 0.499549 0.788897 0.173232
C193  C     C_R   0.295072 0.926155 0.484120 0.084544
C194  C     C_R   0.532724 0.278512 0.910363 0.081904
C195  C     C_R   0.926692 0.483204 0.295066 0.083933
C196  C     C_R   0.534580 0.909470 0.277889 0.080225
C197  C     C_R   0.925604 0.293361 0.487413 0.081244
C198  C     C_R   0.295163 0.483195 0.926424 0.088338
C199  C     C_R   0.496822 0.337877 0.338092 -0.194865
C200  C     C_R   0.338135 0.497093 0.337825 -0.197844
C201  C     C_R   0.338203 0.338448 0.496447 -0.194893
H73   H     H_    0.496777 0.356434 0.356504 0.178313
H74   H     H_    0.355265 0.500795 0.355000 0.178525
H75   H     H_    0.355127 0.355269 0.500873 0.181522
C202  C     C_R   0.497748 0.289445 0.290096 0.167720
C203  C     C_R   0.293720 0.487310 0.293372 0.173864
C204  C     C_R   0.294420 0.294734 0.484949 0.172930
C205  C     C_R   0.338930 0.827217 0.338398 -0.198888
C206  C     C_R   0.327363 0.327663 0.815453 -0.192051
C207  C     C_R   0.827010 0.338316 0.338118 -0.195913
H76   H     H_    0.356963 0.789808 0.356552 0.173098
H77   H     H_    0.346228 0.346396 0.778752 0.180715
H78   H     H_    0.789357 0.356160 0.355976 0.177933
C208  C     C_R   0.291974 0.923947 0.291270 0.088053
C209  C     C_R   0.279455 0.280073 0.911488 0.080301
C210  C     C_R   0.924420 0.291944 0.291804 0.083924
O85   O     O_R   0.488840 0.716740 0.570530 -0.566966
O86   O     O_R   0.570530 0.488840 0.716740 -0.503821
O87   O     O_R   0.716740 0.570530 0.488840 -0.503899
O88   O     O_R   0.570530 0.716740 0.488840 -0.552897
O89   O     O_R   0.716740 0.488840 0.570530 -0.502109
O90   O     O_R   0.488840 0.570530 0.716740 -0.521507
O91   O     O_R   0.487970 0.782940 0.571270 -0.552659
O92   O     O_R   0.571270 0.487970 0.782940 -0.603338
O93   O     O_R   0.782940 0.571270 0.487970 -0.571741
O94   O     O_R   0.571270 0.782940 0.487970 -0.595258
O95   O     O_R   0.782940 0.487970 0.571270 -0.570301
O96   O     O_R   0.487970 0.571270 0.782940 -0.584219
C211  C     C_R   0.503606 0.734258 0.586888 0.786477
C212  C     C_R   0.596488 0.474227 0.743949 0.727645
C213  C     C_R   0.743949 0.596452 0.474245 0.791716
C214  C     C_R   0.596466 0.743976 0.474198 0.718700
C215  C     C_R   0.743981 0.474205 0.596457 0.791736
C216  C     C_R   0.503690 0.586787 0.734355 0.865367
C217  C     C_R   0.509371 0.707024 0.635252 -0.146604
C218  C     C_R   0.649098 0.466640 0.721170 -0.098176
C219  C     C_R   0.721124 0.648974 0.466863 -0.124065
C220  C     C_R   0.649074 0.721239 0.466581 -0.106429
C221  C     C_R   0.721257 0.466583 0.649049 -0.126196
C222  C     C_R   0.510006 0.634932 0.707143 -0.071003
C223  C     C_R   0.502263 0.732797 0.661716 -0.179236
C224  C     C_R   0.672534 0.469311 0.743870 -0.208824
C225  C     C_R   0.743692 0.672175 0.470048 -0.198423
C226  C     C_R   0.672409 0.743800 0.469584 -0.208286
C227  C     C_R   0.743978 0.469322 0.672437 -0.202114
C228  C     C_R   0.502992 0.661427 0.732867 -0.217213
H79   H     H_    0.496882 0.771224 0.645056 0.157112
H80   H     H_    0.653363 0.471312 0.780123 0.154343
H81   H     H_    0.779804 0.652891 0.472528 0.156494
H82   H     H_    0.652923 0.779514 0.472999 0.159846
H83   H     H_    0.779694 0.472765 0.652904 0.158886
H84   H     H_    0.499376 0.644153 0.770875 0.153049
C229  C     C_R   0.266488 0.974044 0.265534 0.052412
C230  C     C_R   0.255982 0.256675 0.963368 -0.000067
C231  C     C_R   0.974771 0.266452 0.266494 0.000497
C232  C     C_R   0.218425 0.069231 0.214640 -0.016253
C233  C     C_R   0.211448 0.212634 0.062891 -0.071955
C234  C     C_R   0.070396 0.217847 0.216788 -0.075173
H85   H     H_    0.315737 0.003320 0.254954 0.176015
H86   H     H_    0.198969 0.256568 0.952385 0.196111
H87   H     H_    0.955772 0.211511 0.272732 0.196573
H88   H     H_    0.212522 0.954602 0.270198 0.154822
H89   H     H_    0.003513 0.316749 0.254621 0.177248
H90   H     H_    0.308057 0.252924 0.984589 0.179304
Cu19  Cu    Cu3+1 0.500070 0.739800 0.500070 1.008234
Cu20  Cu    Cu3+1 0.500070 0.500070 0.739800 1.053830
Cu21  Cu    Cu3+1 0.739800 0.500070 0.500070 1.061673
Cu22  Cu    Cu3+1 0.500070 0.819140 0.500070 0.981649
Cu23  Cu    Cu3+1 0.500070 0.500070 0.819140 0.963447
Cu24  Cu    Cu3+1 0.819140 0.500070 0.500070 0.980604
C235  C     C_R   0.519875 0.656171 0.656356 -0.065294
C236  C     C_R   0.675168 0.460995 0.675135 -0.021031
C237  C     C_R   0.675139 0.675171 0.461001 -0.040929
C238  C     C_R   0.501498 0.709745 0.709782 0.076719
C239  C     C_R   0.720464 0.469372 0.720326 0.075433
C240  C     C_R   0.720129 0.720026 0.470174 0.073288
C241  C     C_R   0.865531 0.796084 0.796052 0.328646
C242  C     C_R   0.794933 0.865401 0.797112 0.328082
C243  C     C_R   0.795895 0.794699 0.866309 0.332766
N1    N     N_R   0.842611 0.772367 0.842442 -0.366414
N2    N     N_R   0.841647 0.842696 0.773665 -0.370050
N3    N     N_R   0.772276 0.841332 0.843542 -0.374850
C244  C     C_R   0.932185 0.729554 0.763024 -0.152060
C245  C     C_R   0.762434 0.932081 0.730194 -0.155056
C246  C     C_R   0.726046 0.766742 0.932776 -0.158106
C247  C     C_R   0.794883 0.747763 0.951910 -0.157225
C248  C     C_R   0.755707 0.951859 0.793223 -0.167232
C249  C     C_R   0.951903 0.792425 0.756733 -0.168700
C250  C     C_R   0.981332 0.707305 0.739835 -0.186631
C251  C     C_R   0.739735 0.981264 0.707587 -0.184572
C252  C     C_R   0.703666 0.742645 0.981426 -0.143223
C253  C     C_R   0.771736 0.725366 0.000805 -0.103154
C254  C     C_R   0.734680 0.001079 0.769760 -0.111246
C255  C     C_R   0.001108 0.769297 0.735218 -0.112859
C256  C     C_R   0.016485 0.726607 0.726237 0.051859
C257  C     C_R   0.726126 0.016471 0.726812 0.051862
C258  C     C_R   0.725863 0.722441 0.016240 0.132197
C259  C     C_R   0.917103 0.772482 0.771324 0.104757
C260  C     C_R   0.770245 0.916985 0.773410 0.106470
C261  C     C_R   0.771962 0.769306 0.917569 0.104863
H91   H     H_    0.992020 0.674759 0.732948 0.159487
H92   H     H_    0.733186 0.991917 0.674859 0.160387
H93   H     H_    0.668722 0.740294 0.992038 0.158513
H94   H     H_    0.789656 0.710172 0.026771 0.135930
H95   H     H_    0.725192 0.027353 0.785080 0.173054
H96   H     H_    0.027378 0.784643 0.725718 0.174011
H97   H     H_    0.905847 0.713640 0.773931 0.156039
H98   H     H_    0.773396 0.905731 0.714287 0.150393
H99   H     H_    0.707846 0.782773 0.906852 0.152350
H100  H     H_    0.830239 0.749377 0.941065 0.143166
H101  H     H_    0.761814 0.941089 0.826249 0.146805
H102  H     H_    0.941091 0.825301 0.763132 0.147477
C262  C     C_R   0.884123 0.813087 0.489739 0.058836
C263  C     C_R   0.498211 0.881972 0.810156 0.058124
C264  C     C_R   0.816441 0.478193 0.888902 0.056237
C265  C     C_R   0.498046 0.809876 0.882021 0.058737
C266  C     C_R   0.814262 0.887236 0.483588 0.059177
C267  C     C_R   0.888530 0.478977 0.816639 0.131375
C268  C     C_R   0.814918 0.815652 0.481568 0.061628
C269  C     C_R   0.495598 0.810916 0.810558 0.058979
C270  C     C_R   0.817516 0.475860 0.817269 0.057207
C271  C     C_R   0.860597 0.861581 0.487922 -0.175853
C272  C     C_R   0.498407 0.857622 0.857940 -0.177494
C273  C     C_R   0.864051 0.479174 0.864475 -0.164600
H103  H     H_    0.878152 0.879219 0.490451 0.150769
H104  H     H_    0.500051 0.875410 0.875973 0.152040
H105  H     H_    0.882015 0.480405 0.882633 0.151452
C274  C     C_R   0.791837 0.864210 0.480051 -0.196509
C275  C     C_R   0.496131 0.786904 0.858401 -0.197725
C276  C     C_R   0.865254 0.476906 0.793411 -0.111468
C277  C     C_R   0.496227 0.858716 0.786912 -0.195552
C278  C     C_R   0.861332 0.790552 0.486065 -0.196493
C279  C     C_R   0.793582 0.476139 0.865236 -0.207963
H106  H     H_    0.756065 0.884148 0.476717 0.137062
H107  H     H_    0.496276 0.749874 0.877042 0.137845
H108  H     H_    0.884319 0.476642 0.756515 0.126748
H109  H     H_    0.495158 0.878079 0.750300 0.140595
H110  H     H_    0.880260 0.753573 0.486018 0.137604
H111  H     H_    0.757357 0.473936 0.884628 0.136910
C280  C     C_R   0.970807 0.805250 0.457486 -0.214063
C281  C     C_R   0.462066 0.968726 0.802910 -0.212465
C282  C     C_R   0.813696 0.439887 0.974484 -0.212349
C283  C     C_R   0.461810 0.802498 0.968774 -0.209780
C284  C     C_R   0.813291 0.972276 0.444409 -0.206597
C285  C     C_R   0.974318 0.440214 0.812884 -0.256261
C286  C     C_R   0.018816 0.780870 0.457473 0.343372
C287  C     C_R   0.460520 0.017172 0.778971 0.344026
C288  C     C_R   0.791200 0.435254 0.023792 0.343964
C289  C     C_R   0.460342 0.778703 0.017192 0.344172
C290  C     C_R   0.791260 0.021887 0.438601 0.342859
C291  C     C_R   0.023686 0.435464 0.790162 0.349528
C292  C     C_R   0.029592 0.736980 0.495411 -0.056968
C293  C     C_R   0.498727 0.028828 0.735742 -0.060882
C294  C     C_R   0.745502 0.469583 0.038980 -0.053765
C295  C     C_R   0.498639 0.735570 0.028867 -0.054863
C296  C     C_R   0.744872 0.038248 0.471545 -0.047440
C297  C     C_R   0.038509 0.470671 0.745262 0.002963
C298  C     C_R   0.992237 0.718336 0.531759 -0.211070
C299  C     C_R   0.537034 0.991935 0.717429 -0.203459
C300  C     C_R   0.723367 0.507117 0.004495 -0.192396
C301  C     C_R   0.536926 0.717167 0.992029 -0.193392
C302  C     C_R   0.721621 0.004580 0.508851 -0.192981
C303  C     C_R   0.003613 0.509350 0.724230 -0.309356
C304  C     C_R   0.944180 0.742613 0.531654 0.021564
C305  C     C_R   0.538558 0.943459 0.741361 0.011480
C306  C     C_R   0.745779 0.511615 0.955139 0.006065
C307  C     C_R   0.538373 0.740955 0.943574 0.004315
C308  C     C_R   0.743498 0.954977 0.514413 0.001369
C309  C     C_R   0.954183 0.514341 0.747079 0.013804
C310  C     C_R   0.933475 0.786502 0.493640 -0.050538
C311  C     C_R   0.500139 0.931911 0.784354 -0.050934
C312  C     C_R   0.791436 0.477170 0.940020 -0.042990
C313  C     C_R   0.499891 0.783894 0.931996 -0.051009
C314  C     C_R   0.789848 0.938692 0.481407 -0.048933
C315  C     C_R   0.939391 0.478685 0.791771 0.017785
H112  H     H_    0.000666 0.685113 0.561102 0.186857
H113  H     H_    0.566564 0.001110 0.684790 0.197198
H114  H     H_    0.688808 0.533826 0.016225 0.193026
H115  H     H_    0.566511 0.684581 0.001226 0.198175
H116  H     H_    0.686546 0.017148 0.534567 0.190747
H117  H     H_    0.015006 0.536788 0.690296 0.150837
H118  H     H_    0.962649 0.838459 0.428047 0.192933
H119  H     H_    0.432516 0.959733 0.835596 0.193362
H120  H     H_    0.848301 0.413123 0.962989 0.190113
H121  H     H_    0.432226 0.835160 0.959759 0.192708
H122  H     H_    0.848455 0.959846 0.418735 0.191995
H123  H     H_    0.963110 0.412646 0.846719 0.190424
C316  C     C_R   0.794535 0.742445 0.506975 -0.166118
C317  C     C_R   0.524904 0.791435 0.735908 -0.163733
C318  C     C_R   0.743528 0.501882 0.797793 -0.151974
C319  C     C_R   0.468171 0.755201 0.808764 -0.154540
C320  C     C_R   0.763192 0.816215 0.447567 -0.150608
C321  C     C_R   0.817972 0.445481 0.762629 -0.159599
C322  C     C_R   0.771773 0.719378 0.504252 -0.161197
C323  C     C_R   0.526169 0.767169 0.711707 -0.162137
C324  C     C_R   0.720152 0.500474 0.774394 -0.164702
C325  C     C_R   0.469451 0.730870 0.784513 -0.162403
C326  C     C_R   0.740292 0.793183 0.444980 -0.165117
C327  C     C_R   0.794580 0.444016 0.739285 -0.163390
C328  C     C_R   0.744395 0.744458 0.473194 0.101827
C329  C     C_R   0.498596 0.736472 0.735696 0.103636
C330  C     C_R   0.745340 0.471409 0.744929 0.103518
C331  C     C_R   0.790627 0.791150 0.478604 0.106056
C332  C     C_R   0.495980 0.785701 0.784764 0.107221
C333  C     C_R   0.792719 0.474356 0.792265 0.109606
H124  H     H_    0.774939 0.682084 0.527110 0.139557
H125  H     H_    0.549640 0.771613 0.674380 0.136709
H126  H     H_    0.682483 0.522756 0.778826 0.137468
H127  H     H_    0.447232 0.708064 0.803855 0.140754
H128  H     H_    0.719941 0.813304 0.420283 0.141819
H129  H     H_    0.814873 0.420749 0.717409 0.139942
H130  H     H_    0.814593 0.722306 0.531932 0.136532
H131  H     H_    0.547463 0.813912 0.716597 0.137452
H132  H     H_    0.723245 0.525141 0.819680 0.139670
H133  H     H_    0.445015 0.750526 0.846197 0.143596
H134  H     H_    0.760014 0.853491 0.424653 0.146653
H135  H     H_    0.855680 0.423310 0.758134 0.140309
C334  C     C_R   0.127781 0.199346 0.473677 0.033397
C335  C     C_R   0.531009 0.108494 0.180883 0.030180
C336  C     C_R   0.202435 0.465319 0.129912 0.097855
C337  C     C_R   0.529046 0.181367 0.109436 0.107196
C338  C     C_R   0.201778 0.128914 0.468349 0.039315
C339  C     C_R   0.130754 0.463514 0.202975 0.032002
C340  C     C_R   0.200999 0.200482 0.470317 0.109671
C341  C     C_R   0.517018 0.184506 0.185287 0.109005
C342  C     C_R   0.200786 0.470071 0.200426 0.111396
C343  C     C_R   0.152494 0.223584 0.471992 -0.176927
C344  C     C_R   0.522277 0.135057 0.207309 -0.189698
C345  C     C_R   0.224489 0.469994 0.152465 -0.104176
C346  C     C_R   0.519511 0.207673 0.136561 -0.108585
C347  C     C_R   0.225397 0.153093 0.468609 -0.203691
C348  C     C_R   0.153823 0.467149 0.225300 -0.215460
H136  H     H_    0.133572 0.260277 0.472928 0.156695
H137  H     H_    0.519200 0.117284 0.245219 0.151663
H138  H     H_    0.260300 0.473260 0.132728 0.136640
H139  H     H_    0.515345 0.245852 0.119336 0.130037
H140  H     H_    0.262307 0.134464 0.468988 0.142773
H141  H     H_    0.134616 0.469269 0.261540 0.142037
C349  C     C_R   0.152892 0.152368 0.471002 -0.185505
C350  C     C_R   0.534172 0.131977 0.132011 -0.175180
C351  C     C_R   0.155486 0.462377 0.155371 -0.168730
H142  H     H_    0.134019 0.133595 0.472060 0.133910
H143  H     H_    0.541134 0.111633 0.111338 0.138366
H144  H     H_    0.137927 0.459628 0.137897 0.143093
C352  C     C_R   0.040316 0.242672 0.516463 -0.000378
C353  C     C_R   0.567760 0.021327 0.230224 0.001345
C354  C     C_R   0.274880 0.435655 0.061405 0.012132
C355  C     C_R   0.565799 0.230861 0.022202 0.014398
C356  C     C_R   0.273018 0.061500 0.436272 0.001627
C357  C     C_R   0.062041 0.434105 0.275039 0.016129
C358  C     C_R   0.991745 0.266512 0.517908 -0.131545
C359  C     C_R   0.567072 0.973425 0.254249 -0.140381
C360  C     C_R   0.296932 0.442213 0.011537 -0.256007
C361  C     C_R   0.564785 0.255163 0.974524 -0.259485
C362  C     C_R   0.295274 0.011729 0.441904 -0.144477
C363  C     C_R   0.011980 0.440717 0.296903 -0.141375
C364  C     C_R   0.977221 0.269280 0.484151 0.054741
C365  C     C_R   0.535227 0.959941 0.252248 0.052830
C366  C     C_R   0.271774 0.477307 0.978849 0.108003
C367  C     C_R   0.533031 0.253115 0.960963 0.103814
C368  C     C_R   0.271579 0.978331 0.478783 0.052250
C369  C     C_R   0.979297 0.476569 0.271908 0.056026
C370  C     C_R   0.011821 0.248307 0.448162 -0.158910
C371  C     C_R   0.503604 0.994948 0.225986 -0.152825
C372  C     C_R   0.224046 0.506548 0.996456 -0.156706
C373  C     C_R   0.501400 0.226877 0.995954 -0.156325
C374  C     C_R   0.225267 0.994863 0.510608 -0.161724
C375  C     C_R   0.996991 0.506140 0.224536 -0.159179
C376  C     C_R   0.060432 0.225723 0.445340 -0.129122
C377  C     C_R   0.503242 0.042656 0.202730 -0.136152
C378  C     C_R   0.202157 0.501549 0.045544 -0.203865
C379  C     C_R   0.501029 0.203633 0.043687 -0.195820
C380  C     C_R   0.203289 0.043726 0.506352 -0.160561
C381  C     C_R   0.046164 0.500799 0.202809 -0.157365
N4    N     N_R   0.652619 0.455839 0.238821 0.134315
O97   O     O_R   0.626771 0.491930 0.255399 -0.284827
O98   O     O_R   0.654977 0.411975 0.268702 -0.307753
N5    N     N_R   0.213427 0.630964 0.524768 0.123292
O99   O     O_R   0.209069 0.612654 0.570340 -0.369072
O100  O     O_R   0.256425 0.625552 0.492087 -0.293362
N6    N     N_R   0.523975 0.214082 0.631005 0.124622
O101  O     O_R   0.569502 0.210410 0.609336 -0.363726
O102  O     O_R   0.490740 0.256750 0.626389 -0.293070
N7    N     N_R   0.238640 0.456223 0.652552 0.132180
O103  O     O_R   0.255317 0.492227 0.626498 -0.284160
O104  O     O_R   0.268629 0.412107 0.656747 -0.332004
N8    N     N_R   0.524106 0.630986 0.214027 0.124687
O105  O     O_R   0.569657 0.610808 0.210284 -0.361864
O106  O     O_R   0.490940 0.626162 0.256713 -0.293887
N9    N     N_R   0.652842 0.238890 0.455251 0.133700
O107  O     O_R   0.627036 0.255853 0.491066 -0.283466
O108  O     O_R   0.654885 0.268420 0.411333 -0.306758
C382  C     C_2   0.066598 0.626153 0.774152 0.366042
H145  H     H_    0.038255 0.642917 0.801270 0.084402
O109  O     O_2   0.073219 0.584509 0.781355 -0.532848
C383  C     C_2   0.774361 0.066531 0.626321 0.365188
H146  H     H_    0.801387 0.038131 0.643192 0.084705
O110  O     O_2   0.781753 0.073164 0.584620 -0.535044
C384  C     C_2   0.629899 0.775626 0.067420 0.357049
H147  H     H_    0.648401 0.801993 0.042316 0.077813
O111  O     O_2   0.588554 0.785764 0.070563 -0.547507
C385  C     C_2   0.763006 0.615238 0.067988 0.357024
H148  H     H_    0.777297 0.577259 0.087566 0.100740
O112  O     O_2   0.777679 0.627346 0.023901 -0.523950
C386  C     C_2   0.627677 0.067831 0.774433 0.390245
H149  H     H_    0.608354 0.050681 0.773703 0.051644
O113  O     O_2   0.626379 0.063160 0.813190 -0.518847
C387  C     C_2   0.067646 0.774707 0.628125 0.384999
H150  H     H_    0.049652 0.774289 0.609414 0.051351
O114  O     O_2   0.063631 0.813312 0.626580 -0.515821
C388  C     C_2   0.277565 0.098535 0.208949 0.369620
H151  H     H_    0.256911 0.136191 0.194748 0.067558
O115  O     O_2   0.315533 0.089289 0.212883 -0.524504
C389  C     C_2   0.148719 0.211896 0.043120 0.409351
H152  H     H_    0.133731 0.190185 0.079993 0.106494
O116  O     O_2   0.129603 0.225481 0.013954 -0.493236
C390  C     C_2   0.040434 0.158528 0.223840 0.393486
H153  H     H_    0.073846 0.144533 0.197534 0.141478
O117  O     O_2   0.009582 0.139394 0.244373 -0.493503
C391  C     C_2   0.161297 0.036717 0.220205 0.385623
H154  H     H_    0.142524 0.010423 0.242537 0.096631
O118  O     O_2   0.149918 0.069294 0.185227 -0.529064
C392  C     C_2   0.099056 0.278672 0.208857 0.356612
H155  H     H_    0.136813 0.258708 0.193699 0.087088
O119  O     O_2   0.089519 0.316625 0.212947 -0.539455
C393  C     C_2   0.273959 0.214838 0.081728 0.369658
H156  H     H_    0.253991 0.205325 0.120224 0.073476
O120  O     O_2   0.313267 0.218737 0.067741 -0.533217
C394  C     C_2   0.546282 0.625458 0.624913 0.381534
H157  H     H_    0.549023 0.640864 0.587285 0.125772
O121  O     O_2   0.569021 0.582520 0.639649 -0.490205
C395  C     C_2   0.656067 0.445561 0.656140 0.410623
H158  H     H_    0.664523 0.407255 0.665097 0.019670
O122  O     O_2   0.630874 0.475417 0.630649 -0.451814
C396  C     C_2   0.656011 0.656128 0.445646 0.404397
H159  H     H_    0.664413 0.665043 0.407365 0.033449
O123  O     O_2   0.630819 0.630665 0.475566 -0.488271
N10   N     N_R   0.056107 0.800268 0.417892 0.122979
O124  O     O_R   0.098774 0.771564 0.400247 -0.308377
O125  O     O_R   0.045788 0.846778 0.395436 -0.331146
N11   N     N_R   0.419337 0.053899 0.798176 0.123930
O126  O     O_R   0.401868 0.096455 0.769301 -0.310360
O127  O     O_R   0.395591 0.043157 0.844483 -0.329304
N12   N     N_R   0.814446 0.394656 0.057836 0.122322
O128  O     O_R   0.788970 0.372567 0.100264 -0.307447
O129  O     O_R   0.861515 0.375858 0.044408 -0.322265
N13   N     N_R   0.419161 0.797966 0.053872 0.123554
O130  O     O_R   0.395333 0.844273 0.043048 -0.324718
O131  O     O_R   0.401767 0.769122 0.096472 -0.307680
N14   N     N_R   0.815679 0.055029 0.398165 0.121789
O132  O     O_R   0.862833 0.040797 0.380922 -0.318949
O133  O     O_R   0.791329 0.097307 0.374633 -0.301713
N15   N     N_R   0.058131 0.393928 0.812330 0.119871
O134  O     O_R   0.045170 0.373558 0.859191 -0.318349
O135  O     O_R   0.100511 0.372779 0.785905 -0.314674
C397  C     C_2   0.905497 0.722794 0.572469 0.353312
H160  H     H_    0.867598 0.743621 0.576313 0.083123
O136  O     O_2   0.915469 0.682878 0.602762 -0.551275
C398  C     C_2   0.581375 0.905226 0.722246 0.365114
H161  H     H_    0.585645 0.867222 0.742496 0.072393
O137  O     O_2   0.612942 0.915692 0.683622 -0.492482
C399  C     C_2   0.722034 0.553547 0.919821 0.384975
H162  H     H_    0.741494 0.561951 0.881210 0.092483
O138  O     O_2   0.680258 0.579592 0.933480 -0.491156
C400  C     C_2   0.581193 0.721769 0.905405 0.373441
H163  H     H_    0.585537 0.742061 0.867396 0.076632
O139  O     O_2   0.612654 0.683028 0.915933 -0.486577
C401  C     C_2   0.718361 0.920623 0.555934 0.381368
H164  H     H_    0.737259 0.881863 0.565439 0.079387
O140  O     O_2   0.676019 0.935268 0.580335 -0.491061
C402  C     C_2   0.919773 0.558368 0.723613 0.369051
H165  H     H_    0.933335 0.579630 0.685953 0.109042
O141  O     O_2   0.876590 0.572597 0.746015 -0.520918
C403  C     C_2   0.052931 0.236588 0.555847 0.357561
H166  H     H_    0.087534 0.211457 0.560724 0.083341
O142  O     O_2   0.024430 0.259273 0.583911 -0.512804
C404  C     C_2   0.604462 0.033162 0.230337 0.367172
H167  H     H_    0.610320 0.067586 0.206814 0.099105
O143  O     O_2   0.629135 0.004262 0.256499 -0.516842
C405  C     C_2   0.302668 0.394704 0.093692 0.361514
H168  H     H_    0.341656 0.378725 0.078520 0.075577
O144  O     O_2   0.282591 0.376913 0.136812 -0.508746
C406  C     C_2   0.603492 0.231547 0.032093 0.348227
H169  H     H_    0.621030 0.258734 0.007168 0.076120
O145  O     O_2   0.616963 0.200996 0.066564 -0.516778
C407  C     C_2   0.297615 0.096064 0.394210 0.360144
H170  H     H_    0.278481 0.134773 0.384820 0.090936
O146  O     O_2   0.339644 0.081667 0.368996 -0.518236
C408  C     C_2   0.095781 0.393290 0.301343 0.367071
H171  H     H_    0.134681 0.383490 0.283115 0.099474
O147  O     O_2   0.080496 0.369573 0.343791 -0.532217
N16   N     N_R   0.200100 0.285454 0.554025 0.124325
O148  O     O_R   0.153060 0.304424 0.569309 -0.322954
O149  O     O_R   0.224112 0.275864 0.579858 -0.320355
N17   N     N_R   0.577202 0.199040 0.281519 0.127136
O150  O     O_R   0.596575 0.152459 0.300082 -0.322134
O151  O     O_R   0.596670 0.227493 0.275125 -0.315356
N18   N     N_R   0.281761 0.557723 0.200172 0.127161
O152  O     O_R   0.299078 0.574567 0.153134 -0.334078
O153  O     O_R   0.272713 0.582529 0.224947 -0.317414
N19   N     N_R   0.427181 0.325054 0.243099 0.125181
O154  O     O_R   0.409562 0.352175 0.207770 -0.356525
O155  O     O_R   0.403720 0.335007 0.283157 -0.277340
N20   N     N_R   0.340753 0.252750 0.407538 0.128214
O156  O     O_R   0.370240 0.218870 0.388096 -0.352392
O157  O     O_R   0.351614 0.291488 0.389997 -0.282152
N21   N     N_R   0.256293 0.407314 0.337729 0.124903
O158  O     O_R   0.223977 0.385920 0.367615 -0.362303
O159  O     O_R   0.296168 0.390453 0.346494 -0.294330

loop_
_geom_bond_atom_site_label_1
_geom_bond_atom_site_label_2
_geom_bond_distance
_ccdc_geom_bond_type
C90   C192  1.398853 A    
C395  O122  1.221211 D    
C352  C403  1.486665 S    
C194  C367  1.485411 S    
C337  C350  1.403930 A    
C54   H12   1.083747 S    
C66   C166  1.403564 A    
C304  C397  1.486601 S    
C32   C185  1.421897 A    
C252  H93   1.082869 S    
C63   C357  1.420865 A    
C85   C187  1.397268 A    
C106  C201  1.394982 A    
O52   Cu2   1.994785 S    
C86   C188  1.396881 A    
C399  H162  1.083999 S    
C75   C231  1.396817 A    
C384  H147  1.085200 S    
H43   C361  1.084223 S    
C320  C331  1.406939 A    
O94   Cu22  2.005319 S    
C219  C225  1.407648 A    
C157  C163  1.420933 A    
N11   O127  1.301436 A    
O90   Cu20  1.991355 S    
C361  C367  1.404057 A    
C149  C210  1.401818 A    
O6    Cu11  1.995911 S    
C210  C231  1.477121 S    
N5    O100  1.301803 A    
C366  C372  1.401359 A    
C197  C364  1.481083 S    
O77   Cu9   1.988101 S    
C365  C371  1.401645 A    
C63   C381  1.406047 A    
C112  H37   1.083715 S    
C155  C161  1.406781 A    
C68   C389  1.487903 S    
C106  C112  1.405538 A    
O66   C120  1.330697 S    
C350  H143  1.084037 S    
C326  C328  1.405863 A    
C267  C273  1.403127 A    
C334  C343  1.403540 A    
O27   Cu3   1.987343 S    
C391  H154  1.085650 S    
C38   C44   1.475616 S    
O63   C117  1.336524 S    
C237  C396  1.482391 S    
O5    Cu10  1.996027 S    
C294  C300  1.404652 A    
C59   C353  1.419943 A    
O71   C119  1.331002 S    
C49   C179  1.399293 A    
O53   C101  1.341151 S    
C99   C105  1.465244 S    
C247  H100  1.083210 S    
O32   Cu5   2.007385 S    
C371  C377  1.394242 A    
C347  H140  1.083687 S    
C297  C303  1.404286 A    
O87   Cu21  1.991060 S    
C339  C351  1.405861 A    
C242  N3    1.362569 A    
O23   C23   1.331475 S    
C88   C190  1.397735 A    
C171  N6    1.435355 S    
H60   C372  1.083090 S    
C299  C305  1.405921 A    
C149  H56   1.083781 S    
C245  C251  1.405864 A    
N21   O158  1.301536 A    
O58   C100  1.331197 S    
C383  O110  1.220963 D    
O87   C213  1.334830 S    
C62   C380  1.406510 A    
C159  N18   1.439047 S    
C138  C144  1.467948 S    
C68   C233  1.422022 A    
C407  O146  1.221346 D    
C46   C52   1.406635 A    
O20   Cu17  2.005268 S    
C187  H67   1.083338 S    
C175  C294  1.486685 S    
C394  H157  1.080537 S    
O92   C212  1.332202 S    
N19   O154  1.301473 A    
O25   C37   1.343530 S    
C172  N7    1.435138 S    
C199  H73   1.083706 S    
C134  C140  1.469471 S    
C324  H126  1.082616 S    
Cu21  Cu24  2.684130 S    
C95   H32   1.083682 S    
C66   H27   1.083873 S    
C327  H129  1.082845 S    
C100  C106  1.467415 S    
O18   Cu7   1.988457 S    
C271  H103  1.084030 S    
C309  C315  1.418709 A    
C56   C341  1.481977 S    
C317  C332  1.405802 A    
C62   C338  1.489741 S    
C217  C223  1.406948 A    
C327  C330  1.406687 A    
C267  C315  1.485722 S    
C218  C224  1.407388 A    
N16   O148  1.301388 A    
H20   C377  1.083555 S    
C135  C141  1.465085 S    
N8    O106  1.301840 A    
C321  H135  1.082736 S    
C145  C208  1.401788 A    
H17   C155  1.083484 S    
C226  C240  1.402190 A    
H42   C360  1.084276 S    
O12   C6    1.327514 S    
C109  C202  1.402760 A    
C369  C375  1.400588 A    
C345  H138  1.083791 S    
C401  O140  1.220918 D    
C111  C204  1.403593 A    
C70   C76   1.401479 A    
C290  N14   1.439301 S    
O95   C215  1.331197 S    
C22   C28   1.493476 S    
O29   Cu1   1.987692 S    
C64   H25   1.083910 S    
O96   C216  1.342077 S    
C335  C344  1.404248 A    
C132  H51   1.083513 S    
C406  O145  1.220519 D    
C269  C277  1.406806 A    
C105  C111  1.404613 A    
C180  C296  1.487415 S    
C322  C328  1.406066 A    
C355  C361  1.406980 A    
C72   C393  1.487515 S    
C37   C43   1.471952 S    
C129  C197  1.403241 A    
C264  C279  1.405896 A    
C78   H90   1.084099 S    
C93   C195  1.405713 A    
O20   C20   1.336482 S    
N19   O155  1.301106 A    
C17   H5    1.083620 S    
C289  C295  1.415258 A    
C74   C230  1.397210 A    
C251  C257  1.408267 A    
C76   H88   1.084674 S    
C61   C337  1.484992 S    
C188  H68   1.083529 S    
C26   C182  1.401089 A    
C280  C286  1.404583 A    
C74   H86   1.083821 S    
C372  C378  1.395859 A    
O82   Cu13  2.005531 S    
C59   C377  1.404749 A    
C300  C306  1.407231 A    
C340  C343  1.403621 A    
C320  C326  1.399756 A    
C13   C175  1.402128 A    
O30   Cu3   1.990085 S    
C141  C207  1.395450 A    
O33   C39   1.330698 S    
C102  C108  1.464174 S    
O76   Cu7   1.989078 S    
C70   C232  1.422042 A    
C307  C313  1.415084 A    
C18   H6    1.083607 S    
C191  H71   1.083458 S    
C291  N15   1.439729 S    
O19   Cu18  2.005098 S    
C34   C186  1.427761 A    
C170  N5    1.435388 S    
C116  C122  1.473691 S    
C283  C289  1.404751 A    
C288  C294  1.415307 A    
C304  C310  1.416185 A    
O21   Cu16  2.002951 S    
C321  C327  1.399938 A    
C141  C147  1.404333 A    
C64   C167  1.403972 A    
H40   C358  1.083863 S    
O67   C115  1.323762 S    
C53   C175  1.400695 A    
O81   Cu17  2.005836 S    
C403  O142  1.221320 D    
C225  C240  1.402630 A    
N12   O129  1.301410 A    
O9    C3    1.332924 S    
O28   C40   1.343200 S    
O62   Cu20  1.991439 S    
C196  C365  1.485079 S    
C319  H133  1.082745 S    
C198  C366  1.486937 S    
C69   C390  1.486291 S    
C193  C368  1.483135 S    
C390  H153  1.082057 S    
C10   C172  1.409782 A    
C113  H38   1.083703 S    
C136  C142  1.466995 S    
O50   C98   1.338392 S    
N14   O132  1.301423 A    
N10   O125  1.301425 A    
C341  C344  1.404700 A    
C247  C253  1.402043 A    
C382  H145  1.085119 S    
C326  H128  1.082971 S    
C264  C312  1.487562 S    
O10   C4    1.327699 S    
N8    O105  1.300534 A    
O49   Cu1   1.995075 S    
C45   C174  1.409653 A    
O46   Cu16  2.012758 S    
O61   Cu19  1.993838 S    
C78   C230  1.397475 A    
C359  C365  1.404230 A    
N6    O101  1.300526 A    
C52   C176  1.400011 A    
C90   C96   1.406065 A    
C55   C151  1.398915 A    
C150  C209  1.400368 A    
C14   H2    1.083601 S    
C59   C335  1.486161 S    
C286  C292  1.415341 A    
C249  H102  1.083258 S    
C89   C95   1.406260 A    
C239  C330  1.492084 S    
O74   Cu12  1.988596 S    
C246  H99   1.083096 S    
C386  O113  1.220714 D    
C15   H3    1.083679 S    
C244  H97   1.083049 S    
C283  H121  1.083787 S    
O22   Cu15  2.004602 S    
C295  C301  1.403508 A    
C123  C191  1.396153 A    
C387  O114  1.220723 D    
O67   Cu22  2.011335 S    
C6    C12   1.476740 S    
C11   C17   1.406313 A    
C245  C260  1.405226 A    
C340  C347  1.405252 A    
O75   C135  1.336119 S    
C162  N21   1.440482 S    
N15   O135  1.301354 A    
O60   Cu6   2.011917 S    
O15   Cu10  1.986359 S    
C276  H108  1.083409 S    
C392  O119  1.221469 D    
C58   C352  1.420754 A    
C154  C160  1.406803 A    
C107  C200  1.394477 A    
H44   C362  1.083743 S    
C250  C256  1.408102 A    
C298  H112  1.084131 S    
C60   C354  1.422930 A    
C36   C184  1.417989 A    
N17   O150  1.301384 A    
C57   C156  1.400058 A    
O38   Cu8   1.995597 S    
C370  C376  1.396886 A    
C62   C356  1.420972 A    
C118  C124  1.470778 S    
O39   Cu9   1.994992 S    
C121  C190  1.398369 A    
C8    C170  1.406824 A    
C221  C236  1.412069 A    
C143  C207  1.395994 A    
C356  C362  1.411083 A    
Cu10  Cu16  2.683052 S    
O53   Cu1   1.992817 S    
C269  C275  1.406914 A    
O94   C214  1.331775 S    
C336  C351  1.405273 A    
C32   C383  1.484624 S    
C190  H70   1.083469 S    
C147  H54   1.083844 S    
C208  C229  1.477576 S    
C224  H80   1.082823 S    
H22   C379  1.083589 S    
C88   C94   1.405272 A    
C221  C227  1.408045 A    
C77   H89   1.083903 S    
C222  C228  1.407928 A    
C156  C162  1.406262 A    
C241  N1    1.360753 A    
C389  O116  1.221349 D    
C220  C226  1.407514 A    
C215  C221  1.481031 S    
C91   H28   1.083672 S    
C368  C374  1.399849 A    
C338  C349  1.406310 A    
O10   Cu18  2.011441 S    
O86   Cu20  1.989099 S    
C42   C48   1.472324 S    
C126  C132  1.405853 A    
C89   C191  1.396279 A    
C227  H83   1.083197 S    
C240  C328  1.489860 S    
C9    C171  1.407346 A    
C161  C163  1.424217 A    
C27   C33   1.425604 A    
O29   C41   1.332637 S    
C388  O115  1.221376 D    
C28   C34   1.424818 A    
C41   C47   1.475961 S    
C163  C204  1.489747 S    
C342  C348  1.405372 A    
O30   C42   1.343736 S    
O14   C20   1.354046 S    
O95   Cu24  2.007656 S    
C270  C279  1.407785 A    
O70   Cu22  2.008688 S    
O46   C82   1.322045 S    
Cu7   Cu13  2.680192 S    
C104  C200  1.394047 A    
C285  H123  1.083872 S    
N18   O153  1.301396 A    
O75   Cu11  1.988768 S    
C222  C235  1.418003 A    
O34   C40   1.336881 S    
C263  C311  1.482897 S    
C284  H122  1.083780 S    
C152  C158  1.401567 A    
O34   Cu5   2.007019 S    
O17   Cu8   1.986173 S    
C19   C25   1.492012 S    
O65   Cu21  1.993399 S    
C67   C73   1.407237 A    
C183  H66   1.083085 S    
C20   C26   1.492951 S    
C84   C90   1.474107 S    
O78   Cu8   1.986670 S    
C393  H156  1.083108 S    
C200  H74   1.083491 S    
O4    C4    1.330832 S    
C179  C295  1.482815 S    
C216  C222  1.482619 S    
C269  C332  1.489059 S    
C398  H161  1.083922 S    
C281  C287  1.404882 A    
C373  C379  1.394922 A    
H13   C151  1.083740 S    
O38   C80   1.329398 S    
H58   C370  1.083251 S    
C299  H113  1.084209 S    
C342  C345  1.405648 A    
C348  H141  1.083773 S    
O24   Cu13  2.005575 S    
C306  C399  1.485705 S    
C254  H95   1.082860 S    
C73   H85   1.083894 S    
N13   O130  1.301430 A    
O31   C37   1.337951 S    
C404  O143  1.221290 D    
C117  C123  1.466549 S    
C67   C232  1.421467 A    
C298  C304  1.407106 A    
C402  O141  1.220510 D    
O17   C23   1.348345 S    
C241  C259  1.479556 S    
C86   C92   1.406023 A    
N20   O157  1.300742 A    
C335  C350  1.403689 A    
C158  N17   1.438941 S    
C87   C93   1.405407 A    
C275  H107  1.083475 S    
C355  C406  1.484874 S    
O73   Cu10  1.986484 S    
Cu8   Cu14  2.683057 S    
C185  C257  1.506241 S    
O7    Cu15  2.011085 S    
O55   C97   1.324755 S    
C262  C310  1.486061 S    
O58   Cu5   2.010905 S    
C12   C18   1.407611 A    
O74   C134  1.331948 S    
C133  C139  1.468427 S    
C110  C203  1.404646 A    
C218  C236  1.412134 A    
O76   C136  1.336639 S    
C181  H64   1.083178 S    
C201  H75   1.083435 S    
C249  C259  1.402187 A    
N6    O102  1.301851 A    
C248  C254  1.401314 A    
O90   C216  1.348591 S    
Cu3   Cu6   2.686459 S    
O81   C135  1.326374 S    
O62   C116  1.342580 S    
C61   C379  1.404944 A    
C375  C381  1.394541 A    
C223  C238  1.401005 A    
O64   C118  1.342424 S    
N9    O108  1.300434 A    
C399  O138  1.220977 D    
H24   C381  1.083476 S    
C321  C333  1.406317 A    
C76   C229  1.397384 A    
O41   C83   1.338876 S    
C96   C198  1.406328 A    
C168  C234  1.486208 S    
C150  H57   1.083828 S    
C250  H91   1.082848 S    
C47   C169  1.409740 A    
C44   C172  1.409703 A    
C334  C349  1.403780 A    
C308  C401  1.485429 S    
C288  N12   1.439441 S    
C206  H77   1.083603 S    
C60   C378  1.406257 A    
C61   C355  1.422131 A    
C289  N13   1.439691 S    
C182  H65   1.083202 S    
C357  C363  1.412071 A    
C122  C192  1.399658 A    
C55   C340  1.483438 S    
C397  H160  1.083944 S    
C40   C46   1.472263 S    
C25   C31   1.426825 A    
C140  C206  1.398136 A    
O69   Cu24  2.010845 S    
C343  H136  1.083963 S    
O14   Cu11  1.988768 S    
O73   C133  1.342554 S    
C140  C146  1.407062 A    
C145  H52   1.083808 S    
C286  N10   1.439411 S    
C354  C360  1.408338 A    
C46   C170  1.406729 A    
C30   C36   1.422354 A    
O93   C213  1.330946 S    
O1    C1    1.331433 S    
O9    Cu14  2.011662 S    
C290  C296  1.415765 A    
O11   Cu16  2.011699 S    
C96   H33   1.083553 S    
O32   C38   1.329236 S    
O37   C79   1.337578 S    
C323  H125  1.082989 S    
C142  C205  1.396630 A    
O89   Cu21  1.991422 S    
C262  C278  1.405118 A    
C282  C288  1.404850 A    
C53   H11   1.083680 S    
C325  H127  1.082588 S    
C390  O117  1.221355 D    
C72   C233  1.420423 A    
O66   Cu20  1.993609 S    
C189  H69   1.083391 S    
C15   C177  1.400012 A    
H15   C153  1.083537 S    
O23   Cu14  2.003136 S    
C251  H92   1.082828 S    
C56   C154  1.399923 A    
C253  H94   1.083171 S    
C382  O109  1.220973 D    
C302  H116  1.084064 S    
C266  C271  1.403242 A    
C267  C276  1.405577 A    
O15   C21   1.349107 S    
C404  H167  1.083945 S    
O85   Cu19  1.991553 S    
N11   O126  1.301343 A    
C130  C193  1.404384 A    
C274  H106  1.083245 S    
C125  C189  1.396574 A    
O7    C1    1.327937 S    
C242  C260  1.481418 S    
C408  H171  1.083939 S    
C43   C49   1.405730 A    
C57   C342  1.484282 S    
C217  C235  1.417186 A    
C80   C86   1.470127 S    
C121  C127  1.406020 A    
O56   Cu5   2.011489 S    
O92   Cu23  2.005659 S    
N4    O98   1.300429 A    
C60   C336  1.489580 S    
C212  C218  1.480190 S    
C360  C366  1.404396 A    
C144  C150  1.404669 A    
C385  H148  1.081372 S    
C177  C293  1.482872 S    
C284  C290  1.405255 A    
O49   C97   1.338370 S    
O5    C5    1.339032 S    
C131  H50   1.083627 S    
C281  C311  1.403200 A    
C69   C75   1.403314 A    
C253  C258  1.407130 A    
C169  N4    1.435275 S    
C219  C237  1.412159 A    
C238  C329  1.489680 S    
O72   Cu23  2.011121 S    
C33   C384  1.483100 S    
H59   C371  1.083115 S    
C353  C359  1.410280 A    
C396  O123  1.221316 D    
C352  C358  1.407551 A    
N16   O149  1.301423 A    
H61   C373  1.083075 S    
C322  H124  1.082779 S    
C27   C183  1.400429 A    
C358  C364  1.402311 A    
C228  H84   1.082737 S    
C213  C219  1.480040 S    
C55   C155  1.399452 A    
C29   C182  1.399381 A    
C356  C407  1.485849 S    
O57   Cu6   2.009141 S    
O54   C102  1.340981 S    
C268  C331  1.491473 S    
C57   C153  1.398900 A    
C30   C181  1.399880 A    
C146  C209  1.401054 A    
C51   H9    1.083656 S    
N7    O104  1.300381 A    
C317  C323  1.397530 A    
C92   H29   1.083429 S    
O83   Cu15  2.005357 S    
Cu2   Cu5   2.684122 S    
C395  H158  1.084529 S    
C128  H47   1.083589 S    
O2    C2    1.339463 S    
C35   C185  1.417949 A    
C126  C188  1.397438 A    
H14   C152  1.083825 S    
C10   C16   1.406847 A    
C406  H169  1.085653 S    
C123  C129  1.404037 A    
C71   C392  1.487821 S    
O40   Cu10  1.995627 S    
C101  C107  1.466172 S    
O43   C79   1.329410 S    
C242  N2    1.360946 A    
O68   C116  1.337011 S    
C384  O111  1.220965 D    
O56   C98   1.325759 S    
C241  N2    1.361210 A    
C319  C325  1.400617 A    
O47   C83   1.329294 S    
O47   Cu17  2.012653 S    
C173  N8    1.435328 S    
C120  C126  1.469229 S    
C72   C78   1.403955 A    
C50   H8    1.083694 S    
C263  C272  1.401823 A    
C273  H105  1.084066 S    
C2    C8    1.471097 S    
Cu11  Cu17  2.680190 S    
O31   Cu4   2.007298 S    
N5    O99   1.300524 A    
C386  H149  1.084831 S    
O24   C24   1.331120 S    
C1    C7    1.476805 S    
N12   O128  1.301350 A    
C77   C231  1.398230 A    
C282  H120  1.083777 S    
C205  H76   1.083549 S    
C316  C322  1.399556 A    
C158  C164  1.421099 A    
C48   C54   1.406060 A    
C281  H119  1.083772 S    
C305  C311  1.415095 A    
C336  C345  1.405834 A    
C223  H79   1.083290 S    
C247  C261  1.404122 A    
C270  C276  1.407773 A    
C47   C53   1.405555 A    
C93   H30   1.083625 S    
N15   O134  1.301442 A    
C394  O121  1.220334 D    
C244  C259  1.404743 A    
C68   C74   1.407439 A    
C292  C298  1.404166 A    
C265  C275  1.405413 A    
C113  C203  1.404807 A    
C52   H10   1.083701 S    
O60   C102  1.328181 S    
C263  C277  1.404125 A    
C400  H163  1.083906 S    
C248  C260  1.402326 A    
H41   C359  1.083584 S    
C108  C114  1.405462 A    
C31   C184  1.420918 A    
C5    C11   1.470792 S    
O3    Cu8   1.996056 S    
C49   H7    1.083766 S    
C344  H137  1.083923 S    
C309  C402  1.485480 S    
O64   Cu19  1.991089 S    
C225  H81   1.083024 S    
C318  C324  1.399917 A    
C226  H82   1.083344 S    
C364  C370  1.400506 A    
N14   O133  1.301355 A    
C403  H166  1.083807 S    
O48   Cu18  2.012171 S    
C33   C186  1.423858 A    
O85   C211  1.346374 S    
C405  O144  1.220566 D    
N21   O159  1.300913 A    
H63   C375  1.083155 S    
O8    C2    1.332034 S    
C268  C278  1.407597 A    
C127  C196  1.404433 A    
O28   Cu2   1.989065 S    
C243  C261  1.483192 S    
O13   Cu12  1.987790 S    
C165  C203  1.490725 S    
O33   Cu6   2.004868 S    
C407  H170  1.083856 S    
C285  C315  1.404433 A    
C255  H96   1.082880 S    
C153  C159  1.404234 A    
O35   Cu4   2.005018 S    
O11   C5    1.332792 S    
C17   C179  1.400253 A    
C4    C10   1.476009 S    
C114  C202  1.403069 A    
C36   C387  1.480353 S    
C167  C233  1.485682 S    
O55   Cu4   2.011672 S    
O35   C41   1.330520 S    
O1    Cu9   1.995790 S    
O63   Cu21  1.992817 S    
C341  C346  1.404798 A    
O51   Cu3   1.992650 S    
C132  C194  1.403959 A    
C325  C329  1.406591 A    
C301  H115  1.084211 S    
Cu20  Cu23  2.686443 S    
C308  C314  1.415415 A    
C105  C201  1.395023 A    
C122  C128  1.406247 A    
O68   Cu23  2.008839 S    
C287  C293  1.415482 A    
O59   Cu4   2.009482 S    
O50   Cu2   1.995148 S    
O83   C137  1.328496 S    
O12   Cu17  2.011160 S    
C279  H111  1.083486 S    
C236  C395  1.482391 S    
C71   C77   1.407819 A    
C39   C45   1.476109 S    
C324  C330  1.406986 A    
C392  H155  1.084034 S    
C3    C9    1.470395 S    
C354  C405  1.484542 S    
C18   C180  1.402113 A    
C75   H87   1.084093 S    
C92   C194  1.404760 A    
C160  C164  1.422398 A    
C338  C347  1.407100 A    
C16   H4    1.083695 S    
C367  C373  1.401809 A    
C401  H164  1.084073 S    
C211  C217  1.481814 S    
O43   Cu13  2.012251 S    
O27   C39   1.332912 S    
O91   C211  1.344491 S    
C249  C255  1.400520 A    
C70   C391  1.484415 S    
C285  C291  1.404383 A    
C254  C257  1.407447 A    
C264  C273  1.403215 A    
C227  C239  1.403325 A    
C246  C252  1.404850 A    
C160  N19   1.440490 S    
C29   C35   1.422205 A    
C63   C339  1.490230 S    
C224  C239  1.403392 A    
C320  H134  1.082605 S    
O26   C38   1.331620 S    
C7    C169  1.410019 A    
C192  H72   1.083271 S    
C186  C258  1.505414 S    
O70   C118  1.336401 S    
C24   C30   1.490732 S    
O22   C22   1.343211 S    
C243  N3    1.362555 A    
O93   Cu24  2.007076 S    
C248  H101  1.083238 S    
C73   C229  1.397928 A    
O44   Cu14  2.012793 S    
C34   C385  1.499863 S    
O42   C84   1.341439 S    
C303  H117  1.084733 S    
C16   C178  1.401475 A    
C23   C29   1.489819 S    
O84   Cu14  2.003209 S    
C346  H139  1.083833 S    
C245  H98   1.083032 S    
C129  H48   1.083794 S    
C388  H151  1.083016 S    
C148  H55   1.083780 S    
O79   Cu16  2.003394 S    
C337  C346  1.405567 A    
C115  C121  1.470760 S    
C124  C187  1.398628 A    
C252  C258  1.408971 A    
C127  H46   1.083515 S    
C139  C145  1.406009 A    
O37   Cu7   1.995474 S    
C301  C307  1.405991 A    
C65   C168  1.402975 A    
O13   C19   1.352707 S    
C209  C230  1.476689 S    
C317  H131  1.082908 S    
H21   C378  1.083480 S    
O45   Cu15  2.012536 S    
O16   Cu9   1.988287 S    
C316  H130  1.082804 S    
O79   C133  1.333170 S    
Cu9   Cu15  2.681116 S    
C408  O147  1.221446 D    
O78   C138  1.328448 S    
C387  H150  1.084821 S    
O21   C21   1.333640 S    
C64   C166  1.402802 A    
C157  N16   1.438829 S    
C45   C51   1.405493 A    
C95   C197  1.404015 A    
C114  H39   1.083700 S    
O40   C82   1.329807 S    
O2    Cu7   1.995503 S    
C280  C310  1.403962 A    
C174  N9    1.435287 S    
C119  C125  1.469080 S    
C146  H53   1.083749 S    
C393  O120  1.221385 D    
C374  C380  1.394361 A    
C353  C404  1.485994 S    
O25   Cu1   1.989861 S    
C284  C314  1.404140 A    
N10   O124  1.301360 A    
C65   H26   1.083942 S    
C65   C167  1.403239 A    
H19   C376  1.083346 S    
O54   Cu3   1.995277 S    
O77   C137  1.338733 S    
C287  N11   1.439713 S    
C402  H165  1.085775 S    
C82   C88   1.470842 S    
C266  C274  1.405868 A    
O69   C117  1.328988 S    
C83   C89   1.468159 S    
C94   C196  1.404548 A    
C137  C143  1.465944 S    
C91   C193  1.405004 A    
H45   C363  1.083729 S    
O59   C101  1.330070 S    
C143  C149  1.405962 A    
C166  C232  1.485148 S    
C58   C334  1.487166 S    
C148  C208  1.401603 A    
C396  H159  1.084534 S    
C195  C369  1.485797 S    
C178  C297  1.485029 S    
C14   C176  1.400933 A    
C48   C171  1.406890 A    
C235  C394  1.495385 S    
C31   C382  1.484890 S    
O88   Cu19  1.988930 S    
O39   C81   1.337472 S    
C323  C329  1.406012 A    
O80   Cu18  2.004864 S    
C391  O118  1.220125 D    
C131  C195  1.405576 A    
C67   C388  1.487141 S    
C94   H31   1.083470 S    
C58   C376  1.406391 A    
O6    C6    1.331128 S    
C282  C312  1.404476 A    
C305  C398  1.486541 S    
O61   C115  1.330818 S    
C66   C168  1.404515 A    
O18   C24   1.347807 S    
C54   C177  1.399652 A    
C266  C314  1.486799 S    
C50   C178  1.400325 A    
C51   C180  1.400951 A    
O51   C99   1.337636 S    
Cu19  Cu22  2.686462 S    
C280  H118  1.083806 S    
O19   C19   1.337578 S    
Cu1   Cu4   2.686442 S    
C363  C369  1.404782 A    
O96   Cu23  2.007841 S    
C265  C272  1.402375 A    
O16   C22   1.352089 S    
C28   C183  1.402786 A    
C159  C165  1.421566 A    
C184  C256  1.504434 S    
C270  C333  1.490611 S    
C262  C271  1.403248 A    
N17   O151  1.301421 A    
C176  C292  1.485357 S    
O48   C84   1.334217 S    
H62   C374  1.083225 S    
C220  C237  1.411997 A    
C79   C85   1.470644 S    
C147  C210  1.401476 A    
C11   C173  1.407349 A    
C125  C131  1.406436 A    
C339  C348  1.406160 A    
O82   C136  1.326810 S    
C397  O136  1.221409 D    
C85   C91   1.405314 A    
O80   C134  1.321614 S    
N7    O103  1.302130 A    
C142  C148  1.405138 A    
C300  H114  1.084075 S    
H18   C156  1.083587 S    
O84   C138  1.320152 S    
C244  C250  1.405053 A    
O26   Cu2   1.989642 S    
H16   C154  1.083405 S    
C164  C202  1.488466 S    
C151  C157  1.401692 A    
C265  C313  1.483012 S    
C255  C256  1.406961 A    
C319  C332  1.406730 A    
O44   C80   1.320136 S    
C318  C333  1.406487 A    
C71   C234  1.421634 A    
C130  H49   1.083725 S    
C389  H152  1.083988 S    
C400  O139  1.220905 D    
C12   C174  1.410057 A    
O45   C81   1.328544 S    
C25   C181  1.401856 A    
C161  N20   1.441159 S    
C9    C15   1.405993 A    
O71   Cu24  2.011214 S    
C108  C199  1.393643 A    
C307  C400  1.486416 S    
C103  C109  1.406566 A    
C306  C312  1.415893 A    
C207  H78   1.083571 S    
O3    C3    1.338905 S    
C214  C220  1.479708 S    
C357  C408  1.485897 S    
C144  C206  1.397871 A    
C69   C234  1.420485 A    
C162  C165  1.422603 A    
O88   C214  1.335549 S    
C107  C113  1.405976 A    
C246  C261  1.404910 A    
O41   Cu11  1.995079 S    
C13   H1    1.083641 S    
C110  H35   1.083612 S    
C98   C104  1.466055 S    
N18   O152  1.301385 A    
C318  H132  1.082949 S    
C296  C302  1.404746 A    
C277  H109  1.083568 S    
O91   Cu22  2.008087 S    
C97   C103  1.463972 S    
C103  C199  1.393854 A    
C349  H142  1.083849 S    
N4    O97   1.302124 A    
C35   C386  1.480388 S    
O36   Cu6   2.007508 S    
O72   C120  1.322652 S    
C272  H104  1.084067 S    
C43   C173  1.406878 A    
C385  O112  1.220679 D    
C362  C368  1.403756 A    
O42   Cu12  1.995361 S    
C398  O137  1.220771 D    
C44   C50   1.405882 A    
C139  C205  1.397350 A    
C291  C297  1.414862 A    
C383  H146  1.085112 S    
Cu12  Cu18  2.681122 S    
C8    C14   1.406680 A    
C56   C152  1.398234 A    
C283  C313  1.403343 A    
O89   C215  1.335131 S    
N13   O131  1.301338 A    
C268  C274  1.407900 A    
C104  C110  1.406433 A    
C351  H144  1.083938 S    
C26   C32   1.428365 A    
O57   C99   1.327911 S    
C243  N1    1.361622 A    
C7    C13   1.407529 A    
C316  C331  1.407088 A    
C302  C308  1.406673 A    
H23   C380  1.083372 S    
N20   O156  1.301520 A    
O65   C119  1.339245 S    
C81   C87   1.469017 S    
C303  C309  1.404570 A    
C87   C189  1.395781 A    
C128  C198  1.405939 A    
O36   C42   1.337843 S    
C21   C27   1.496376 S    
C293  C299  1.403383 A    
C112  C204  1.405829 A    
N9    O107  1.302087 A    
C111  H36   1.083640 S    
O4    Cu12  1.995417 S    
C405  H168  1.085691 S    
C124  C130  1.405599 A    
C109  H34   1.083549 S    
O52   C100  1.340937 S    
O86   C212  1.335340 S    
C228  C238  1.401579 A    
C278  H110  1.083415 S    
O8    Cu13  2.011552 S    
