data_mof_unit_14216.cif
_audit_creation_date              2013-03-05T15:46:20-0500
_audit_creation_method            fapswitch 2.2
_symmetry_space_group_name_H-M    P1
_symmetry_Int_Tables_number       1
_space_group_crystal_system       triclinic
_cell_length_a                    10.286237
_cell_length_b                    10.659993
_cell_length_c                    10.876403
_cell_angle_alpha                 90.843129
_cell_angle_beta                  94.937684
_cell_angle_gamma                 78.390494
_cell_volume                      1163.87271494

loop_
_atom_site_label
_atom_site_type_symbol
_atom_site_description
_atom_site_fract_x
_atom_site_fract_y
_atom_site_fract_z
_atom_type_partial_charge
O1    O     O_R   0.568950 0.489660 0.307530 -0.577047
O2    O     O_R   0.348880 0.522640 0.340350 -0.561162
C1    C     C_R   0.444712 0.501434 0.267321 0.905393
O3    O     O_R   0.610060 0.300270 0.483590 -0.602419
O4    O     O_R   0.389990 0.333260 0.516410 -0.588597
C2    C     C_R   0.507357 0.259540 0.513773 0.933938
Zn1   Zn    Zn3+2 0.646940 0.477980 0.478090 1.163934
Zn2   Zn    Zn3+2 0.353060 0.522020 0.521910 1.192603
O5    O     O_R   0.651120 0.477360 0.659650 -0.557746
O6    O     O_R   0.431050 0.510340 0.692470 -0.569573
O7    O     O_R   0.610010 0.666740 0.483590 -0.600081
O8    O     O_R   0.389940 0.699730 0.516410 -0.564634
C3    C     C_R   0.555755 0.487378 0.731296 0.902701
C4    C     C_R   0.495832 0.741218 0.497472 0.975769
C5    C     C_R   0.745687 0.053809 0.450921 0.328016
C6    C     C_R   0.807326 0.988484 0.351794 -0.194283
H1    H     H_    0.903525 0.004115 0.329872 0.254982
C7    C     C_R   0.745134 0.904032 0.279706 0.232336
C8    C     C_R   0.629034 0.871082 0.319119 0.351857
C9    C     C_R   0.575332 0.927756 0.427547 -0.113093
C10   C     C_R   0.616661 0.036508 0.474142 -0.097535
C11   C     C_R   0.523457 0.123830 0.537933 -0.175309
C12   C     C_R   0.425895 0.080274 0.599816 0.254817
C13   C     C_R   0.417248 0.952374 0.587358 0.321847
C14   C     C_R   0.487812 0.877352 0.496988 -0.175743
C15   C     C_2   0.415371 0.497090 0.133422 0.067542
C16   C     C_2   0.517324 0.447382 0.064730 0.168281
C17   C     C_2   0.586475 0.438242 0.854159 0.222824
C18   C     C_2   0.527359 0.506425 0.945657 0.240604
N1    N     N_2   0.157290 0.551390 0.551110 -0.053903
C19   C     C_2   0.076879 0.483903 0.493769 0.293278
N2    N     N_2   0.842740 0.448550 0.448960 -0.044760
C20   C     C_2   0.931059 0.496430 0.519710 0.368801
N3    N     N_R   0.341182 0.162924 0.679497 0.261724
O9    O     O_R   0.216341 0.156615 0.681468 -0.193839
O10   O     O_R   0.388945 0.242864 0.752971 -0.321347
N4    N     N_R   0.286790 0.559648 0.077410 0.265311
O11   O     O_R   0.210350 0.648104 0.136616 -0.208023
O12   O     O_R   0.241589 0.521624 0.970771 -0.229858
Cl1   Cl    Cl    0.885275 0.562258 0.662991 -0.391720
N5    N     N_R   0.133432 0.381020 0.416204 0.210903
O13   O     O_R   0.140325 0.263284 0.449835 -0.283033
O14   O     O_R   0.151893 0.404294 0.302712 -0.272195
N6    N     N_R   0.873037 0.418907 0.329073 0.300660
O15   O     O_R   0.897524 0.299831 0.294422 -0.220918
O16   O     O_R   0.869869 0.510095 0.249900 -0.263502
N7    N     N_R   0.100977 0.670896 0.596062 0.313300
O17   O     O_R   0.140905 0.704631 0.705923 -0.165964
O18   O     O_R   0.023900 0.755553 0.523205 -0.343547
N8    N     N_R   0.822477 0.118662 0.538234 0.254330
O19   O     O_R   0.793111 0.131011 0.652221 -0.253606
O20   O     O_R   0.935158 0.143888 0.511084 -0.265978
N9    N     N_R   0.805227 0.847511 0.172023 0.274336
O21   O     O_R   0.732201 0.834348 0.070736 -0.189270
O22   O     O_R   0.934141 0.824902 0.169575 -0.235137
Cl2   Cl    Cl    0.542453 0.772847 0.225963 -0.458333
Cl3   Cl    Cl    0.328916 0.887035 0.694514 -0.298943
Cl4   Cl    Cl    0.469312 0.674388 0.927434 -0.348842
N10   N     N_R   0.628536 0.352616 0.115839 0.245605
O23   O     O_R   0.608827 0.256665 0.179525 -0.348547
O24   O     O_R   0.748773 0.357323 0.090728 -0.200069
Cl5   Cl    Cl    0.654887 0.272046 0.861205 -0.337133

loop_
_geom_bond_atom_site_label_1
_geom_bond_atom_site_label_2
_geom_bond_distance
_ccdc_geom_bond_type
C8    Cl2   1.762136 S    
O4    Zn2   1.972175 S    
N8    O20   1.299856 A    
C12   C13   1.387966 A    
C19   C20   1.529176 S    
C3    C17   1.428710 S    
N4    O11   1.301128 A    
C16   C18   1.468741 S    
N5    O13   1.298942 A    
N7    O17   1.299272 A    
Zn2   O8    2.008152 S    
C12   N3    1.444007 S    
Zn2   N1    2.026681 S    
N2    C20   1.316317 D    
O2    C1    1.301349 A    
N2    N6    1.383985 S    
C13   C14   1.413708 A    
N10   O23   1.302140 A    
C15   N4    1.443396 S    
C6    C7    1.399690 A    
C16   N10   1.442254 S    
N9    O21   1.301143 A    
C18   Cl4   1.778042 S    
Zn1   O7    1.972176 S    
N5    O14   1.299866 A    
C15   C16   1.355854 D    
N1    C19   1.314585 D    
O3    Zn1   2.008153 S    
N7    O18   1.302242 A    
C17   C18   1.339181 D    
O8    C4    1.288273 A    
C7    C8    1.412339 A    
N3    O10   1.298862 A    
N9    O22   1.301699 A    
C4    C14   1.436921 S    
O4    C2    1.303581 A    
Zn2   O6    1.952126 S    
O7    C4    1.297765 A    
N10   O24   1.300116 A    
C20   Cl1   1.761792 S    
C9    C14   1.411828 A    
O3    C2    1.288728 A    
C5    C6    1.402569 A    
C2    C11   1.447964 S    
N1    N7    1.389566 S    
C5    C10   1.420150 A    
C9    C10   1.387622 A    
N4    O12   1.301887 A    
N3    O9    1.301353 A    
C5    N8    1.440496 S    
Zn1   O5    1.971563 S    
O5    C3    1.291457 A    
C11   C12   1.410222 A    
C6    H1    1.082552 S    
O1    Zn1   1.952126 S    
Zn1   N2    2.026770 S    
C19   N5    1.432972 S    
C7    N9    1.439026 S    
N8    O19   1.299721 A    
C10   C11   1.415383 A    
C1    C15   1.463605 S    
O2    Zn2   1.971563 S    
N6    O15   1.300121 A    
C8    C9    1.420476 A    
N6    O16   1.301756 A    
C13   Cl3   1.769155 S    
O1    C1    1.296537 A    
O6    C3    1.291163 A    
C17   Cl5   1.769955 S    
