data_mof_unit_20853.cif
_audit_creation_date              2012-10-26T21:06:57-0400
_audit_creation_method            fapswitch 2.2
_symmetry_space_group_name_H-M    P1
_symmetry_Int_Tables_number       1
_space_group_crystal_system       triclinic
_cell_length_a                    10.70213
_cell_length_b                    8.683405
_cell_length_c                    7.454312
_cell_angle_alpha                 102.830066
_cell_angle_beta                  94.736421
_cell_angle_gamma                 92.556736
_cell_volume                      671.720242825

loop_
_atom_site_label
_atom_site_type_symbol
_atom_type_description
_atom_site_fract_x
_atom_site_fract_y
_atom_site_fract_z
_atom_type_partial_charge
C1    C     C_R   0.496194 0.199760 0.453333 0.545904
C2    C     C_3   0.071159 0.361703 0.580617 -0.239849
C3    C     C_3   0.926900 0.361359 0.578204 -0.231854
C4    C     C_3   0.084271 0.658207 0.618004 -0.234858
C5    C     C_3   0.058917 0.478707 0.299175 -0.229720
C6    C     C_3   0.121666 0.499588 0.500318 0.051557
C7    C     C_3   0.877674 0.499569 0.496897 0.051275
C8    C     C_3   0.940045 0.658382 0.615797 -0.236499
C9    C     C_3   0.915959 0.478748 0.297371 -0.234456
C10   C     C_2   0.494383 0.031920 0.427022 -0.166350
C11   C     C_2   0.505638 0.968083 0.572990 -0.166583
C12   C     C_R   0.259828 0.499596 0.500887 0.543878
C13   C     C_R   0.503814 0.800241 0.546670 0.546028
C14   C     C_R   0.739969 0.500009 0.498482 0.544014
Cu1   Cu    Cu3+1 0.514070 0.517380 0.684380 0.931475
Cu2   Cu    Cu3+1 0.485930 0.482620 0.315620 0.931281
H1    H     H_    0.882048 0.576603 0.235471 0.119442
H2    H     H_    0.126821 0.676022 0.763103 0.128104
H3    H     H_    0.913841 0.676827 0.760133 0.124984
H4    H     H_    0.093278 0.576449 0.237450 0.128031
H5    H     H_    0.083990 0.365257 0.210856 0.122537
H6    H     H_    0.872630 0.365358 0.208794 0.128235
H7    H     H_    0.113396 0.374014 0.725075 0.120145
H8    H     H_    0.900378 0.372786 0.721662 0.128903
H9    H     H_    0.120331 0.758676 0.562348 0.108059
H10   H     H_    0.906198 0.758945 0.559086 0.104155
H11   H     H_    0.483774 0.960514 0.286270 0.132813
H12   H     H_    0.516248 0.039489 0.713742 0.132655
H13   H     H_    0.400866 0.378318 0.948325 0.234883
H14   H     H_    0.599145 0.621664 0.051675 0.234760
H15   H     H_    0.097754 0.246718 0.497882 0.104886
H16   H     H_    0.883529 0.246268 0.494143 0.107397
N1    N     N_2   0.464720 0.456420 0.038520 -0.258763
N2    N     N_2   0.535280 0.543580 0.961480 -0.258911
O1    O     O_R   0.509140 0.286130 0.619770 -0.503857
O2    O     O_R   0.485380 0.256770 0.308360 -0.498867
O3    O     O_R   0.329570 0.514650 0.655700 -0.510002
O4    O     O_R   0.305810 0.485300 0.344290 -0.510744
O5    O     O_R   0.514620 0.743230 0.691640 -0.498936
O6    O     O_R   0.490860 0.713870 0.380230 -0.503467
O7    O     O_R   0.694190 0.514700 0.655710 -0.509857
O8    O     O_R   0.670430 0.485350 0.344300 -0.511827

loop_
_geom_bond_atom_site_label_1
_geom_bond_atom_site_label_2
_ccdc_geom_bond_type
C10   H11   S    
C5    C9    S    
Cu2   O8    S    
Cu2   N1    S    
C8    H10   S    
Cu1   N2    S    
C4    C8    S    
C14   O8    A    
C4    H2    S    
C2    C3    S    
C7    C8    S    
C5    H4    S    
C4    H9    S    
Cu2   O2    S    
C6    C12   S    
C11   C13   S    
Cu1   O5    S    
C3    H8    S    
C2    C6    S    
C11   H12   S    
Cu2   O6    S    
C14   O7    A    
C5    C6    S    
Cu1   O1    S    
N1    N2    D    
C3    C7    S    
C12   O4    A    
C3    H16   S    
C9    H6    S    
C13   O5    A    
C8    H3    S    
C10   C11   D    
H14   N2    S    
Cu1   Cu2   S    
H13   N1    S    
C12   O3    A    
C5    H5    S    
Cu1   O7    S    
C4    C6    S    
C9    H1    S    
C2    H7    S    
C7    C9    S    
C1    O1    A    
Cu1   O3    S    
C13   O6    A    
C7    C14   S    
C1    C10   S    
C1    O2    A    
Cu2   O4    S    
C2    H15   S    
