data_mof_unit_21739.cif
_audit_creation_date              2012-10-26T17:11:22-0400
_audit_creation_method            fapswitch 2.2
_symmetry_space_group_name_H-M    P1
_symmetry_Int_Tables_number       1
_space_group_crystal_system       triclinic
_cell_length_a                    28.126633
_cell_length_b                    18.799965
_cell_length_c                    16.686316
_cell_angle_alpha                 89.90529
_cell_angle_beta                  63.500945
_cell_angle_gamma                 90.013302
_cell_volume                      7896.40032078

loop_
_atom_site_label
_atom_site_type_symbol
_atom_type_description
_atom_site_fract_x
_atom_site_fract_y
_atom_site_fract_z
_atom_type_partial_charge
C1    C     C_R   0.296065 0.731280 0.328591 0.571312
C2    C     C_R   0.594958 0.001879 0.520303 -0.080621
C3    C     C_R   0.705498 0.688957 0.889407 0.021264
C4    C     C_R   0.931604 0.897094 0.062776 0.544886
C5    C     C_R   0.076406 0.092756 0.930902 0.587043
C6    C     C_R   0.068624 0.897383 0.937014 0.544152
C7    C     C_R   0.923626 0.092847 0.069072 0.586462
C8    C     C_R   0.431599 0.397099 0.062781 0.544998
C9    C     C_R   0.576412 0.592743 0.930894 0.586927
C10   C     C_R   0.568624 0.397393 0.937010 0.544082
C11   C     C_R   0.423611 0.592819 0.069071 0.586866
C12   C     C_R   0.040058 0.630876 0.533126 0.000822
C13   C     C_R   0.902771 0.501498 0.489139 -0.083706
C14   C     C_R   0.950301 0.373436 0.500655 -0.020525
C15   C     C_R   0.955214 0.630563 0.484645 0.007761
C16   C     C_R   0.050400 0.373770 0.498865 -0.023216
C17   C     C_R   0.540302 0.130876 0.532225 0.000773
C18   C     C_R   0.450244 0.873418 0.500726 -0.020566
C19   C     C_R   0.455388 0.130551 0.483936 0.008998
C20   C     C_R   0.550333 0.873729 0.498982 -0.023038
C21   C     C_R   0.016711 0.696171 0.525226 0.130037
C22   C     C_R   0.977756 0.308285 0.491123 0.144542
C23   C     C_R   0.975741 0.695821 0.497655 0.156768
C24   C     C_R   0.094880 0.501899 0.520665 -0.079176
C25   C     C_R   0.027362 0.308356 0.492309 0.157021
C26   C     C_R   0.517130 0.196179 0.523925 0.131697
C27   C     C_R   0.477598 0.808227 0.491578 0.144593
C28   C     C_R   0.476052 0.195821 0.496607 0.159330
C29   C     C_R   0.527196 0.808296 0.492797 0.156895
C30   C     C_R   0.975337 0.566679 0.499944 -0.057917
C31   C     C_R   0.023532 0.437834 0.505965 -0.043495
C32   C     C_R   0.020756 0.566833 0.515374 -0.048885
C33   C     C_R   0.975064 0.437770 0.500972 -0.041275
C34   C     C_R   0.475473 0.066669 0.499369 -0.057494
C35   C     C_R   0.604468 0.877995 0.478170 0.283631
C36   C     C_R   0.523546 0.937812 0.505798 -0.043391
C37   C     C_R   0.520905 0.066819 0.514756 -0.048340
C38   C     C_R   0.475079 0.937752 0.500799 -0.041353
C39   C     C_R   0.450988 0.002071 0.496830 -0.014261
C40   C     C_R   0.546337 0.002246 0.514079 -0.011276
C41   C     C_R   0.950918 0.502081 0.497182 -0.014115
C42   C     C_R   0.046253 0.502264 0.514475 -0.010887
C43   C     C_R   0.374642 0.936916 0.499962 -0.027967
C44   C     C_R   0.614551 0.065579 0.538648 -0.032772
C45   C     C_R   0.624035 0.937953 0.506051 -0.030774
C46   C     C_R   0.416182 0.126902 0.452890 0.326904
C47   C     C_R   0.383414 0.065457 0.470380 -0.041577
C48   C     C_R   0.874641 0.436891 0.500058 -0.028053
C49   C     C_R   0.114452 0.565579 0.539095 -0.029560
C50   C     C_R   0.124011 0.438004 0.506226 -0.030195
C51   C     C_R   0.883365 0.565474 0.470668 -0.041222
C52   C     C_R   0.329451 0.935737 0.481045 0.000497
C53   C     C_R   0.664734 0.065352 0.541368 -0.004034
C54   C     C_R   0.670018 0.936247 0.522322 0.001383
C55   C     C_R   0.334563 0.065108 0.463080 -0.005631
C56   C     C_R   0.829464 0.435727 0.481088 0.000247
C57   C     C_R   0.395476 0.876012 0.524876 0.287096
C58   C     C_R   0.164694 0.565362 0.541604 -0.002652
C59   C     C_R   0.170002 0.436270 0.522458 0.001941
C60   C     C_R   0.834569 0.565113 0.463172 -0.005281
C61   C     C_R   0.312687 0.999373 0.456444 0.077609
C62   C     C_R   0.687355 0.999637 0.546099 0.075104
C63   C     C_R   0.812718 0.499372 0.456471 0.077528
C64   C     C_R   0.187333 0.499645 0.546283 0.075271
C65   C     C_3   0.572450 0.698591 0.416616 -0.236279
C66   C     C_3   0.475708 0.304982 0.417948 -0.261849
C67   C     C_3   0.451811 0.733516 0.399134 -0.276742
C68   C     C_R   0.581133 0.126575 0.559961 0.296053
C69   C     C_3   0.586722 0.285028 0.462452 -0.262547
C70   C     C_3   0.072778 0.198937 0.415484 -0.236322
C71   C     C_3   0.975297 0.805014 0.419115 -0.262764
C72   C     C_3   0.952055 0.233908 0.398303 -0.276971
C73   C     C_3   0.085750 0.785947 0.465476 -0.262556
C74   C     C_3   0.298234 0.012380 0.323602 -0.299526
C75   C     C_3   0.705642 0.012092 0.675079 -0.297181
C76   C     C_3   0.798330 0.512386 0.323566 -0.299121
C77   C     C_3   0.205596 0.512210 0.675271 -0.298123
C78   C     C_3   0.637300 0.852095 0.329906 -0.087708
C79   C     C_R   0.104519 0.378098 0.478142 0.283627
C80   C     C_3   0.450058 0.142741 0.302922 -0.161491
C81   C     C_3   0.370436 0.828807 0.665467 -0.097068
C82   C     C_3   0.555882 0.142049 0.708055 -0.157984
C83   C     C_3   0.137522 0.352728 0.329738 -0.087437
C84   C     C_3   0.950985 0.643085 0.303403 -0.162066
C85   C     C_3   0.870657 0.328199 0.665154 -0.097551
C86   C     C_3   0.056331 0.641916 0.708606 -0.158900
C87   C     C_3   0.238913 0.601480 0.850712 -0.123890
C88   C     C_3   0.661477 0.156154 0.238823 -0.114672
C89   C     C_3   0.759995 0.600303 0.153428 -0.129319
C90   C     C_R   0.916084 0.626943 0.453427 0.327594
C91   C     C_3   0.338531 0.150723 0.761019 -0.101938
C92   C     C_3   0.738017 0.100741 0.852311 -0.124622
C93   C     C_3   0.139258 0.669530 0.237996 -0.130659
C94   C     C_3   0.259785 0.100467 0.153734 -0.129470
C95   C     C_3   0.838584 0.650921 0.760877 -0.101802
C96   C     C_3   0.063975 0.698506 0.053119 -0.345320
C97   C     C_3   0.811421 0.016899 0.067499 -0.292180
C98   C     C_3   0.938772 0.697908 0.947867 -0.341118
C99   C     C_3   0.187316 0.015407 0.934041 -0.289411
C100  C     C_3   0.564034 0.198526 0.053127 -0.341506
C101  C     C_R   0.895526 0.375957 0.524843 0.287137
C102  C     C_3   0.311473 0.516944 0.066455 -0.290414
C103  C     C_3   0.438804 0.197846 0.948042 -0.341147
C104  C     C_3   0.687402 0.515296 0.933644 -0.289332
C105  C     C_3   0.069183 0.827578 0.751145 -0.065093
C106  C     C_3   0.934451 0.236134 0.194577 -0.116387
C107  C     C_3   0.931649 0.823461 0.246195 -0.075950
C108  C     C_3   0.068101 0.236148 0.797663 -0.101559
C109  C     C_3   0.569145 0.327446 0.751216 -0.064865
C110  C     C_3   0.434306 0.736119 0.194682 -0.116616
C111  C     C_3   0.431562 0.323827 0.246365 -0.075133
C112  C     C_R   0.705813 0.274367 0.670515 0.587553
C113  C     C_R   0.080978 0.626538 0.560678 0.297601
C114  C     C_3   0.568089 0.736154 0.797690 -0.101605
C115  C     C_3   0.258480 0.860569 0.826052 -0.137026
C116  C     C_3   0.787367 0.353752 0.171380 -0.115511
C117  C     C_3   0.746793 0.860904 0.160588 -0.144151
C118  C     C_3   0.215744 0.351980 0.826928 -0.112781
C119  C     C_3   0.758816 0.360095 0.825652 -0.137025
C120  C     C_3   0.286712 0.853403 0.172122 -0.119273
C121  C     C_3   0.247026 0.361176 0.160389 -0.144090
C122  C     C_3   0.715641 0.851988 0.827043 -0.112866
C123  C     C_R   0.197374 0.731550 0.972714 -0.000142
C124  C     C_R   0.759038 0.200525 0.066091 0.021131
C125  C     C_R   0.804340 0.727647 0.026264 -0.004651
C126  C     C_R   0.241946 0.197797 0.933517 0.020990
C127  C     C_R   0.697323 0.231899 0.972891 -0.002483
C128  C     C_R   0.259016 0.700276 0.066002 0.031347
C129  C     C_R   0.304333 0.227622 0.026316 -0.004622
C130  C     C_R   0.741972 0.697745 0.933455 0.020903
C131  C     C_R   0.246214 0.694063 0.930868 0.290367
C132  C     C_R   0.704079 0.731021 0.671371 0.563845
C133  C     C_R   0.705215 0.222252 0.113316 0.289076
C134  C     C_R   0.754903 0.691292 0.068741 0.291931
C135  C     C_R   0.296214 0.217596 0.885896 0.287159
C136  C     C_R   0.745876 0.193764 0.931289 0.289842
C137  C     C_R   0.204959 0.720263 0.113549 0.292085
C138  C     C_R   0.254840 0.191399 0.068838 0.291994
C139  C     C_R   0.796214 0.717675 0.885850 0.287168
C140  C     C_R   0.278870 0.688878 0.973477 -0.135434
C141  C     C_R   0.677731 0.245360 0.065504 -0.153991
C142  C     C_R   0.722244 0.686175 0.026007 -0.130937
C143  C     C_R   0.294158 0.274404 0.329306 0.580817
C144  C     C_R   0.324371 0.239488 0.933174 -0.155265
C145  C     C_R   0.778584 0.188267 0.973779 -0.132721
C146  C     C_R   0.177498 0.744070 0.065587 -0.166120
C147  C     C_R   0.222186 0.186334 0.026092 -0.130849
C148  C     C_R   0.824345 0.739615 0.933149 -0.155207
C149  C     C_R   0.119043 0.791095 0.955225 0.047500
C150  C     C_R   0.836047 0.138458 0.079146 0.031467
C151  C     C_R   0.882079 0.789481 0.044143 0.046410
C152  C     C_R   0.164119 0.137474 0.921042 0.031698
C153  C     C_R   0.619027 0.291164 0.955252 0.046156
C154  C     C_R   0.796097 0.231339 0.328585 0.569109
C155  C     C_R   0.336027 0.638339 0.079026 0.031375
C156  C     C_R   0.382087 0.289453 0.044182 0.046342
C157  C     C_R   0.664157 0.637399 0.920951 0.031683
C158  C     C_R   0.105527 0.836580 0.900698 -0.029673
C159  C     C_R   0.875450 0.138241 0.110866 -0.011447
C160  C     C_R   0.894872 0.835858 0.098726 -0.028328
C161  C     C_R   0.124730 0.137855 0.889169 -0.010921
C162  C     C_R   0.605518 0.336598 0.900699 -0.029616
C163  C     C_R   0.375399 0.638145 0.110839 -0.012561
C164  C     C_R   0.394864 0.335873 0.098752 -0.028421
C165  C     C_R   0.205816 0.774376 0.670510 0.587321
C166  C     C_R   0.624742 0.637827 0.889140 -0.010908
C167  C     C_R   0.130399 0.825126 0.807157 0.180216
C168  C     C_R   0.865984 0.177509 0.188289 0.186426
C169  C     C_R   0.869794 0.824370 0.192143 0.181585
C170  C     C_R   0.134307 0.177272 0.811734 0.182416
C171  C     C_R   0.630394 0.325118 0.807163 0.180241
C172  C     C_R   0.365896 0.677411 0.188286 0.185486
C173  C     C_R   0.369759 0.324441 0.192182 0.181638
C174  C     C_R   0.634302 0.677271 0.811730 0.182448
C175  C     C_R   0.178768 0.788099 0.768742 -0.013978
C176  C     C_R   0.204083 0.231014 0.671370 0.563834
C177  C     C_R   0.818700 0.216305 0.231408 -0.028931
C178  C     C_R   0.821260 0.787716 0.230644 -0.014491
C179  C     C_R   0.181817 0.215679 0.768497 -0.032198
C180  C     C_R   0.678766 0.288085 0.768752 -0.014072
C181  C     C_R   0.318574 0.716133 0.231450 -0.027800
C182  C     C_R   0.321249 0.287741 0.230660 -0.014379
C183  C     C_R   0.681808 0.715686 0.768497 -0.032186
C184  C     C_R   0.202806 0.773347 0.824475 0.264821
C185  C     C_R   0.790246 0.233962 0.182879 0.234214
C186  C     C_R   0.797822 0.772228 0.173928 0.270423
C187  C     C_R   0.794165 0.774392 0.329299 0.580590
C188  C     C_R   0.210810 0.232400 0.816578 0.234331
C189  C     C_R   0.702782 0.273252 0.824509 0.265445
C190  C     C_R   0.289988 0.733585 0.183048 0.241790
C191  C     C_R   0.297817 0.272262 0.173937 0.270547
C192  C     C_R   0.710795 0.732404 0.816584 0.234354
C193  C     C_R   0.196581 0.631896 0.528318 0.568969
C194  C     C_R   0.800888 0.368836 0.481785 0.580357
C195  C     C_R   0.803156 0.631697 0.473176 0.557715
C196  C     C_R   0.198918 0.368959 0.519216 0.578301
C197  C     C_R   0.696597 0.131886 0.528237 0.566775
C198  C     C_R   0.402816 0.001496 0.488884 -0.083624
C199  C     C_R   0.300885 0.868837 0.481778 0.580064
C200  C     C_R   0.303157 0.131700 0.473148 0.557759
C201  C     C_R   0.698924 0.868954 0.519176 0.578095
C202  C     C_R   0.171091 0.761406 0.917585 0.016045
C203  C     C_R   0.795240 0.190701 0.110294 0.021079
C204  C     C_R   0.830427 0.758244 0.081549 0.013428
C205  C     C_R   0.205478 0.189001 0.889457 0.021263
C206  C     C_R   0.671058 0.261493 0.917653 0.015616
C207  C     C_R   0.295069 0.690339 0.110414 0.032918
C208  C     C_R   0.330433 0.258214 0.081585 0.013381
Cu1   Cu    Cu3+1 0.209920 0.785290 0.495070 0.983691
Cu2   Cu    Cu3+1 0.504760 0.500000 0.075850 0.938536
Cu3   Cu    Cu3+1 0.995240 0.000000 0.924150 0.950649
Cu4   Cu    Cu3+1 0.004760 1.000000 0.075850 0.937836
Cu5   Cu    Cu3+1 0.790080 0.214710 0.504930 0.994741
Cu6   Cu    Cu3+1 0.790080 0.785290 0.504930 1.041826
Cu7   Cu    Cu3+1 0.209920 0.214710 0.495070 0.992463
Cu8   Cu    Cu3+1 0.709920 0.285290 0.495070 0.981061
Cu9   Cu    Cu3+1 0.290080 0.714710 0.504930 0.994971
Cu10  Cu    Cu3+1 0.290080 0.285290 0.504930 1.042284
Cu11  Cu    Cu3+1 0.709920 0.714710 0.495070 0.992758
Cu12  Cu    Cu3+1 0.495240 0.500000 0.924150 0.950666
H1    H     H_    0.141039 0.772412 0.103121 0.178663
H2    H     H_    0.615533 0.689187 0.394115 0.164437
H3    H     H_    0.254115 0.061609 0.108363 0.102574
H4    H     H_    0.240913 0.077626 0.222133 0.134786
H5    H     H_    0.804108 0.614586 0.778458 0.107362
H6    H     H_    0.866264 0.629132 0.785998 0.090044
H7    H     H_    0.860407 0.653228 0.686725 0.151351
H8    H     H_    0.047669 0.805681 0.070559 0.265480
H9    H     H_    0.036327 0.687769 0.124193 0.117501
H10   H     H_    0.098727 0.662696 0.033898 0.150873
H11   H     H_    0.043501 0.686520 0.011095 0.128536
H12   H     H_    0.866255 0.077797 0.961148 0.278393
H13   H     H_    0.567664 0.724114 0.360614 0.142337
H14   H     H_    0.807926 0.979612 0.018910 0.132212
H15   H     H_    0.771111 0.026144 0.122823 0.130679
H16   H     H_    0.837195 0.992594 0.094695 0.164290
H17   H     H_    0.953329 0.805510 0.929129 0.265963
H18   H     H_    0.967021 0.687322 0.877200 0.123987
H19   H     H_    0.904649 0.660934 0.966771 0.151256
H20   H     H_    0.958937 0.687482 0.990773 0.126746
H21   H     H_    0.133424 0.077433 0.039835 0.275898
H22   H     H_    0.190014 0.977790 0.983191 0.132870
H23   H     H_    0.227853 0.023727 0.878885 0.131032
H24   H     H_    0.551686 0.646509 0.431965 0.150395
H25   H     H_    0.161409 0.991931 0.906635 0.165850
H26   H     H_    0.547612 0.305668 0.070516 0.265413
H27   H     H_    0.536210 0.187814 0.124114 0.121120
H28   H     H_    0.598796 0.162809 0.034259 0.151292
H29   H     H_    0.543779 0.186398 0.010811 0.126776
H30   H     H_    0.366505 0.578130 0.960592 0.278186
H31   H     H_    0.308148 0.479850 0.017531 0.130936
H32   H     H_    0.271067 0.526142 0.121559 0.140620
H33   H     H_    0.337068 0.492443 0.093884 0.163612
H34   H     H_    0.453349 0.305448 0.929186 0.265936
H35   H     H_    0.436423 0.288597 0.555203 0.262618
H36   H     H_    0.467080 0.187214 0.877404 0.123780
H37   H     H_    0.404686 0.160860 0.966949 0.151215
H38   H     H_    0.458941 0.187481 0.991007 0.126789
H39   H     H_    0.633527 0.577189 0.039598 0.275999
H40   H     H_    0.690140 0.477599 0.982684 0.133072
H41   H     H_    0.727920 0.523663 0.878452 0.131145
H42   H     H_    0.661465 0.491884 0.906256 0.165777
H43   H     H_    0.044134 0.797933 0.813849 0.073959
H44   H     H_    0.082500 0.791715 0.692887 0.181644
H45   H     H_    0.043579 0.868450 0.741974 0.135584
H46   H     H_    0.445677 0.339968 0.412090 0.136645
H47   H     H_    0.966954 0.230929 0.214497 0.126230
H48   H     H_    0.911606 0.285063 0.226383 0.091767
H49   H     H_    0.953454 0.241311 0.120219 0.091975
H50   H     H_    0.955733 0.793641 0.183266 0.072108
H51   H     H_    0.917932 0.787089 0.304173 0.185357
H52   H     H_    0.958326 0.863119 0.254452 0.127656
H53   H     H_    0.092917 0.284297 0.768402 0.090731
H54   H     H_    0.045287 0.241630 0.871663 0.089761
H55   H     H_    0.038983 0.232640 0.769822 0.140607
H56   H     H_    0.544172 0.297705 0.813882 0.073779
H57   H     H_    0.495271 0.272644 0.356006 0.158666
H58   H     H_    0.582454 0.291651 0.692887 0.181540
H59   H     H_    0.543467 0.368291 0.742209 0.135664
H60   H     H_    0.466646 0.731113 0.215029 0.126387
H61   H     H_    0.411367 0.785064 0.226173 0.091111
H62   H     H_    0.453514 0.741125 0.120300 0.092098
H63   H     H_    0.455707 0.293991 0.183480 0.072077
H64   H     H_    0.417884 0.287512 0.304397 0.185393
H65   H     H_    0.458176 0.363606 0.254591 0.128137
H66   H     H_    0.538982 0.732666 0.769824 0.140588
H67   H     H_    0.592904 0.784312 0.768470 0.090735
H68   H     H_    0.505449 0.339760 0.424967 0.138974
H69   H     H_    0.545262 0.741606 0.871692 0.089726
H70   H     H_    0.224351 0.875428 0.890512 0.090830
H71   H     H_    0.262603 0.900989 0.774724 0.130437
H72   H     H_    0.293645 0.863000 0.839454 0.107206
H73   H     H_    0.808934 0.350680 0.096981 0.088355
H74   H     H_    0.815746 0.363291 0.200057 0.091853
H75   H     H_    0.760296 0.400190 0.188598 0.132064
H76   H     H_    0.777933 0.866913 0.090453 0.102433
H77   H     H_    0.751451 0.904089 0.201900 0.115990
H78   H     H_    0.709089 0.868297 0.155763 0.100076
H79   H     H_    0.422598 0.725297 0.537705 0.282567
H80   H     H_    0.194560 0.349248 0.901393 0.086735
H81   H     H_    0.187156 0.362425 0.798894 0.089809
H82   H     H_    0.243561 0.397716 0.808707 0.135102
H83   H     H_    0.724705 0.375320 0.889956 0.090448
H84   H     H_    0.763186 0.400405 0.774071 0.130694
H85   H     H_    0.793939 0.362286 0.839187 0.107457
H86   H     H_    0.308446 0.850576 0.097723 0.087060
H87   H     H_    0.314923 0.863038 0.201116 0.092302
H88   H     H_    0.259482 0.899672 0.189405 0.132395
H89   H     H_    0.278160 0.367045 0.090225 0.102370
H90   H     H_    0.439685 0.678121 0.394255 0.159823
H91   H     H_    0.251841 0.404307 0.201610 0.117565
H92   H     H_    0.209330 0.368805 0.155611 0.100212
H93   H     H_    0.694451 0.849210 0.901504 0.086701
H94   H     H_    0.687052 0.862412 0.799005 0.089711
H95   H     H_    0.743425 0.897758 0.808873 0.135071
H96   H     H_    0.490778 0.743999 0.340984 0.115124
H97   H     H_    0.819345 0.172874 0.933058 0.153010
H98   H     H_    0.421873 0.770413 0.396245 0.173046
H99   H     H_    0.534255 0.271867 0.598281 0.276429
H100  H     H_    0.595534 0.340808 0.473054 0.127496
H101  H     H_    0.584722 0.281784 0.397584 0.155792
H102  H     H_    0.619559 0.250659 0.458499 0.200350
H103  H     H_    0.074038 0.242341 0.530353 0.266909
H104  H     H_    0.115871 0.189591 0.392937 0.164841
H105  H     H_    0.067963 0.224684 0.359630 0.142350
H106  H     H_    0.052079 0.146811 0.430521 0.150252
H107  H     H_    0.935934 0.788503 0.556388 0.263288
H108  H     H_    0.861600 0.766057 0.894713 0.189600
H109  H     H_    0.945108 0.839219 0.412573 0.138440
H110  H     H_    0.995557 0.772743 0.357253 0.153444
H111  H     H_    0.004448 0.840557 0.426773 0.137677
H112  H     H_    0.922865 0.225208 0.536807 0.282411
H113  H     H_    0.940047 0.178517 0.393087 0.160174
H114  H     H_    0.990992 0.244650 0.340205 0.115049
H115  H     H_    0.922025 0.270777 0.395676 0.172941
H116  H     H_    0.033102 0.771358 0.600973 0.276180
H117  H     H_    0.094395 0.841444 0.477504 0.126918
H118  H     H_    0.083739 0.783953 0.400572 0.148942
H119  H     H_    0.181106 0.172269 0.066963 0.149491
H120  H     H_    0.118695 0.751373 0.460611 0.202876
H121  H     H_    0.237929 0.010943 0.457512 0.287343
H122  H     H_    0.270026 0.994406 0.298004 0.123667
H123  H     H_    0.336467 0.984042 0.285589 0.124634
H124  H     H_    0.304638 0.070570 0.312583 0.146747
H125  H     H_    0.763567 0.010886 0.539335 0.287538
H126  H     H_    0.735195 0.994207 0.697813 0.127310
H127  H     H_    0.667780 0.983418 0.715207 0.122619
H128  H     H_    0.699226 0.070211 0.686489 0.148389
H129  H     H_    0.737984 0.510934 0.457443 0.287398
H130  H     H_    0.641153 0.273469 0.103118 0.185439
H131  H     H_    0.804693 0.570587 0.312565 0.146828
H132  H     H_    0.770159 0.494357 0.297915 0.123945
H133  H     H_    0.836592 0.484093 0.285591 0.124772
H134  H     H_    0.263528 0.510879 0.539555 0.287737
H135  H     H_    0.199208 0.570345 0.686557 0.147782
H136  H     H_    0.235127 0.494366 0.698081 0.127158
H137  H     H_    0.167714 0.483588 0.715443 0.122637
H138  H     H_    0.659658 0.902069 0.302485 0.108989
H139  H     H_    0.596830 0.859170 0.335055 0.071981
H140  H     H_    0.653174 0.806737 0.283728 0.204111
H141  H     H_    0.319795 0.674130 0.932817 0.151377
H142  H     H_    0.492290 0.137758 0.290062 0.109408
H143  H     H_    0.448732 0.176605 0.249792 0.102652
H144  H     H_    0.434233 0.089962 0.296206 0.106520
H145  H     H_    0.359803 0.881478 0.698745 0.098687
H146  H     H_    0.411552 0.816135 0.653045 0.084689
H147  H     H_    0.347356 0.785424 0.710473 0.219574
H148  H     H_    0.513274 0.131491 0.726792 0.112868
H149  H     H_    0.557937 0.178244 0.758550 0.107454
H150  H     H_    0.575997 0.092110 0.711925 0.110279
H151  H     H_    0.160088 0.402577 0.302456 0.111624
H152  H     H_    0.361672 0.265811 0.894700 0.189588
H153  H     H_    0.097095 0.360211 0.334836 0.071779
H154  H     H_    0.153235 0.307399 0.283463 0.203611
H155  H     H_    0.949165 0.676226 0.250109 0.103109
H156  H     H_    0.993213 0.639906 0.291029 0.103498
H157  H     H_    0.936363 0.589503 0.296440 0.107076
H158  H     H_    0.860285 0.380836 0.698570 0.098342
H159  H     H_    0.911741 0.315125 0.652533 0.085086
H160  H     H_    0.847432 0.284883 0.710121 0.219275
H161  H     H_    0.013781 0.630634 0.727621 0.112619
H162  H     H_    0.058195 0.678351 0.759049 0.107676
H163  H     H_    0.681187 0.671994 0.066869 0.149610
H164  H     H_    0.076936 0.592377 0.712225 0.109874
H165  H     H_    0.196032 0.610012 0.869955 0.092393
H166  H     H_    0.243889 0.563629 0.897882 0.102504
H167  H     H_    0.257147 0.576674 0.783547 0.136358
H168  H     H_    0.695324 0.118845 0.221717 0.111635
H169  H     H_    0.633531 0.135397 0.213695 0.091190
H170  H     H_    0.639587 0.158677 0.312941 0.137154
H171  H     H_    0.803004 0.607734 0.134051 0.094218
H172  H     H_    0.754375 0.561480 0.107970 0.102688
H173  H     H_    0.741154 0.577360 0.221772 0.134882
H174  H     H_    0.573777 0.742433 0.531220 0.266861
H175  H     H_    0.304024 0.114440 0.778632 0.107388
H176  H     H_    0.366181 0.128913 0.786189 0.089868
H177  H     H_    0.360369 0.152963 0.686864 0.151163
H178  H     H_    0.695117 0.109404 0.871823 0.092616
H179  H     H_    0.743060 0.063182 0.899691 0.102361
H180  H     H_    0.756010 0.075505 0.785406 0.135950
H181  H     H_    0.154114 0.616252 0.208193 0.099673
H182  H     H_    0.124255 0.664318 0.311550 0.140150
H183  H     H_    0.105253 0.686097 0.225346 0.101044
H184  H     H_    0.302805 0.107806 0.134344 0.094250
N1    N     N_2   0.551212 0.742197 0.496578 -0.480334
N2    N     N_2   0.725164 0.995711 0.581088 -0.475618
N3    N     N_2   0.776640 0.495624 0.417887 -0.476392
N4    N     N_2   0.225126 0.495701 0.581308 -0.475816
N5    N     N_2   0.080021 0.772439 0.042920 -0.533834
N6    N     N_2   0.833929 0.083059 0.022685 -0.524522
N7    N     N_2   0.921550 0.771238 0.956853 -0.531236
N8    N     N_2   0.165697 0.082009 0.978078 -0.525346
N9    N     N_2   0.580004 0.272491 0.042943 -0.532427
N10   N     N_2   0.334114 0.583199 0.022080 -0.524373
N11   N     N_2   0.421573 0.271168 0.956924 -0.531258
N12   N     N_2   0.449550 0.260336 0.496249 -0.453267
N13   N     N_2   0.665791 0.581850 0.977842 -0.525361
N14   N     N_2   0.455788 0.742120 0.482059 -0.492267
N15   N     N_2   0.536860 0.263125 0.535584 -0.520406
N16   N     N_2   0.051478 0.242243 0.495704 -0.480349
N17   N     N_2   0.949187 0.760303 0.497371 -0.452576
N18   N     N_2   0.956036 0.242213 0.481257 -0.492319
N19   N     N_2   0.035955 0.763126 0.538024 -0.519222
N20   N     N_2   0.276578 0.995623 0.417920 -0.476459
O1    O     O_R   0.255040 0.869590 0.478480 -0.490161
O2    O     O_R   0.817950 0.203450 0.375560 -0.476235
O3    O     O_R   0.817950 0.796550 0.375560 -0.473329
O4    O     O_R   0.182050 0.203450 0.624440 -0.472890
O5    O     O_R   0.682050 0.296550 0.624440 -0.474370
O6    O     O_R   0.317950 0.703450 0.375560 -0.476317
O7    O     O_R   0.317950 0.296550 0.375560 -0.473211
O8    O     O_R   0.682050 0.703450 0.624440 -0.472871
O9    O     O_R   0.250530 0.763330 0.367210 -0.471232
O10   O     O_R   0.749470 0.236670 0.632790 -0.460872
O11   O     O_R   0.749470 0.763330 0.632790 -0.464114
O12   O     O_R   0.744960 0.130410 0.521520 -0.525210
O13   O     O_R   0.250530 0.236670 0.367210 -0.470552
O14   O     O_R   0.750530 0.263330 0.367210 -0.473358
O15   O     O_R   0.249470 0.736670 0.632790 -0.461471
O16   O     O_R   0.249470 0.263330 0.632790 -0.464136
O17   O     O_R   0.750530 0.736670 0.367210 -0.470337
O18   O     O_R   0.177260 0.690030 0.513710 -0.487232
O19   O     O_R   0.822740 0.309970 0.486290 -0.479794
O20   O     O_R   0.822740 0.690030 0.486290 -0.458554
O21   O     O_R   0.177260 0.309970 0.513710 -0.480322
O22   O     O_R   0.677260 0.190030 0.513710 -0.489015
O23   O     O_R   0.744960 0.869590 0.521520 -0.491322
O24   O     O_R   0.322740 0.809970 0.486290 -0.480249
O25   O     O_R   0.322740 0.190030 0.486290 -0.458486
O26   O     O_R   0.677260 0.809970 0.513710 -0.480065
O27   O     O_R   0.051640 0.926880 0.885090 -0.468347
O28   O     O_R   0.948360 0.073120 0.114910 -0.444744
O29   O     O_R   0.948360 0.926880 0.114910 -0.466377
O30   O     O_R   0.051640 0.073120 0.885090 -0.441636
O31   O     O_R   0.551640 0.426880 0.885090 -0.468414
O32   O     O_R   0.448360 0.573120 0.114910 -0.444399
O33   O     O_R   0.448360 0.426880 0.114910 -0.466460
O34   O     O_R   0.255040 0.130410 0.478480 -0.530271
O35   O     O_R   0.551640 0.573120 0.885090 -0.441693
O36   O     O_R   0.940620 0.926560 0.986760 -0.538532
O37   O     O_R   0.059380 0.073440 0.013240 -0.535840
O38   O     O_R   0.059380 0.926560 0.013240 -0.539694
O39   O     O_R   0.940620 0.073440 0.986760 -0.533444
O40   O     O_R   0.440620 0.426560 0.986760 -0.538500
O41   O     O_R   0.559380 0.573440 0.013240 -0.535899
O42   O     O_R   0.559380 0.426560 0.013240 -0.539555
O43   O     O_R   0.440620 0.573440 0.986760 -0.533674
O44   O     O_3   0.639327 0.834532 0.410784 -0.522534
O45   O     O_R   0.755040 0.369590 0.478480 -0.489452
O46   O     O_3   0.419293 0.174414 0.387363 -0.541596
O47   O     O_3   0.361656 0.828025 0.588078 -0.527668
O48   O     O_3   0.581262 0.174422 0.622646 -0.573287
O49   O     O_3   0.139443 0.334817 0.410604 -0.522589
O50   O     O_3   0.919342 0.674371 0.387737 -0.541317
O51   O     O_3   0.861753 0.327824 0.587884 -0.527750
O52   O     O_3   0.081274 0.674403 0.623219 -0.574243
O53   O     O_3   0.265089 0.666441 0.845528 -0.517846
O54   O     O_3   0.679305 0.225114 0.205747 -0.515693
O55   O     O_3   0.735142 0.665717 0.155312 -0.521162
O56   O     O_R   0.244960 0.630410 0.521520 -0.525453
O57   O     O_3   0.321942 0.220065 0.793432 -0.505732
O58   O     O_3   0.764405 0.165674 0.846240 -0.517822
O59   O     O_3   0.180071 0.721041 0.206278 -0.509285
O60   O     O_3   0.235021 0.165924 0.155462 -0.521282
O61   O     O_3   0.821937 0.720226 0.793389 -0.505754
O62   O     O_3   0.113712 0.861833 0.752014 -0.515445
O63   O     O_3   0.901803 0.175261 0.224169 -0.517923
O64   O     O_3   0.887397 0.859519 0.246878 -0.515528
O65   O     O_3   0.099149 0.173747 0.774504 -0.511738
O66   O     O_3   0.613673 0.361758 0.752020 -0.515428
O67   O     O_R   0.244960 0.369590 0.521520 -0.491163
O68   O     O_3   0.401707 0.675197 0.224187 -0.517633
O69   O     O_3   0.387276 0.359722 0.246948 -0.515405
O70   O     O_3   0.599138 0.673755 0.774510 -0.511727
O71   O     O_3   0.255393 0.791657 0.793866 -0.513181
O72   O     O_3   0.756708 0.292143 0.208132 -0.485946
O73   O     O_3   0.746136 0.793792 0.200647 -0.513146
O74   O     O_3   0.245320 0.289646 0.790471 -0.481334
O75   O     O_3   0.755449 0.291154 0.793801 -0.513258
O76   O     O_3   0.256239 0.791569 0.208401 -0.486512
O77   O     O_3   0.246187 0.294039 0.200529 -0.513346
O78   O     O_R   0.755040 0.630410 0.478480 -0.530248
O79   O     O_3   0.745263 0.789695 0.790534 -0.481318
O80   O     O_R   0.182050 0.796550 0.624440 -0.474975

loop_
_geom_bond_atom_site_label_1
_geom_bond_atom_site_label_2
_ccdc_geom_bond_type
C49   C113  A    
C31   C42   A    
C111  H64   S    
C141  H130  S    
C84   H156  S    
C50   C79   A    
C14   C33   A    
C109  H58   S    
C19   C46   A    
C85   H158  S    
C131  O53   S    
C110  H61   S    
C16   C31   A    
C106  H47   S    
C124  C133  A    
C15   C30   A    
C50   C59   A    
C155  C207  A    
C52   C61   A    
C7    C159  S    
C97   H15   S    
C117  H77   S    
C118  H82   S    
C131  C140  A    
C135  O57   S    
C13   C51   A    
C44   C53   A    
C176  C179  S    
Cu8   O5    S    
C95   O61   S    
C82   H149  S    
C17   C68   A    
C89   O55   S    
C47   C198  A    
C80   H144  S    
H116  N19   S    
Cu7   O21   S    
C87   H165  S    
C67   H98   S    
C88   H170  S    
C137  O59   S    
C58   C64   A    
C103  H36   S    
C81   O47   S    
C104  H42   S    
C150  C203  A    
C65   H2    S    
C158  C167  A    
C70   H105  S    
C68   O48   S    
C65   H24   S    
C188  C205  A    
C122  H94   S    
C150  C159  A    
C137  C146  A    
C127  C136  A    
C108  H53   S    
C71   N17   S    
C146  H1    S    
C1    C181  S    
C193  O18   A    
C98   H19   S    
C124  C203  S    
C145  H97   S    
C102  H31   S    
C122  O79   S    
C91   H177  S    
C5    C161  S    
C89   H171  S    
C181  C190  A    
Cu5   O2    S    
C189  C206  A    
C105  H43   S    
C74   N20   S    
C164  C173  A    
C163  C172  A    
Cu9   O6    S    
C147  H119  S    
C39   C198  A    
C173  C182  A    
C100  H29   S    
C174  O70   S    
C76   H131  S    
H17   N7    S    
H129  N3    S    
C35   C45   A    
C71   H110  S    
C106  O63   S    
C85   H160  S    
C120  O76   S    
C16   C25   A    
C8    O40   A    
H26   N9    S    
C9    O35   A    
C11   O43   A    
C107  H52   S    
C1    O9    A    
C57   O47   S    
C9    O41   A    
Cu2   O42   S    
C125  C148  A    
C126  C147  A    
C93   H181  S    
C92   H178  S    
C58   C193  S    
C118  H80   S    
C102  H33   S    
C155  C163  A    
C109  O66   S    
Cu9   O56   S    
C66   H68   S    
C18   C38   A    
Cu1   Cu9   S    
C100  H27   S    
C107  O64   S    
C86   H161  S    
Cu6   O23   S    
C121  H92   S    
C48   C101  A    
C121  O77   S    
C6    O27   A    
C156  C208  A    
C95   H7    S    
C1    O6    A    
H39   N13   S    
C6    O38   A    
C178  C186  A    
C2    C40   A    
C67   H96   S    
C154  C177  S    
C104  N13   S    
Cu4   O37   S    
C82   H148  S    
C116  H75   S    
Cu1   O1    S    
C199  O24   A    
C27   C29   A    
C96   N5    S    
C108  H55   S    
Cu11  O17   S    
C129  C144  A    
H134  N4    S    
C194  O19   A    
H99   N15   S    
C63   N3    S    
C75   H128  S    
C91   H175  S    
C9    C166  S    
C81   H145  S    
C37   C40   A    
C89   H173  S    
C180  C189  A    
C132  C183  S    
C38   C39   A    
C43   C52   A    
C126  C205  S    
C105  H45   S    
Cu6   O3    S    
C73   H118  S    
C167  O62   S    
C127  C141  A    
C98   N7    S    
C148  H108  S    
C78   H139  S    
C20   C35   A    
Cu10  O7    S    
C156  N11   S    
C69   N15   S    
C2    C44   A    
C22   C25   A    
C70   N16   S    
C186  O73   S    
C30   C41   A    
Cu12  O40   S    
C119  H84   S    
C149  C158  A    
Cu8   O14   S    
C152  C161  A    
C21   N19   S    
C169  O64   S    
C112  C180  S    
C120  H88   S    
C69   H101  S    
C85   O51   S    
Cu3   O30   S    
C94   H4    S    
C103  N11   S    
C66   N12   S    
C6    C158  S    
Cu10  O16   S    
C93   H183  S    
C2    C45   A    
C24   C50   A    
C140  H141  S    
C92   H180  S    
C139  C148  A    
C162  C171  A    
C132  O11   A    
C34   C39   A    
C143  C182  S    
C134  O55   S    
C8    C164  S    
Cu7   Cu10  S    
C129  C208  S    
C114  H66   S    
C74   H124  S    
C119  O75   S    
C117  O73   S    
Cu2   O33   S    
C95   H5    S    
C77   H137  S    
C115  H70   S    
C11   C163  S    
C96   H9    S    
Cu2   O32   S    
C19   C28   A    
C88   H169  S    
C111  O69   S    
C56   C194  S    
C143  O13   A    
C83   H154  S    
H125  N2    S    
C98   H18   S    
C27   N14   S    
C8    O33   A    
C125  C204  S    
C4    O36   A    
C161  C170  A    
C25   N16   S    
C26   N15   S    
C115  H72   S    
C77   H136  S    
C167  C175  A    
C149  N5    S    
C69   H102  S    
Cu12  O43   S    
C120  H86   S    
C119  H85   S    
C75   H126  S    
H121  N20   S    
C111  H63   S    
C81   H147  S    
C46   O46   S    
H8    N5    S    
C45   C54   A    
Cu11  O78   S    
C110  H62   S    
C54   C201  S    
C73   H120  S    
C106  H48   S    
C170  C179  A    
C14   C22   A    
C99   H22   S    
C112  O5    A    
C128  C140  A    
C3    C192  A    
C91   O57   S    
C155  N10   S    
C97   H14   S    
Cu9   O15   S    
C103  H38   S    
C120  H87   S    
C172  O68   S    
C130  C142  A    
C195  O78   A    
C109  H56   S    
C79   O49   S    
C43   C57   A    
C86   H164  S    
C165  O15   A    
C190  C207  A    
C82   H150  S    
C106  H49   S    
C10   C162  S    
C3    C157  A    
C175  C184  A    
C80   O46   S    
C51   C60   A    
C75   N2    S    
C76   N3    S    
C176  O4    A    
C149  C202  A    
C60   C195  S    
C125  C134  A    
C94   H184  S    
C72   H113  S    
C34   C37   A    
C24   C42   A    
C101  O51   S    
Cu7   O34   S    
C151  C204  A    
C183  C192  A    
C13   C41   A    
C133  O54   S    
C70   H106  S    
C86   O52   S    
C74   H122  S    
C116  H74   S    
C122  H95   S    
C84   O50   S    
C187  O3    A    
C65   H13   S    
C4    O29   A    
C108  H54   S    
C168  O63   S    
C191  O77   S    
C98   H20   S    
Cu8   O45   S    
C88   H168  S    
C168  C177  A    
C78   O44   S    
C177  C185  A    
C66   H57   S    
C104  H40   S    
C96   H11   S    
Cu11  O26   S    
C136  O58   S    
C108  O65   S    
H103  N16   S    
C160  C169  A    
H112  N18   S    
C5    O30   A    
C99   H25   S    
C116  O72   S    
C61   N20   S    
C117  H76   S    
C76   H132  S    
C71   H111  S    
C67   N14   S    
C201  O23   A    
Cu12  O35   S    
C84   H155  S    
C130  C139  A    
C154  O14   A    
C109  H59   S    
C85   H159  S    
C110  H60   S    
C116  H73   S    
C166  C174  A    
Cu11  O8    S    
C5    O37   A    
Cu1   O18   S    
C200  O34   A    
C150  N6    S    
C14   C101  A    
C54   C62   A    
C201  O26   A    
C97   H16   S    
C107  H51   S    
C117  H78   S    
C118  H81   S    
C171  O66   S    
Cu7   O13   S    
C138  O60   S    
C100  H28   S    
Cu4   O29   S    
C134  C142  A    
C18   C57   A    
C55   C200  S    
Cu1   O80   S    
C123  C146  A    
C143  O7    A    
C121  H91   S    
C10   O31   A    
C102  N10   S    
Cu1   O9    S    
C46   C47   A    
C195  O20   A    
C153  N9    S    
C192  O79   S    
C196  O21   A    
C64   N4    S    
C178  C187  S    
C144  H152  S    
C87   H166  S    
Cu9   O24   S    
C126  C135  A    
C72   H115  S    
C21   C23   A    
C115  H71   S    
C173  O69   S    
C185  O72   S    
C104  H41   S    
C90   O50   S    
Cu4   O38   S    
C28   N12   S    
C154  O2    A    
C70   H104  S    
Cu5   Cu8   S    
C11   O32   A    
C122  H93   S    
C184  O71   S    
C123  C131  A    
C100  N9    S    
C10   O42   A    
C142  H163  S    
C152  N8    S    
C53   C197  S    
C174  C183  A    
C189  O75   S    
C179  C188  A    
C67   H90   S    
C151  N7    S    
C59   C196  S    
C133  C141  A    
C75   H127  S    
C153  C162  A    
C16   C79   A    
C33   C41   A    
C185  C203  A    
C36   C38   A    
C51   C90   A    
C89   H172  S    
H34   N11   S    
Cu8   O22   S    
C105  H44   S    
C77   N4    S    
C73   H117  S    
C43   C198  A    
C197  O12   A    
C99   H23   S    
C78   H140  S    
C20   C36   A    
H107  N17   S    
C71   H109  S    
C32   C42   A    
C119  H83   S    
C84   H157  S    
Cu5   O10   S    
C35   O44   S    
C199  O1    A    
C82   O48   S    
C3    C130  S    
C93   O59   S    
Cu2   O41   S    
C99   N8    S    
C93   H182  S    
C139  O61   S    
C97   N6    S    
C113  O52   S    
C59   C64   A    
C60   C63   A    
C102  H32   S    
C17   C26   A    
C69   H100  S    
C127  C206  S    
Cu6   Cu11  S    
C135  C144  A    
C88   O54   S    
C114  H67   S    
C86   H162  S    
C55   C61   A    
Cu2   Cu12  S    
C159  C168  A    
C112  O10   A    
C200  O25   A    
C176  O16   A    
C62   N2    S    
C72   N18   S    
C129  C138  A    
Cu3   Cu4   S    
C31   C33   A    
C128  C207  S    
C96   H10   S    
C136  C145  A    
C66   H46   S    
C73   N19   S    
C105  O62   S    
C83   H153  S    
C15   C23   A    
C12   C32   A    
C115  O71   S    
C103  H37   S    
C172  C181  A    
C170  O65   S    
C77   H135  S    
C20   C29   A    
H174  N1    S    
C65   N1    S    
C184  C202  A    
H21   N8    S    
C29   N1    S    
C91   H176  S    
C22   N18   S    
C152  C205  A    
C36   C40   A    
C81   H146  S    
C7    O28   A    
C12   C21   A    
C49   C58   A    
C118  O74   S    
Cu3   O36   S    
C197  O22   A    
C128  C137  A    
C190  O76   S    
C78   H138  S    
C53   C62   A    
C188  O74   S    
C80   H143  S    
C138  C147  A    
C194  O45   A    
C111  H65   S    
C56   C63   A    
C186  C204  A    
C52   C199  S    
C17   C37   A    
Cu10  O25   S    
Cu4   O28   S    
Cu5   O12   S    
Cu7   O4    S    
C87   O53   S    
C121  H89   S    
Cu6   O11   S    
C196  O67   A    
Cu10  O67   S    
C187  O17   A    
Cu3   O27   S    
C94   H3    S    
C171  C180  A    
C44   C68   A    
C80   H142  S    
C169  C178  A    
C47   C55   A    
C12   C113  A    
C132  O8    A    
C87   H167  S    
C24   C49   A    
C48   C56   A    
C92   H179  S    
C114  H69   S    
C72   H114  S    
C123  C202  S    
H12   N6    S    
C23   N17   S    
H35   N12   S    
C193  O56   A    
C18   C27   A    
C157  N13   S    
C19   C34   A    
C157  C166  A    
Cu5   O19   S    
C13   C48   A    
Cu6   O20   S    
C74   H123  S    
C165  C175  S    
C124  C145  A    
C26   C28   A    
C94   O60   S    
C114  O70   S    
C151  C160  A    
C95   H6    S    
C92   O58   S    
C15   C90   A    
C30   C32   A    
C4    C160  S    
C165  O80   A    
C83   O49   S    
C110  O68   S    
C191  C208  A    
H30   N10   S    
Cu12  O31   S    
C153  C206  A    
H79   N14   S    
C83   H151  S    
C156  C164  A    
C7    O39   A    
C182  C191  A    
Cu3   O39   S    
C76   H133  S    
C107  H50   S    
