data_mof_unit_61572.cif
_audit_creation_date              2012-10-26T18:56:26-0400
_audit_creation_method            fapswitch 2.2
_symmetry_space_group_name_H-M    P1
_symmetry_Int_Tables_number       1
_space_group_crystal_system       triclinic
_cell_length_a                    10.620478
_cell_length_b                    10.644827
_cell_length_c                    9.482895
_cell_angle_alpha                 90.475385
_cell_angle_beta                  90.445672
_cell_angle_gamma                 89.59461
_cell_volume                      1071.9754792

loop_
_atom_site_label
_atom_site_type_symbol
_atom_type_description
_atom_site_fract_x
_atom_site_fract_y
_atom_site_fract_z
_atom_type_partial_charge
C1    C     C_R   0.499869 0.259767 0.499218 0.554251
C2    C     C_3   0.395554 0.455565 0.047744 0.170117
C3    C     C_R   0.259708 0.500719 0.499709 0.570658
C4    C     C_R   0.740291 0.499280 0.500291 0.570658
C5    C     C_3   0.042406 0.519070 0.632254 -0.094132
C6    C     C_3   0.957594 0.480930 0.367746 -0.094132
C7    C     C_3   0.960843 0.407598 0.582959 0.088463
C8    C     C_3   0.039157 0.592401 0.417041 0.088463
C9    C     C_3   0.877202 0.499106 0.500431 0.016793
C10   C     C_3   0.122798 0.500894 0.499569 0.016793
C11   C     C_3   0.956827 0.611166 0.549049 -0.122434
C12   C     C_R   0.500131 0.740233 0.500782 0.554251
C13   C     C_3   0.043173 0.388834 0.450951 -0.122434
C14   C     C_3   0.608627 0.042767 0.556448 -0.133770
C15   C     C_3   0.391373 0.957233 0.443551 -0.133770
C16   C     C_3   0.598320 0.955682 0.424614 -0.137180
C17   C     C_3   0.401680 0.044318 0.575386 -0.137180
C18   C     C_3   0.500323 0.877032 0.502505 0.013125
C19   C     C_3   0.499677 0.122968 0.497495 0.013125
C20   C     C_1   0.523221 0.923070 0.779548 0.272165
C21   C     C_1   0.476778 0.076930 0.220452 0.272165
C22   C     C_1   0.310421 0.648942 0.892348 0.279068
C23   C     C_3   0.510520 0.962663 0.632438 -0.001684
C24   C     C_1   0.689579 0.351058 0.107652 0.279068
C25   C     C_3   0.489480 0.037337 0.367562 -0.001684
C26   C     C_3   0.512752 0.612763 0.052292 -0.019344
C27   C     C_3   0.487248 0.387237 0.947708 -0.019343
C28   C     C_3   0.409735 0.567385 0.949903 0.069357
C29   C     C_3   0.590265 0.432614 0.050097 0.069357
C30   C     C_3   0.604446 0.544435 0.952256 0.170118
Cu1   Cu    Cu3+1 0.500030 0.499990 0.643150 1.013070
Cu2   Cu    Cu3+1 0.499970 0.500010 0.356850 1.013070
H1    H     H_    0.078068 0.532908 0.741462 0.188609
H2    H     H_    0.476866 0.292307 0.899952 0.159041
H3    H     H_    0.921932 0.467091 0.258538 0.188609
H4    H     H_    0.919272 0.702367 0.588503 0.161535
H5    H     H_    0.080728 0.297633 0.411497 0.161535
H6    H     H_    0.678192 0.917373 0.362370 0.149027
H7    H     H_    0.321808 0.082627 0.637630 0.149027
H8    H     H_    0.697155 0.079151 0.603399 0.164897
H9    H     H_    0.302845 0.920849 0.396601 0.164897
H10   H     H_    0.523134 0.707693 0.100048 0.159041
I1    I     I_    0.900803 0.262092 0.720108 -0.316181
I2    I     I_    0.099197 0.737908 0.279892 -0.316181
I3    I     I_    0.776661 0.632404 0.894192 -0.279158
I4    I     I_    0.223339 0.367596 0.105808 -0.279159
N1    N     N_3   0.500090 0.499970 0.858290 -0.272078
N2    N     N_3   0.499910 0.500030 0.141710 -0.272078
N3    N     N_1   0.533483 0.892008 0.895643 -0.267568
N4    N     N_1   0.466517 0.107991 0.104357 -0.267568
N5    N     N_1   0.232593 0.714171 0.847348 -0.261454
N6    N     N_1   0.767408 0.285829 0.152652 -0.261454
O1    O     O_R   0.500060 0.316850 0.620870 -0.506174
O2    O     O_R   0.499940 0.683150 0.379130 -0.506174
O3    O     O_R   0.500000 0.316860 0.379090 -0.489475
O4    O     O_R   0.500000 0.683140 0.620910 -0.489475
O5    O     O_R   0.316880 0.499960 0.620870 -0.508890
O6    O     O_R   0.683120 0.500040 0.379130 -0.508890
O7    O     O_R   0.316830 0.499970 0.379090 -0.460654
O8    O     O_R   0.683170 0.500030 0.620910 -0.460654

loop_
_geom_bond_atom_site_label_1
_geom_bond_atom_site_label_2
_ccdc_geom_bond_type
C14   C23   S    
C24   N6    T    
C15   C18   S    
C2    C28   S    
C5    C7    S    
C28   N1    S    
C5    C11   S    
C29   C30   S    
Cu2   O6    S    
Cu1   O4    S    
C27   C29   S    
C9    C11   S    
Cu2   O3    S    
C13   H5    S    
Cu1   Cu2   S    
Cu2   O7    S    
C20   C23   S    
C26   N2    S    
C2    C27   S    
C2    N2    S    
C4    O8    A    
C6    C9    S    
C12   C18   S    
C1    O3    A    
C5    C10   S    
C3    C10   S    
C17   C23   S    
C26   C28   S    
Cu1   O1    S    
C6    C13   S    
Cu2   N2    S    
Cu1   O5    S    
C20   N3    T    
C21   C25   S    
C8    C11   S    
C15   C17   S    
C3    O5    A    
Cu2   O2    S    
C21   N4    T    
C22   C28   S    
C26   C30   S    
C7    I1    S    
C2    I4    S    
C27   H2    S    
C19   C25   S    
C14   C16   S    
C15   C25   S    
C26   H10   S    
C1    C19   S    
C3    O7    A    
C29   N2    S    
C4    O6    A    
C18   C23   S    
Cu1   N1    S    
C30   N1    S    
C7    C13   S    
C6    H3    S    
C15   H9    S    
C16   C18   S    
C17   H7    S    
C27   N1    S    
C16   C25   S    
C7    C9    S    
C1    O1    A    
C12   O4    A    
C11   H4    S    
C6    C8    S    
C30   I3    S    
Cu1   O8    S    
C17   C19   S    
C4    C9    S    
C24   C29   S    
C14   H8    S    
C14   C19   S    
C8    C10   S    
C12   O2    A    
C8    I2    S    
C16   H6    S    
C22   N5    T    
C10   C13   S    
C5    H1    S    
