data_mof_unit_38263.cif
_audit_creation_date              2012-12-10T20:02:24-0500
_audit_creation_method            fapswitch 2.2
_symmetry_space_group_name_H-M    P1
_symmetry_Int_Tables_number       1
_space_group_crystal_system       triclinic
_cell_length_a                    10.671827
_cell_length_b                    14.941196
_cell_length_c                    14.445017
_cell_angle_alpha                 89.54275
_cell_angle_beta                  89.69443
_cell_angle_gamma                 92.736275
_cell_volume                      2300.51895837

loop_
_atom_site_label
_atom_site_type_symbol
_atom_type_description
_atom_site_fract_x
_atom_site_fract_y
_atom_site_fract_z
_atom_type_partial_charge
C1    C     C_R   0.500957 0.328240 0.500146 0.858770
C2    C     C_R   0.446547 0.813517 0.426468 -0.275052
C3    C     C_R   0.509368 0.232644 0.499647 -0.026636
C4    C     C_R   0.509189 0.768679 0.496315 -0.038611
C5    C     C_R   0.585068 0.193879 0.433531 -0.224788
C6    C     C_R   0.586777 0.816158 0.557843 -0.223682
C7    C     C_R   0.592671 0.102088 0.431776 -0.241560
C8    C     C_R   0.595566 0.908278 0.553875 -0.229865
C9    C     C_R   0.523941 0.049072 0.495832 0.088783
C10   C     C_R   0.527360 0.953397 0.487736 0.098221
C11   C     C_R   0.418656 0.443356 0.105722 -0.294617
C12   C     C_R   0.501560 0.672063 0.499368 0.850606
C13   C     C_R   0.537891 0.576007 0.896706 -0.293931
C14   C     C_R   0.424639 0.439208 0.203376 0.258602
C15   C     C_R   0.543545 0.574950 0.798347 0.225251
C16   C     C_R   0.260534 0.502919 0.499746 0.863738
C17   C     C_R   0.738672 0.496994 0.499872 0.864091
C18   C     C_R   0.575587 0.561135 0.202262 0.266822
C19   C     C_R   0.460792 0.424726 0.800801 0.223394
C20   C     C_R   0.580061 0.558569 0.104460 -0.270948
C21   C     C_R   0.463438 0.425366 0.899035 -0.298269
C22   C     C_R   0.498960 0.501391 0.054032 0.067289
C23   C     C_R   0.870635 0.495754 0.499393 -0.083645
C24   C     C_R   0.499457 0.501154 0.948786 0.101742
C25   C     C_R   0.177237 0.749880 0.279931 -0.204555
C26   C     C_R   0.788324 0.211337 0.625585 -0.135681
C27   C     C_R   0.130307 0.702287 0.358093 0.127018
C28   C     C_R   0.852732 0.279925 0.574830 0.119251
C29   C     C_R   0.124784 0.607396 0.356405 0.105940
C30   C     C_R   0.868950 0.366441 0.614108 0.077036
C31   C     C_R   0.161360 0.563287 0.275778 -0.116191
C32   C     C_R   0.826584 0.380505 0.704691 -0.120152
C33   C     C_R   0.209420 0.611796 0.199574 -0.141047
C34   C     C_R   0.127173 0.504013 0.498692 -0.084217
C35   C     C_R   0.761815 0.311866 0.753836 -0.152966
C36   C     C_R   0.218020 0.705014 0.201857 -0.170764
C37   C     C_R   0.741603 0.227703 0.713982 -0.164130
C38   C     C_R   0.934473 0.550291 0.434632 -0.253133
C39   C     C_R   0.061928 0.449790 0.563470 -0.243072
C40   C     C_3   0.348389 0.363514 0.249343 -0.404265
C41   C     C_3   0.416567 0.275017 0.246169 -0.294659
C42   C     C_3   0.404492 0.227291 0.153225 -0.921413
C43   C     C_3   0.603968 0.660382 0.756982 -0.390566
C44   C     C_3   0.733013 0.646353 0.712009 -0.264879
C45   C     C_R   0.933322 0.441530 0.561818 0.011628
C46   C     C_3   0.833287 0.716957 0.741170 -0.980277
C47   C     C_3   0.657877 0.633250 0.247348 -0.405533
C48   C     C_3   0.600696 0.725801 0.242136 -0.318411
C49   C     C_3   0.622802 0.774041 0.149425 -0.910570
C50   C     C_3   0.410747 0.336405 0.762080 -0.381768
C51   C     C_3   0.279561 0.343743 0.720086 -0.294491
C52   C     C_3   0.186970 0.268531 0.752790 -0.974474
C53   C     C_3   0.086970 0.754465 0.440927 -0.453136
C54   C     C_3   0.969090 0.805235 0.417852 -0.329948
C55   C     C_3   0.931116 0.864065 0.498027 -0.905448
C56   C     C_R   0.063274 0.553137 0.431474 -0.010358
C57   C     C_3   0.908971 0.258184 0.481821 -0.443373
C58   C     C_3   0.041745 0.224445 0.493385 -0.325566
C59   C     C_3   0.116631 0.233901 0.403487 -0.904816
C60   C     C_3   0.385226 0.033942 0.643104 -0.429047
C61   C     C_3   0.262821 0.986670 0.610677 -0.350864
C62   C     C_3   0.192429 0.940851 0.691645 -0.887523
C63   C     C_3   0.396194 0.952584 0.338360 -0.434932
C64   C     C_3   0.271878 0.992965 0.365392 -0.351021
C65   C     C_3   0.204244 0.028200 0.280795 -0.910142
C66   C     C_R   0.451714 0.087709 0.566063 0.122524
C67   C     C_R   0.457172 0.906534 0.419450 0.117903
C68   C     C_R   0.443698 0.180099 0.565476 -0.272552
H1    H     H_    0.254688 0.742684 0.142548 0.139808
H2    H     H_    0.774892 0.144859 0.596820 0.139001
H3    H     H_    0.151029 0.491017 0.271808 0.118820
H4    H     H_    0.844085 0.444524 0.737392 0.121497
H5    H     H_    0.237989 0.577187 0.138049 0.141390
H6    H     H_    0.727547 0.323895 0.823079 0.134258
H7    H     H_    0.883753 0.590042 0.385527 0.143641
H8    H     H_    0.110609 0.408972 0.611279 0.143230
H9    H     H_    0.384072 0.210560 0.615142 0.152541
H10   H     H_    0.389371 0.775761 0.377758 0.160704
H11   H     H_    0.639224 0.234700 0.384043 0.142940
H12   H     H_    0.691294 0.174611 0.752204 0.129702
H13   H     H_    0.642013 0.782831 0.608050 0.157710
H14   H     H_    0.304676 0.219924 0.132022 0.258842
H15   H     H_    0.459919 0.264358 0.098878 0.263995
H16   H     H_    0.442076 0.159495 0.159673 0.246439
H17   H     H_    0.517690 0.287593 0.261349 0.233140
H18   H     H_    0.376306 0.229217 0.300664 0.217502
H19   H     H_    0.327026 0.379219 0.321432 0.226002
H20   H     H_    0.254997 0.354810 0.215923 0.163577
H21   H     H_    0.803814 0.785360 0.723949 0.259451
H22   H     H_    0.850019 0.712101 0.816843 0.272330
H23   H     H_    0.651135 0.072111 0.380071 0.138743
H24   H     H_    0.922562 0.705524 0.704176 0.261176
H25   H     H_    0.766756 0.580038 0.731712 0.225104
H26   H     H_    0.725848 0.649454 0.635742 0.234849
H27   H     H_    0.537298 0.695300 0.713917 0.201208
H28   H     H_    0.619009 0.711671 0.811718 0.175874
H29   H     H_    0.723246 0.773990 0.128929 0.260973
H30   H     H_    0.563708 0.742317 0.094702 0.258393
H31   H     H_    0.595939 0.844637 0.155837 0.244436
H32   H     H_    0.498232 0.718889 0.255610 0.240983
H33   H     H_    0.643935 0.768684 0.297057 0.216185
H34   H     H_    0.653279 0.944786 0.603800 0.135508
H35   H     H_    0.673664 0.617710 0.320153 0.225167
H36   H     H_    0.753037 0.635978 0.215347 0.170688
H37   H     H_    0.220474 0.202177 0.732874 0.262019
H38   H     H_    0.175310 0.270690 0.829189 0.273964
H39   H     H_    0.093958 0.276983 0.720685 0.262506
H40   H     H_    0.239670 0.408518 0.739345 0.230933
H41   H     H_    0.286604 0.340858 0.643800 0.226939
H42   H     H_    0.480657 0.306457 0.717652 0.210404
H43   H     H_    0.403634 0.284203 0.817472 0.171944
H44   H     H_    0.910837 0.822628 0.560956 0.268386
H45   H     H_    0.351146 0.399544 0.070560 0.153559
H46   H     H_    0.007136 0.915202 0.512797 0.258786
H47   H     H_    0.845586 0.899281 0.479060 0.259786
H48   H     H_    0.986132 0.848883 0.355984 0.224309
H49   H     H_    0.890141 0.756564 0.402244 0.217370
H50   H     H_    0.066585 0.710174 0.501737 0.213317
H51   H     H_    0.164276 0.802026 0.462267 0.198529
H52   H     H_    0.066185 0.198372 0.346615 0.266881
H53   H     H_    0.131159 0.305823 0.384460 0.257649
H54   H     H_    0.209581 0.205015 0.413062 0.250718
H55   H     H_    0.093875 0.262702 0.547556 0.223955
H56   H     H_    0.565243 0.636564 0.933422 0.131805
H57   H     H_    0.035456 0.152872 0.515352 0.213159
H58   H     H_    0.850049 0.205449 0.446910 0.191602
H59   H     H_    0.909914 0.317835 0.435397 0.216594
H60   H     H_    0.251730 0.890879 0.725111 0.265016
H61   H     H_    0.166162 0.991206 0.743568 0.260103
H62   H     H_    0.105518 0.905578 0.666377 0.252518
H63   H     H_    0.201678 0.036217 0.578320 0.213705
H64   H     H_    0.283355 0.934832 0.559089 0.233043
H65   H     H_    0.448262 0.984574 0.673012 0.203041
H66   H     H_    0.363094 0.079126 0.701165 0.194548
H67   H     H_    0.648299 0.601871 0.068186 0.153217
H68   H     H_    0.258212 0.086569 0.250452 0.276902
H69   H     H_    0.191917 0.975488 0.227464 0.254997
H70   H     H_    0.109995 0.049306 0.301651 0.253438
H71   H     H_    0.209515 0.941415 0.399864 0.220117
H72   H     H_    0.289148 0.049077 0.414136 0.233870
H73   H     H_    0.461238 0.005269 0.308270 0.204445
H74   H     H_    0.379010 0.903473 0.281893 0.197323
H75   H     H_    0.437081 0.364920 0.937472 0.134857
H76   H     H_    0.181966 0.822133 0.279428 0.150773
N1    N     N_R   0.500000 0.499980 0.252470 -0.132917
N2    N     N_R   0.500000 0.500020 0.747530 -0.109933
O1    O     O_R   0.500010 0.369070 0.579480 -0.623951
O2    O     O_R   0.499990 0.630930 0.420520 -0.629599
O3    O     O_R   0.500010 0.369060 0.420520 -0.639226
O4    O     O_R   0.499990 0.630940 0.579480 -0.630355
O5    O     O_R   0.316760 0.500010 0.579480 -0.624967
O6    O     O_R   0.683240 0.499990 0.420520 -0.643740
O7    O     O_R   0.316760 0.500000 0.420520 -0.634212
O8    O     O_R   0.683240 0.500000 0.579480 -0.627079
Zn1   Zn    Zn3+2 0.500000 0.500010 0.606140 0.929210
Zn2   Zn    Zn3+2 0.500000 0.499990 0.393860 0.912866

loop_
_geom_bond_atom_site_label_1
_geom_bond_atom_site_label_2
_ccdc_geom_bond_type
C59   H53   S    
C66   C68   A    
C35   H6    S    
C34   C56   A    
C59   H52   S    
C23   C45   A    
C55   H44   S    
C27   C29   A    
C41   C42   S    
C62   H62   S    
C30   C45   S    
C3    C68   A    
C42   H14   S    
C18   N1    A    
C18   C47   S    
C32   H4    S    
C46   H21   S    
C28   C57   S    
C41   H18   S    
C14   N1    A    
C58   H55   S    
C17   C23   S    
C40   H19   S    
C35   C37   A    
O3    Zn2   S    
C11   C14   A    
C46   H24   S    
C50   H42   S    
C33   C36   A    
C1    O1    A    
C9    C66   A    
C44   H25   S    
C61   H64   S    
C16   C34   S    
C49   H30   S    
N1    Zn2   S    
N2    Zn1   S    
O6    Zn2   S    
C52   H39   S    
C51   H40   S    
C54   H48   S    
C43   H27   S    
C31   C33   A    
C1    O3    A    
O5    Zn1   S    
C4    C12   S    
O1    Zn1   S    
C9    C10   S    
C39   C45   A    
C65   H69   S    
C59   H54   S    
C31   H3    S    
C60   C66   S    
C51   H41   S    
C6    H13   S    
C62   H61   S    
C17   O8    A    
C44   C46   S    
C50   C51   S    
C38   H7    S    
C48   H32   S    
C37   H12   S    
C63   C67   S    
C19   N2    A    
C47   H35   S    
C51   C52   S    
C32   C35   A    
C12   O4    A    
C42   H16   S    
C21   H75   S    
C4    C6    A    
C2    C67   A    
C57   H58   S    
C5    C7    A    
C13   H56   S    
C53   H50   S    
C6    C8    A    
C58   C59   S    
C53   C54   S    
C14   C40   S    
C34   C39   A    
C13   C24   A    
C60   C61   S    
C1    C3    S    
C2    C4    A    
C43   C44   S    
C2    H10   S    
C49   H31   S    
C47   C48   S    
C7    H23   S    
C53   H51   S    
C43   H28   S    
C63   H73   S    
C39   H8    S    
O7    Zn2   S    
O8    Zn1   S    
C65   H70   S    
C33   H5    S    
C48   C49   S    
C29   C56   S    
C20   C22   A    
C52   H37   S    
O4    Zn1   S    
C13   C15   A    
C26   H2    S    
C22   C24   S    
C62   H60   S    
C25   H76   S    
C5    H11   S    
C21   C24   A    
C60   H66   S    
C36   H1    S    
C64   H72   S    
C68   H9    S    
C7    C9    A    
C54   C55   S    
C40   C41   S    
C47   H36   S    
C19   C21   A    
C42   H15   S    
C3    C5    A    
C57   H59   S    
C15   N2    A    
C27   C53   S    
C26   C37   A    
C46   H22   S    
C55   H46   S    
C25   C27   A    
C23   C38   A    
C41   H17   S    
C11   C22   A    
C26   C28   A    
C64   C65   S    
C40   H20   S    
C28   C30   A    
C15   C43   S    
C29   C31   A    
C10   C67   A    
C30   C32   A    
C19   C50   S    
C12   O2    A    
C57   C58   S    
C55   H47   S    
C48   H33   S    
C50   H43   S    
C63   H74   S    
C16   O5    A    
C18   C20   A    
C20   H67   S    
C61   C62   S    
C11   H45   S    
C65   H68   S    
C44   H26   S    
C61   H63   S    
C25   C36   A    
C52   H38   S    
C63   C64   S    
C17   O6    A    
C38   C56   A    
C58   H57   S    
C8    C10   A    
C54   H49   S    
C16   O7    A    
O2    Zn2   S    
C8    H34   S    
C60   H65   S    
C64   H71   S    
C49   H29   S    
