data_mof_unit_22381.cif
_audit_creation_date              2012-12-10T18:46:18-0500
_audit_creation_method            fapswitch 2.2
_symmetry_space_group_name_H-M    P1
_symmetry_Int_Tables_number       1
_space_group_crystal_system       triclinic
_cell_length_a                    9.885577
_cell_length_b                    10.769236
_cell_length_c                    13.254072
_cell_angle_alpha                 90.053929
_cell_angle_beta                  72.085543
_cell_angle_gamma                 90.486327
_cell_volume                      1342.56833386

loop_
_atom_site_label
_atom_site_type_symbol
_atom_type_description
_atom_site_fract_x
_atom_site_fract_y
_atom_site_fract_z
_atom_type_partial_charge
C1    C     C_R   0.501295 0.739300 0.497625 0.880211
C2    C     C_R   0.429931 0.426292 0.980626 0.026351
C3    C     C_R   0.471651 0.416456 0.869384 -0.141184
C4    C     C_R   0.536987 0.426388 0.031058 -0.052828
C5    C     C_R   0.671767 0.376794 0.977534 -0.080994
C6    C     C_R   0.701279 0.338518 0.873013 -0.264651
C7    C     C_R   0.605339 0.362230 0.818056 0.597644
C8    C     C_R   0.516196 0.481231 0.130343 0.577285
C9    C     C_R   0.747883 0.410114 0.132085 0.570084
C10   C     C_R   0.373571 0.451075 0.815798 -0.147791
C11   C     C_R   0.586588 0.933586 0.544431 -0.266726
C12   C     C_R   0.422534 0.485615 0.702350 0.921552
C13   C     C_R   0.587640 0.060937 0.545818 0.164784
C14   C     C_R   0.499836 0.125921 0.497977 -0.106490
C15   C     C_R   0.413870 0.060648 0.447667 0.158652
C16   C     C_R   0.418451 0.932472 0.444942 -0.238176
C17   C     C_R   0.502913 0.870563 0.494677 -0.056745
C18   C     C_R   0.958279 0.433456 0.426683 0.494120
C19   C     C_R   0.101881 0.434516 0.426467 0.464812
C20   C     C_R   0.042720 0.564386 0.574939 0.501571
C21   C     C_R   0.898314 0.565942 0.574979 0.040289
C22   C     C_R   0.499615 0.259559 0.499661 0.898113
C23   C     C_R   0.577059 0.496838 0.296541 0.943899
C24   C     C_R   0.774789 0.366165 0.029257 -0.301478
C25   C     C_R   0.618467 0.468572 0.183193 -0.335595
C26   C     C_R   0.226579 0.453951 0.873454 0.185139
C27   C     C_R   0.183741 0.441388 0.983131 -0.312166
C28   C     C_R   0.282813 0.424454 0.037185 0.281521
H1    H     H_    0.354567 0.881374 0.405246 0.169958
H2    H     H_    0.800144 0.293025 0.832590 0.165186
H3    H     H_    0.875300 0.322223 0.990854 0.171994
H4    H     H_    0.071622 0.435945 0.026154 0.196746
H5    H     H_    0.649794 0.883883 0.583910 0.167480
N1    N     N_R   0.142790 0.500030 0.500030 -0.205007
N2    N     N_R   0.857180 0.499940 0.500010 -0.174665
O1    O     O_R   0.385370 0.683250 0.500010 -0.586930
O2    O     O_R   0.614700 0.683220 0.500010 -0.619251
O3    O     O_R   0.328400 0.499990 0.653620 -0.552760
O4    O     O_R   0.557730 0.499960 0.653620 -0.563363
O5    O     O_R   0.385300 0.316780 0.499990 -0.601488
O6    O     O_R   0.614630 0.316750 0.499990 -0.527840
O7    O     O_R   0.442270 0.500040 0.346380 -0.515744
O8    O     O_R   0.671600 0.500010 0.346380 -0.537023
Zn1   Zn    Zn3+2 0.346870 0.500020 0.500000 1.074948
Zn2   Zn    Zn3+2 0.653130 0.499980 0.500000 1.074363
F1    F     F_    0.846952 0.392317 0.181902 -0.621480
N3    N     N_2   0.671285 0.121973 0.600886 -0.224534
H6    H     H_    0.652925 0.087922 0.676751 0.244509
C29   C     C_3   0.821419 0.126320 0.543745 -0.661955
H7    H     H_    0.867547 0.031987 0.538678 0.191076
H8    H     H_    0.876105 0.188376 0.586052 0.233177
H9    H     H_    0.839523 0.163060 0.462411 0.285936
N4    N     N_2   0.323368 0.122250 0.399196 -0.243583
H10   H     H_    0.341004 0.095282 0.321537 0.226354
C30   C     C_3   0.174494 0.112903 0.460036 -0.692203
H11   H     H_    0.139630 0.014129 0.471646 0.210460
H12   H     H_    0.109362 0.159507 0.416929 0.261775
H13   H     H_    0.155214 0.158219 0.538509 0.239376
F2    F     F_    0.920427 0.363804 0.354673 -0.599437
F3    F     F_    0.200603 0.368824 0.353687 -0.618878
F4    F     F_    0.082714 0.625140 0.650772 -0.638587
N5    N     N_2   0.794019 0.628583 0.656947 -0.218597
H14   H     H_    0.763629 0.579016 0.726914 0.241574
C31   C     C_3   0.821629 0.758015 0.673493 -0.707489
H15   H     H_    0.895775 0.767569 0.721125 0.276694
H16   H     H_    0.720670 0.802593 0.719388 0.207402
H17   H     H_    0.866267 0.806924 0.596458 0.227632
F5    F     F_    0.400821 0.554020 0.172903 -0.639105
N6    N     N_2   0.120178 0.455555 0.821362 -0.228976
H18   H     H_    0.025411 0.494905 0.864995 0.240089
C32   C     C_3   0.099545 0.337432 0.775179 -0.711994
H19   H     H_    0.028633 0.350213 0.725448 0.220763
H20   H     H_    0.051886 0.268195 0.838292 0.201742
H21   H     H_    0.201762 0.299807 0.723730 0.240986
N7    N     N_2   0.232910 0.375544 0.141677 -0.198083
H22   H     H_    0.134567 0.408997 0.184502 0.321843
C33   C     C_3   0.237609 0.241093 0.144326 -0.626696
H23   H     H_    0.349339 0.208828 0.114752 0.211190
H24   H     H_    0.175633 0.200128 0.095082 0.215320
H25   H     H_    0.190139 0.206899 0.226503 0.277165
F6    F     F_    0.638795 0.317940 0.718497 -0.681270

loop_
_geom_bond_atom_site_label_1
_geom_bond_atom_site_label_2
_ccdc_geom_bond_type
C30   H11   S    
C4    C8    A    
C9    C25   A    
N3    C29   S    
C33   H23   S    
C26   C27   A    
C23   O7    A    
C15   N4    S    
C3    C7    A    
C5    C6    A    
C22   O6    A    
C15   C16   A    
C23   O8    A    
C18   C19   A    
C20   F4    S    
N6    C32   S    
N5    C31   S    
C16   C17   A    
C29   H8    S    
C18   N2    A    
C1    O2    A    
O4    Zn2   S    
C20   N1    A    
C10   C26   A    
C33   H24   S    
C9    F1    S    
C13   C14   A    
C8    C25   A    
O7    Zn1   S    
N4    C30   S    
C31   H17   S    
C11   H5    S    
N1    Zn1   S    
C32   H20   S    
C16   H1    S    
N4    H10   S    
C31   H16   S    
C2    C4    A    
N7    H22   S    
O3    Zn1   S    
N5    H14   S    
N7    C33   S    
N3    H6    S    
C29   H9    S    
C22   O5    A    
O8    Zn2   S    
C21   N5    S    
C10   C12   S    
C7    F6    S    
C8    F5    S    
C30   H12   S    
O1    Zn1   S    
O2    Zn2   S    
N2    Zn2   S    
C13   N3    S    
C33   H25   S    
C11   C17   A    
C6    H2    S    
C27   H4    S    
C4    C5    A    
C19   N1    A    
C32   H21   S    
C9    C24   A    
C6    C7    A    
C21   N2    A    
C19   F3    S    
C1    C17   S    
C31   H15   S    
C14   C22   S    
C12   O4    A    
C2    C3    A    
C24   H3    S    
C32   H19   S    
C3    C10   A    
C11   C13   A    
C5    C24   A    
C23   C25   S    
C12   O3    A    
N6    H18   S    
C18   F2    S    
O5    Zn1   S    
C20   C21   A    
C29   H7    S    
C30   H13   S    
C27   C28   A    
C26   N6    S    
O6    Zn2   S    
C14   C15   A    
C2    C28   A    
C28   N7    S    
C1    O1    A    
