data_mof_unit_8406.cif
_audit_creation_date              2013-03-05T16:12:48-0500
_audit_creation_method            fapswitch 2.2
_symmetry_space_group_name_H-M    P1
_symmetry_Int_Tables_number       1
_space_group_crystal_system       triclinic
_cell_length_a                    10.707125
_cell_length_b                    9.967832
_cell_length_c                    27.733716
_cell_angle_alpha                 89.946385
_cell_angle_beta                  92.439717
_cell_angle_gamma                 90.216342
_cell_volume                      2957.22643959

loop_
_atom_site_label
_atom_site_type_symbol
_atom_site_description
_atom_site_fract_x
_atom_site_fract_y
_atom_site_fract_z
_atom_type_partial_charge
O1    O     O_R   0.316770 0.614620 0.500000 -0.637537
O2    O     O_R   0.683230 0.385380 0.500000 -0.636235
O3    O     O_R   0.683230 0.614620 0.500000 -0.642310
O4    O     O_R   0.316770 0.385380 0.500000 -0.634607
C1    C     C_R   0.260288 0.499783 0.500297 0.871550
C2    C     C_R   0.739699 0.500150 0.500116 0.868210
O5    O     O_R   0.500030 0.614650 0.428760 -0.627809
O6    O     O_R   0.499970 0.385350 0.571240 -0.626809
O7    O     O_R   0.499970 0.614650 0.571240 -0.627566
O8    O     O_R   0.500030 0.385350 0.428760 -0.622748
C3    C     C_R   0.502065 0.499945 0.406147 0.884029
C4    C     C_R   0.499307 0.499916 0.593903 0.876462
Zn1   Zn    Zn3+2 0.500000 0.653120 0.500000 0.934942
Zn2   Zn    Zn3+2 0.500000 0.346880 0.500000 0.942236
C5    C     C_R   0.398046 0.525912 0.175428 0.511588
C6    C     C_R   0.618458 0.522428 0.824368 0.501725
O9    O     O_2   0.289952 0.512254 0.198335 -0.552385
O10   O     O_2   0.724761 0.500311 0.801173 -0.550809
N1    N     N_R   0.509418 0.527571 0.201338 -0.343615
N2    N     N_R   0.507342 0.533576 0.798708 -0.355965
C7    C     C_R   0.620770 0.541512 0.179542 0.537966
C8    C     C_R   0.397972 0.558308 0.820592 0.495746
C9    C     C_R   0.553012 0.400347 0.275999 0.109431
C10   C     C_R   0.467716 0.399428 0.725231 0.103514
C11   C     C_R   0.553182 0.392405 0.326688 -0.074740
C12   C     C_R   0.463767 0.390059 0.674717 -0.035787
C13   C     C_R   0.462498 0.616362 0.328742 -0.220340
C14   C     C_R   0.539418 0.620826 0.670324 -0.215645
C15   C     C_R   0.464506 0.624205 0.279007 -0.140763
C16   C     C_R   0.541434 0.630030 0.720101 -0.108852
C17   C     C_R   0.509033 0.516959 0.252636 0.311355
C18   C     C_R   0.505638 0.520550 0.747535 0.269146
C19   C     C_R   0.509595 0.548068 0.101682 -0.052294
C20   C     C_R   0.509683 0.552989 0.898330 -0.051756
C21   C     C_R   0.395918 0.537501 0.125157 -0.023258
C22   C     C_R   0.621940 0.532961 0.874689 -0.021202
C23   C     C_R   0.283027 0.536810 0.098100 -0.134534
C24   C     C_R   0.734432 0.521521 0.901646 -0.136330
C25   C     C_R   0.623104 0.550387 0.129259 -0.029666
C26   C     C_R   0.396730 0.566734 0.870875 -0.021420
C27   C     C_R   0.505848 0.501246 0.353240 -0.108531
C28   C     C_R   0.500607 0.501884 0.646926 -0.136855
H1    H     H_    0.426299 0.701070 0.347973 0.164646
H2    H     H_    0.568750 0.707634 0.650124 0.182063
H3    H     H_    0.431013 0.714005 0.260714 0.154473
H4    H     H_    0.570868 0.722717 0.737570 0.153204
H5    H     H_    0.194487 0.527356 0.115346 0.189309
H6    H     H_    0.821780 0.504973 0.884256 0.190157
C29   C     C_R   0.395160 0.569032 0.972643 0.045829
C30   C     C_R   0.625410 0.556970 0.027466 0.046252
C31   C     C_R   0.625312 0.549351 0.976483 0.046634
C32   C     C_R   0.394469 0.558494 0.023526 0.046921
C33   C     C_R   0.510144 0.557780 0.949342 0.071031
C34   C     C_R   0.509811 0.555088 0.050705 0.072991
C35   C     C_R   0.284355 0.589299 0.944015 -0.216082
C36   C     C_R   0.737425 0.565142 0.056252 -0.213156
C37   C     C_R   0.285385 0.588081 0.894044 -0.133987
C38   C     C_R   0.736023 0.561885 0.106222 -0.132752
O11   O     O_2   0.290922 0.573644 0.793672 -0.551830
O12   O     O_2   0.728607 0.546783 0.206542 -0.551088
C39   C     C_R   0.282020 0.547419 0.048239 -0.214471
C40   C     C_R   0.736416 0.529873 0.951587 -0.214999
H7    H     H_    0.197875 0.602303 0.873633 0.193012
H8    H     H_    0.824332 0.567072 0.126730 0.191971
H9    H     H_    0.195171 0.608628 0.959149 0.140874
H10   H     H_    0.828069 0.576510 0.041279 0.139124
H11   H     H_    0.191302 0.541855 0.029993 0.138506
H12   H     H_    0.826397 0.515777 0.969707 0.139526
C41   C     C_R   0.062353 0.379863 0.492018 -0.178245
C42   C     C_R   0.937561 0.619290 0.510085 -0.178406
C43   C     C_R   0.934481 0.380299 0.491483 -0.183199
C44   C     C_R   0.065517 0.618900 0.510551 -0.182475
H13   H     H_    0.109222 0.286460 0.485026 0.150718
H14   H     H_    0.890275 0.712267 0.517445 0.148214
H15   H     H_    0.884785 0.287406 0.483718 0.158252
H16   H     H_    0.115235 0.711571 0.518557 0.154148
C45   C     C_R   0.872341 0.500092 0.500443 -0.014277
C46   C     C_R   0.127655 0.499416 0.501046 -0.017109
C47   C     C_R   0.580695 0.071391 0.530099 0.139619
C48   C     C_R   0.417394 0.928855 0.470773 0.139890
C49   C     C_R   0.421267 0.070593 0.469201 0.146863
C50   C     C_R   0.582173 0.929328 0.529625 0.154647
N3    N     N_R   0.500000 0.857200 0.500000 -0.148474
N4    N     N_R   0.500000 0.142800 0.500000 -0.142281
N5    N     N_3   0.668283 0.137134 0.562606 -0.442938
H17   H     H_    0.621828 0.196865 0.586676 0.230798
H18   H     H_    0.732342 0.191760 0.543337 0.209781
N6    N     N_3   0.321858 0.863658 0.441750 -0.437381
H19   H     H_    0.257141 0.820881 0.464197 0.206374
H20   H     H_    0.360690 0.791627 0.420071 0.220494
N7    N     N_3   0.342171 0.135126 0.433489 -0.437293
H21   H     H_    0.283490 0.202453 0.449646 0.212502
H22   H     H_    0.396948 0.182904 0.408509 0.223411
N8    N     N_3   0.672040 0.864973 0.561631 -0.440714
H23   H     H_    0.659664 0.762514 0.562515 0.246244
H24   H     H_    0.760495 0.882860 0.548392 0.170544
C51   C     C_1   0.417566 0.267120 0.652507 0.243406
N9    N     N_1   0.380454 0.168755 0.634863 -0.188041
C52   C     C_1   0.606493 0.275194 0.350484 0.171994
N10   N     N_1   0.649329 0.181500 0.369413 -0.198362
N11   N     N_3   0.433795 0.285545 0.753640 -0.450060
H25   H     H_    0.357152 0.311207 0.773769 0.218618
H26   H     H_    0.508803 0.262848 0.777592 0.197129
N12   N     N_3   0.596668 0.291183 0.247592 -0.436250
H27   H     H_    0.689998 0.272424 0.257956 0.216915
H28   H     H_    0.543843 0.205812 0.255072 0.189254

loop_
_geom_bond_atom_site_label_1
_geom_bond_atom_site_label_2
_geom_bond_distance
_ccdc_geom_bond_type
C16   C18   1.391690 A    
N11   H25   1.044693 S    
C50   N8    1.433922 S    
C13   C15   1.382573 A    
C43   C45   1.396739 A    
Zn2   N4    2.034235 S    
C44   H16   1.082851 S    
O3    C2    1.293265 A    
N1    C17   1.426700 S    
N12   H28   1.045515 S    
C51   N9    1.157620 T    
N5    H17   1.038635 S    
C5    N1    1.365847 A    
C30   C34   1.419660 A    
O1    C1    1.292773 A    
N1    C7    1.366074 A    
C10   C12   1.402945 A    
C32   C39   1.414469 A    
C47   N4    1.375534 A    
C29   C33   1.419449 A    
O7    Zn1   2.012276 S    
C10   N11   1.435573 S    
C14   C28   1.405055 A    
C41   C43   1.368610 A    
C39   H11   1.077227 S    
C4    C28   1.470138 S    
C11   C52   1.448411 S    
C9    N12   1.435260 S    
C42   H14   1.081481 S    
C44   C46   1.397176 A    
C41   H13   1.080935 S    
C23   H5    1.083617 S    
C24   H6    1.083605 S    
O3    Zn1   2.000470 S    
O6    C4    1.304222 A    
N11   H26   1.045531 S    
C42   C45   1.396168 A    
C41   C46   1.396800 A    
O2    C2    1.291876 A    
C31   C40   1.414745 A    
C48   N3    1.375549 A    
C5    C21   1.398097 A    
N12   H27   1.045488 S    
C35   H9    1.077398 S    
C32   C34   1.419698 A    
C37   H7    1.083572 S    
N5    H18   1.039401 S    
C38   H8    1.083572 S    
C7    O12   1.350044 S    
O8    Zn2   2.012282 S    
C11   C27   1.419002 A    
C8    O11   1.350113 S    
O4    C1    1.293001 A    
C2    C45   1.419860 S    
C29   C35   1.414228 A    
C25   C38   1.395593 A    
C14   H2    1.083152 S    
C30   C36   1.414338 A    
C15   H3    1.083195 S    
C31   C33   1.419819 A    
C9    C17   1.403355 A    
O5    C3    1.305268 A    
C10   C18   1.407635 A    
N7    H22   1.040492 S    
C13   C27   1.403354 A    
C52   N10   1.157593 T    
C7    C25   1.398536 A    
C6    N2    1.364938 A    
C29   C32   1.415293 A    
C8    C26   1.397780 A    
C30   C31   1.415999 A    
C19   C25   1.408272 A    
N8    H24   1.044896 S    
C6    O10   1.349970 S    
N6    H20   1.036443 S    
C35   C37   1.386476 A    
C20   C26   1.408490 A    
O1    Zn1   1.997625 S    
C47   N5    1.430457 S    
C49   N4    1.376066 A    
C12   C28   1.418833 A    
N2    C18   1.424603 S    
C19   C34   1.415552 A    
C5    O9    1.350143 S    
O6    Zn2   2.012981 S    
C26   C37   1.395299 A    
C21   C23   1.395315 A    
C16   H4    1.083172 S    
N2    C8    1.365070 A    
C48   C49   1.413959 A    
C47   C50   1.416293 A    
C23   C39   1.386340 A    
Zn1   N3    2.034235 S    
C40   H12   1.077114 S    
C22   C24   1.395299 A    
C15   C17   1.392816 A    
C6    C22   1.398539 A    
C43   H15   1.083412 S    
C36   H10   1.077315 S    
C14   C16   1.382864 A    
C19   C21   1.408120 A    
C36   C38   1.386901 A    
C3    C27   1.469650 S    
C20   C22   1.408388 A    
C9    C11   1.407880 A    
O4    Zn2   2.000470 S    
N8    H23   1.029768 S    
O2    Zn2   1.997625 S    
O7    C4    1.304609 A    
O8    C3    1.303139 A    
C12   C51   1.448005 S    
C49   N7    1.429491 S    
C13   H1    1.080975 S    
O5    Zn1   2.012987 S    
N6    H19   1.040912 S    
C20   C33   1.415404 A    
C48   N6    1.429127 S    
C50   N3    1.378712 A    
C42   C44   1.369576 A    
C1    C46   1.421145 S    
N7    H21   1.036174 S    
C24   C40   1.386891 A    
