data_mof_unit_12152.cif
_audit_creation_date              2012-12-10T17:21:42-0500
_audit_creation_method            fapswitch 2.2
_symmetry_space_group_name_H-M    P1
_symmetry_Int_Tables_number       1
_space_group_crystal_system       triclinic
_cell_length_a                    10.811741
_cell_length_b                    10.930934
_cell_length_c                    9.624725
_cell_angle_alpha                 88.574152
_cell_angle_beta                  88.161
_cell_angle_gamma                 92.225862
_cell_volume                      1135.64084167

loop_
_atom_site_label
_atom_site_type_symbol
_atom_type_description
_atom_site_fract_x
_atom_site_fract_y
_atom_site_fract_z
_atom_type_partial_charge
C1    C     C_R   0.504382 0.262550 0.502880 0.821983
C2    C     C_3   0.877767 0.493144 0.497480 0.003522
C3    C     C_3   0.934502 0.627136 0.500802 -0.205396
C4    C     C_3   0.932990 0.418634 0.372012 -0.026215
C5    C     C_R   0.488131 0.108713 0.771603 -0.169074
C6    C     C_R   0.431732 0.046710 0.886016 -0.129650
C7    C     C_R   0.379421 0.930470 0.870901 -0.099209
C8    C     C_R   0.397329 0.870597 0.746929 -0.107350
C9    C     C_R   0.455603 0.931413 0.628634 0.096744
C10   C     C_R   0.485518 0.058144 0.636960 0.095147
C11   C     C_R   0.506831 0.128264 0.510677 -0.125327
C12   C     C_R   0.260151 0.497266 0.501635 0.794065
C13   C     C_R   0.512965 0.069084 0.384174 -0.191120
C14   C     C_R   0.500170 0.943318 0.378186 -0.025088
C15   C     C_R   0.478851 0.871469 0.501009 -0.144834
C16   C     C_R   0.666229 0.658831 0.132498 -0.067353
C17   C     C_R   0.745880 0.739593 0.055349 -0.159756
C18   C     C_R   0.745223 0.741354 0.912282 -0.034931
C19   C     C_R   0.664590 0.662202 0.845674 -0.156204
C20   C     C_R   0.581294 0.579104 0.919997 0.181889
C21   C     C_R   0.581785 0.578169 0.069153 0.091468
C22   C     C_R   0.422654 0.424495 0.078584 0.675839
C23   C     C_R   0.490785 0.737104 0.499459 0.790594
C24   C     C_R   0.422807 0.424662 0.930877 -0.180218
C25   C     C_R   0.739460 0.495127 0.498825 0.759862
C26   C     C_3   0.064344 0.448427 0.645275 -0.383510
C27   C     C_3   0.922112 0.429991 0.634993 -0.412938
C28   C     C_3   0.074470 0.625743 0.464549 -0.198022
C29   C     C_3   0.074429 0.404964 0.391890 -0.420660
C30   C     C_3   0.122172 0.495699 0.502720 0.030462
Cu1   Cu    Cu3+1 0.499990 0.499990 0.640660 0.929562
Cu2   Cu    Cu3+1 0.500010 0.500010 0.359340 1.002615
H1    H     H_    0.085706 0.515797 0.726830 0.195748
H2    H     H_    0.090977 0.643004 0.350775 0.153243
H3    H     H_    0.526494 0.121551 0.287242 0.181532
H4    H     H_    0.535126 0.194127 0.793761 0.176572
H5    H     H_    0.427641 0.089567 0.986223 0.163557
H6    H     H_    0.328281 0.884423 0.956747 0.160790
H7    H     H_    0.356770 0.779067 0.744286 0.177873
H8    H     H_    0.104327 0.360141 0.677226 0.183051
H9    H     H_    0.670719 0.665457 0.241554 0.212963
H10   H     H_    0.808111 0.802043 0.106753 0.180744
H11   H     H_    0.671307 0.670612 0.735888 0.201152
H12   H     H_    0.359541 0.362802 0.879632 0.165577
H13   H     H_    0.895874 0.330558 0.638076 0.192168
H14   H     H_    0.878112 0.469043 0.729255 0.201067
H15   H     H_    0.921709 0.658096 0.609789 0.156983
H16   H     H_    0.126491 0.419824 0.290714 0.220098
H17   H     H_    0.095010 0.309968 0.426510 0.184465
N1    N     N_R   0.501200 0.501210 0.147910 -0.248961
N2    N     N_R   0.501250 0.501290 0.852040 -0.231244
O1    O     O_R   0.499990 0.319640 0.618810 -0.604501
O2    O     O_R   0.500000 0.319660 0.381240 -0.531760
O3    O     O_R   0.317680 0.499970 0.618790 -0.590087
O4    O     O_R   0.317700 0.499990 0.381210 -0.543058
O5    O     O_R   0.500000 0.680340 0.618760 -0.612269
O6    O     O_R   0.500010 0.680360 0.381190 -0.592618
O7    O     O_R   0.682300 0.500010 0.618790 -0.607783
O8    O     O_R   0.682320 0.500030 0.381210 -0.603329
C31   C     C_1   0.916601 0.479765 0.235644 0.253569
N3    N     N_1   0.906691 0.525909 0.127372 -0.298628
C32   C     C_1   0.873934 0.722461 0.419884 0.220442
N4    N     N_1   0.827580 0.801512 0.362096 -0.301389
C33   C     C_1   0.499180 0.893669 0.241495 0.279212
N5    N     N_1   0.497030 0.855071 0.131125 -0.310725
F1    F     F_    0.343346 0.346183 0.151552 -0.676230
C34   C     C_1   0.827415 0.825559 0.832785 0.224213
N6    N     N_1   0.893290 0.893089 0.768844 -0.254869
C35   C     C_1   0.136663 0.728757 0.533001 0.222960
N7    N     N_1   0.181111 0.812991 0.584793 -0.287206
C36   C     C_1   0.871642 0.295545 0.365604 0.219818
N8    N     N_1   0.823601 0.199318 0.360742 -0.270043

loop_
_geom_bond_atom_site_label_1
_geom_bond_atom_site_label_2
_ccdc_geom_bond_type
C4    C29   S    
C2    C4    S    
C26   H8    S    
C13   H3    S    
C16   C21   A    
C8    H7    S    
C16   C17   A    
Cu1   O5    S    
C20   N2    A    
C9    C10   A    
C6    C7    A    
Cu2   O4    S    
C19   C20   A    
C1    C11   S    
Cu1   O1    S    
C22   N1    A    
C2    C27   S    
C14   C33   S    
C33   N5    T    
C4    C31   S    
C24   N2    A    
C15   C23   S    
C17   C18   A    
C9    C15   A    
C6    H5    S    
C28   H2    S    
C23   O5    A    
C29   H17   S    
C13   C14   A    
C25   O7    A    
C11   C13   A    
Cu2   N1    S    
C26   C27   S    
C29   C30   S    
Cu2   O6    S    
C31   N3    T    
C5    C6    A    
Cu1   O7    S    
C28   C30   S    
C21   N1    A    
C7    H6    S    
C19   H11   S    
C26   C30   S    
C2    C25   S    
C2    C3    S    
Cu1   O3    S    
C35   N7    T    
C24   H12   S    
C1    O1    A    
C22   C24   A    
C12   O4    A    
C3    C28   S    
C27   H13   S    
C29   H16   S    
C5    C10   A    
C34   N6    T    
C5    H4    S    
Cu2   O2    S    
C7    C8    A    
C36   N8    T    
C20   C21   A    
C27   H14   S    
Cu1   Cu2   S    
C18   C19   A    
C10   C11   A    
C3    C32   S    
C3    H15   S    
C23   O6    A    
C1    O2    A    
C14   C15   A    
C22   F1    S    
C25   O8    A    
Cu2   O8    S    
C12   C30   S    
C18   C34   S    
C17   H10   S    
C16   H9    S    
C4    C36   S    
C12   O3    A    
C32   N4    T    
C28   C35   S    
C26   H1    S    
Cu1   N2    S    
C8    C9    A    
