data_mof_unit_19965.cif
_audit_creation_date              2012-12-11T15:28:50-0500
_audit_creation_method            fapswitch 2.2
_symmetry_space_group_name_H-M    P1
_symmetry_Int_Tables_number       1
_space_group_crystal_system       triclinic
_cell_length_a                    29.655259
_cell_length_b                    17.343734
_cell_length_c                    19.630916
_cell_angle_alpha                 90.204512
_cell_angle_beta                  140.096787
_cell_angle_gamma                 89.830945
_cell_volume                      6476.99833514

loop_
_atom_site_label
_atom_site_type_symbol
_atom_type_description
_atom_site_fract_x
_atom_site_fract_y
_atom_site_fract_z
_atom_type_partial_charge
C1    C     C_R   0.185779 0.404284 0.803951 -0.129970
C2    C     C_R   0.797765 0.743773 0.414040 -0.050935
C3    C     C_R   0.810312 0.783646 0.101762 -0.117368
C4    C     C_R   0.307312 0.712349 0.102223 -0.126161
C5    C     C_R   0.687432 0.279753 0.902040 -0.121101
C6    C     C_R   0.665646 0.746194 0.919746 -0.158101
C7    C     C_R   0.320612 0.273692 0.093353 -0.143712
C8    C     C_R   0.798468 0.301841 0.082583 0.140101
C9    C     C_R   0.196044 0.691240 0.920084 0.131386
C10   C     C_R   0.212687 0.288983 0.907818 0.133864
C11   C     C_R   0.777759 0.726070 0.103856 0.130013
C12   C     C_R   0.277949 0.775519 0.103394 0.135375
C13   C     C_R   0.845497 0.308549 0.545804 -0.034380
C14   C     C_R   0.719336 0.222508 0.898695 0.132113
C15   C     C_R   0.700891 0.800401 0.917333 0.139645
C16   C     C_R   0.288184 0.215259 0.094609 0.130085
C17   C     C_2   0.295824 0.349213 0.682476 0.954092
C18   C     C_2   0.688678 0.654548 0.278430 0.946262
C19   C     C_2   0.738833 0.397833 0.419054 0.952039
C20   C     C_2   0.224145 0.560209 0.494429 0.923917
C21   C     C_2   0.751151 0.908340 0.561086 0.963142
C22   C     C_2   0.236666 0.099184 0.426622 0.987864
C23   C     C_2   0.226302 0.866649 0.378819 1.051653
C24   C     C_R   0.132396 0.666691 0.405585 -0.048407
C25   C     C_2   0.806860 0.150098 0.701214 0.917355
C26   C     C_2   0.112538 0.138461 0.502755 0.964316
C27   C     C_2   0.897393 0.847201 0.543122 0.973935
C28   C     C_2   0.943893 0.206286 0.675277 0.996290
C29   C     C_2   0.030077 0.764475 0.277685 0.963538
C30   C     C_2   0.557409 0.702660 0.328752 0.995054
C31   C     C_2   0.468380 0.249037 0.726823 0.967951
C32   C     C_2   0.384844 0.644344 0.503531 0.967415
C33   C     C_2   0.595907 0.340303 0.439080 0.972264
C34   C     C_R   0.652874 0.808507 0.450003 -0.036367
C35   C     C_R   0.356865 0.167363 0.577974 -0.029410
C36   C     C_R   0.298745 0.757945 0.416729 -0.031126
C37   C     C_R   0.699212 0.242171 0.576717 -0.052658
C38   C     C_R   0.786955 0.857994 0.472470 -0.168294
C39   C     C_R   0.213716 0.129976 0.542863 -0.208096
C40   C     C_R   0.125502 0.761491 0.306408 -0.221135
C41   C     C_R   0.811505 0.599834 0.199810 -0.106794
C42   C     C_R   0.872890 0.249855 0.686995 -0.162677
C43   C     C_R   0.374926 0.242967 0.701785 -0.213435
C44   C     C_R   0.627864 0.742020 0.314380 -0.165574
C45   C     C_R   0.708310 0.357324 0.517437 -0.169508
C46   C     C_R   0.276194 0.633952 0.442210 -0.178295
C47   C     C_R   0.825013 0.816359 0.469053 -0.051088
C48   C     C_R   0.178249 0.173123 0.550919 -0.061003
C49   C     C_R   0.096837 0.729060 0.331873 -0.032883
C50   C     C_R   0.888595 0.259439 0.636881 -0.055854
C51   C     C_R   0.399458 0.217338 0.667489 -0.034541
C52   C     C_R   0.819163 0.410958 0.189687 -0.112103
C53   C     C_R   0.612040 0.754673 0.364204 -0.059328
C54   C     C_R   0.670305 0.313901 0.519422 -0.053377
C55   C     C_R   0.317557 0.679422 0.448271 -0.041850
C56   C     C_R   0.725666 0.725520 0.346755 -0.084724
C57   C     C_R   0.272790 0.267852 0.655462 -0.102926
C58   C     C_R   0.187412 0.629845 0.430747 -0.076187
C59   C     C_R   0.786563 0.345079 0.510656 -0.087736
C60   C     C_R   0.293080 0.137282 0.534260 -0.143756
C61   C     C_R   0.709499 0.846583 0.481018 -0.092739
C62   C     C_R   0.771590 0.225080 0.644122 -0.077357
C63   C     C_R   0.177919 0.586376 0.810770 -0.101465
C64   C     C_R   0.233144 0.784901 0.367634 -0.167195
C65   C     C_R   0.692802 0.765864 0.362541 0.074352
C66   C     C_R   0.309257 0.220450 0.651041 0.083261
C67   C     C_R   0.215741 0.664210 0.404673 0.099822
C68   C     C_R   0.768589 0.326658 0.556661 0.063618
C69   C     C_R   0.273863 0.159078 0.579424 0.098782
C70   C     C_R   0.728879 0.824853 0.437368 0.063759
C71   C     C_R   0.806020 0.270136 0.634305 0.074212
C72   C     C_R   0.189329 0.735248 0.353562 0.073008
C73   C     C_R   0.833469 0.605764 0.415441 -0.034031
C74   C     C_R   0.681926 0.909110 0.809891 -0.109204
C75   C     C_R   0.167998 0.386545 0.598725 -0.102323
C76   C     C_R   0.146063 0.583550 0.531156 -0.083773
C77   C     C_R   0.839952 0.396322 0.433922 -0.078973
C78   C     C_R   0.354166 0.080647 0.468950 -0.067638
C79   C     C_R   0.659294 0.896734 0.563840 -0.085858
C80   C     C_R   0.666415 0.106289 0.584938 -0.066967
C81   C     C_R   0.332372 0.889495 0.406759 -0.191597
C82   C     C_R   0.930330 0.317483 0.541273 -0.098787
C83   C     C_R   0.062908 0.672439 0.441648 -0.060059
C84   C     C_R   0.080895 0.305836 0.491740 -0.078921
C85   C     C_R   0.314767 0.095889 0.194965 -0.102800
C86   C     C_R   0.914491 0.694400 0.497479 -0.057699
C87   C     C_R   0.419765 0.807419 0.511738 -0.065280
C88   C     C_R   0.584263 0.193849 0.499136 -0.034232
C89   C     C_R   0.567800 0.819054 0.454511 -0.086756
C90   C     C_R   0.432574 0.174746 0.551830 -0.057313
C91   C     C_R   0.094572 0.681185 0.722171 -0.115105
C92   C     C_R   0.901269 0.314363 0.278618 -0.115377
C93   C     C_R   0.892979 0.695178 0.290085 -0.103781
C94   C     C_R   0.104589 0.308539 0.715040 -0.125266
C95   C     C_R   0.605919 0.194028 0.711857 -0.095620
C96   C     C_R   0.312455 0.902517 0.198234 -0.118222
C97   C     C_R   0.393123 0.806139 0.288760 -0.125856
C98   C     C_R   0.397007 0.191459 0.285362 -0.100355
C99   C     C_R   0.599907 0.812740 0.719824 -0.118166
C100  C     C_R   0.170827 0.331132 0.811742 0.062462
C101  C     C_R   0.824198 0.676358 0.195567 0.066957
C102  C     C_R   0.838020 0.341264 0.179477 0.055845
C103  C     C_R   0.156847 0.653242 0.821764 0.047744
C104  C     C_R   0.663485 0.838697 0.819694 0.054163
C105  C     C_R   0.330432 0.169824 0.188297 0.048054
C106  C     C_R   0.325115 0.826345 0.193671 0.056261
C107  C     C_R   0.687720 0.098593 0.801801 -0.109610
C108  C     C_R   0.673992 0.174034 0.806995 0.062612
C109  C     C_R   0.846472 0.683682 0.442144 0.047876
C110  C     C_R   0.152400 0.310643 0.562109 0.081015
C111  C     C_R   0.114607 0.642552 0.457058 0.057965
C112  C     C_R   0.866790 0.332732 0.500355 0.069221
C113  C     C_R   0.379468 0.144189 0.533369 0.077271
C114  C     C_R   0.630959 0.834467 0.494467 0.070084
C115  C     C_R   0.651890 0.182898 0.553153 0.055960
C116  C     C_R   0.349208 0.815203 0.446322 0.074688
C117  C     C_R   0.791638 0.206229 0.986776 -0.149333
C118  C     C_R   0.202524 0.248665 0.594910 -0.031936
C119  C     C_R   0.206321 0.794120 0.013908 -0.156793
C120  C     C_R   0.217553 0.195481 0.003206 -0.144302
C121  C     C_R   0.771984 0.820401 0.008700 -0.154324
C122  C     C_R   0.266750 0.670725 0.011310 -0.151196
C123  C     C_R   0.726993 0.319295 0.993840 -0.162342
C124  C     C_R   0.704502 0.708728 0.013213 -0.141206
C125  C     C_R   0.282862 0.310379 0.000071 -0.154662
C126  C     C_R   0.831601 0.246484 0.079075 -0.153285
C127  C     C_R   0.164991 0.751358 0.922129 -0.145888
C128  C     C_R   0.180005 0.232105 0.909941 -0.129686
H1    H     H_    0.235960 0.433045 0.861527 0.098764
H2    H     H_    0.218011 0.407384 0.674916 0.108855
H3    H     H_    0.192532 0.550978 0.575354 0.112923
H4    H     H_    0.785555 0.409695 0.361282 0.105817
H5    H     H_    0.314499 0.039409 0.436169 0.093000
H6    H     H_    0.713782 0.912526 0.633162 0.108297
H7    H     H_    0.715809 0.078931 0.649817 0.098313
H8    H     H_    0.280535 0.910750 0.334416 0.130799
H9    H     H_    0.966453 0.270807 0.590578 0.123170
H10   H     H_    0.032839 0.724547 0.402143 0.112500
H11   H     H_    0.047886 0.255770 0.453968 0.108127
H12   H     H_    0.760916 0.571526 0.143509 0.097152
H13   H     H_    0.936120 0.748115 0.504896 0.096931
H14   H     H_    0.452365 0.756975 0.549633 0.109798
H15   H     H_    0.561705 0.247989 0.488944 0.086646
H16   H     H_    0.529969 0.774185 0.401982 0.119190
H17   H     H_    0.460425 0.228471 0.589560 0.109002
H18   H     H_    0.066182 0.733625 0.701548 0.135994
H19   H     H_    0.926760 0.259310 0.299010 0.103606
H20   H     H_    0.917387 0.751671 0.318692 0.092555
H21   H     H_    0.080686 0.252169 0.690541 0.118809
H22   H     H_    0.581354 0.250358 0.684707 0.091884
H23   H     H_    0.770546 0.442571 0.128028 0.093553
H24   H     H_    0.416488 0.749317 0.317243 0.119628
H25   H     H_    0.422830 0.246865 0.311361 0.113728
H26   H     H_    0.574608 0.757408 0.697880 0.104515
H27   H     H_    0.816924 0.161559 0.985849 0.135948
H28   H     H_    0.182676 0.842943 0.012944 0.127283
H29   H     H_    0.191109 0.151469 0.002447 0.122857
H30   H     H_    0.800182 0.862016 0.009060 0.117835
H31   H     H_    0.293087 0.625921 0.012816 0.118540
H32   H     H_    0.700058 0.360943 0.995039 0.118141
H33   H     H_    0.678001 0.664734 0.012978 0.139254
H34   H     H_    0.226454 0.555177 0.872343 0.092976
H35   H     H_    0.309215 0.354712 0.001106 0.129904
H36   H     H_    0.887504 0.233089 0.146980 0.136342
H37   H     H_    0.109925 0.767659 0.852933 0.154101
H38   H     H_    0.125066 0.216449 0.840405 0.128509
H39   H     H_    0.867295 0.797248 0.169570 0.133194
H40   H     H_    0.362952 0.697684 0.168556 0.118462
H41   H     H_    0.630849 0.291553 0.836280 0.129501
H42   H     H_    0.609259 0.731628 0.850606 0.136403
H43   H     H_    0.375649 0.289940 0.162397 0.148883
H44   H     H_    0.406390 0.284646 0.766079 0.176000
H45   H     H_    0.730942 0.940238 0.872106 0.093579
H46   H     H_    0.593032 0.704610 0.245342 0.181249
H47   H     H_    0.683962 0.408867 0.468432 0.170475
H48   H     H_    0.296170 0.576512 0.476662 0.163191
H49   H     H_    0.809808 0.911046 0.518362 0.171279
H50   H     H_    0.191040 0.074857 0.503486 0.206620
H51   H     H_    0.099447 0.810744 0.253458 0.189747
H52   H     H_    0.907411 0.213949 0.757423 0.174474
H53   H     H_    0.253552 0.451365 0.611198 0.307626
H54   H     H_    0.652347 0.590939 0.155859 0.325224
H55   H     H_    0.733586 0.498163 0.367720 0.340651
H56   H     H_    0.264994 0.066060 0.135604 0.093860
H57   H     H_    0.322728 0.523348 0.639792 0.356290
H58   H     H_    0.742926 0.010490 0.594007 0.331416
H59   H     H_    0.178636 0.098936 0.272341 0.344162
H60   H     H_    0.299444 0.942745 0.492556 0.315046
H61   H     H_    0.850973 0.078182 0.821719 0.330972
H62   H     H_    0.014057 0.097122 0.366813 0.323663
H63   H     H_    0.956891 0.939848 0.585648 0.339658
H64   H     H_    0.038889 0.157339 0.803476 0.318890
H65   H     H_    0.976994 0.863492 0.236330 0.318872
H66   H     H_    0.459170 0.658603 0.204204 0.320321
H67   H     H_    0.262657 0.932438 0.141242 0.093989
H68   H     H_    0.528826 0.344360 0.786413 0.317462
H69   H     H_    0.482666 0.608227 0.644619 0.322346
H70   H     H_    0.529790 0.429372 0.383701 0.334298
H71   H     H_    0.738439 0.070384 0.858871 0.097814
H72   H     H_    0.784877 0.575130 0.355868 0.095833
N1    N     N_R   0.127770 0.430660 0.707120 -0.043758
N2    N     N_R   0.110270 0.426120 0.547030 -0.049166
N3    N     N_R   0.110270 0.573880 0.547030 -0.053589
N4    N     N_R   0.889730 0.426120 0.452970 -0.052450
N5    N     N_R   0.389730 0.073880 0.452970 -0.052270
N6    N     N_R   0.610270 0.926120 0.547030 -0.050658
N7    N     N_R   0.610270 0.073880 0.547030 -0.051371
N8    N     N_R   0.389730 0.926120 0.452970 -0.044982
N9    N     N_R   0.941150 0.372910 0.507880 -0.051707
N10   N     N_R   0.058850 0.627090 0.492120 -0.055605
N11   N     N_R   0.058850 0.372910 0.492120 -0.049224
N12   N     N_R   0.872230 0.569340 0.292880 -0.044834
N13   N     N_R   0.941150 0.627090 0.507880 -0.054709
N14   N     N_R   0.441150 0.872910 0.507880 -0.047378
N15   N     N_R   0.558850 0.127090 0.492120 -0.053480
N16   N     N_R   0.558850 0.872910 0.492120 -0.052228
N17   N     N_R   0.441150 0.127090 0.507880 -0.056973
N18   N     N_R   0.076340 0.631640 0.652210 -0.047602
N19   N     N_R   0.923660 0.368360 0.347790 -0.043827
N20   N     N_R   0.923660 0.631640 0.347790 -0.045567
N21   N     N_R   0.076340 0.368360 0.652210 -0.045871
N22   N     N_R   0.576340 0.131640 0.652210 -0.046425
N23   N     N_R   0.872230 0.430660 0.292880 -0.044929
N24   N     N_R   0.423660 0.868360 0.347790 -0.045586
N25   N     N_R   0.423660 0.131640 0.347790 -0.046580
N26   N     N_R   0.576340 0.868360 0.652210 -0.045000
N27   N     N_R   0.127770 0.569340 0.707120 -0.043629
N28   N     N_R   0.627770 0.930660 0.707120 -0.044294
N29   N     N_R   0.372230 0.069340 0.292880 -0.042838
N30   N     N_R   0.372230 0.930660 0.292880 -0.040222
N31   N     N_R   0.627770 0.069340 0.707120 -0.044546
N32   N     N_R   0.889730 0.573880 0.452970 -0.055797
Ni1   Ni    Ni4+2 0.119340 0.500000 0.625930 0.232447
Ni2   Ni    Ni4+2 0.880660 0.500000 0.374070 0.223025
Ni3   Ni    Ni4+2 0.619340 1.000000 0.625930 0.225873
Ni4   Ni    Ni4+2 0.380660 0.000000 0.374070 0.230229
Ni5   Ni    Ni4+2 0.000000 0.373980 0.500000 0.243138
Ni6   Ni    Ni4+2 1.000000 0.626020 0.500000 0.226628
Ni7   Ni    Ni4+2 0.500000 0.873980 0.500000 0.242489
Ni8   Ni    Ni4+2 0.500000 0.126020 0.500000 0.226924
O1    O     O_2   0.340585 0.374130 0.775272 -0.623236
O2    O     O_R   0.722284 0.982266 0.530081 -0.750444
O3    O     O_2   0.210545 0.037827 0.414299 -0.596959
O4    O     O_R   0.212919 0.133655 0.338374 -0.765977
O5    O     O_2   0.181689 0.908185 0.301107 -0.614640
O6    O     O_R   0.275161 0.895344 0.482121 -0.734386
O7    O     O_2   0.821767 0.106484 0.669932 -0.603089
O8    O     O_R   0.829807 0.132275 0.794352 -0.796759
O9    O     O_2   0.107034 0.129127 0.558551 -0.634046
O10   O     O_R   0.057898 0.116245 0.392848 -0.772873
O11   O     O_2   0.947625 0.814264 0.627509 -0.650579
O12   O     O_R   0.260905 0.398265 0.596605 -0.724640
O13   O     O_R   0.906471 0.920314 0.524171 -0.762423
O14   O     O_2   0.930463 0.161094 0.613551 -0.611406
O15   O     O_R   0.008118 0.201248 0.784561 -0.803426
O16   O     O_2   0.977529 0.724457 0.224344 -0.648372
O17   O     O_R   0.026077 0.844921 0.281101 -0.768508
O18   O     O_2   0.571823 0.659300 0.392511 -0.611872
O19   O     O_R   0.491443 0.698349 0.220486 -0.795375
O20   O     O_2   0.517113 0.205751 0.769212 -0.647431
O21   O     O_R   0.478895 0.328974 0.740309 -0.778835
O22   O     O_2   0.393960 0.629872 0.453593 -0.639981
O23   O     O_2   0.669829 0.606280 0.297691 -0.630225
O24   O     O_R   0.437561 0.628646 0.613458 -0.778098
O25   O     O_2   0.548630 0.301945 0.358530 -0.635619
O26   O     O_R   0.581344 0.414320 0.448110 -0.765012
O27   O     O_R   0.673228 0.644044 0.190697 -0.796247
O28   O     O_2   0.684354 0.373573 0.329431 -0.596199
O29   O     O_R   0.757307 0.475613 0.436402 -0.760150
O30   O     O_2   0.205682 0.498103 0.447425 -0.564034
O31   O     O_R   0.289605 0.569366 0.604703 -0.787162
O32   O     O_2   0.809212 0.894602 0.653328 -0.606865

loop_
_geom_bond_atom_site_label_1
_geom_bond_atom_site_label_2
_ccdc_geom_bond_type
C61   C70   A    
C63   H34   S    
C107  H71   S    
C73   H72   S    
C2    C109  S    
C119  H28   S    
H55   O29   S    
C88   N15   A    
C7    H43   S    
C92   N19   A    
C11   C124  A    
C28   O15   S    
N1    N21   A    
N2    N11   A    
C1    N1    A    
C110  C118  S    
C22   O4    S    
C37   C62   A    
C76   N3    A    
N7    Ni3   S    
C19   O29   S    
C29   C49   S    
C94   H21   S    
C52   C102  A    
C9    C127  A    
C98   C105  A    
C93   N20   A    
N10   Ni6   S    
H68   O21   S    
N23   Ni2   S    
C44   H46   S    
C32   C55   S    
C67   C72   A    
C82   H9    S    
C1    H1    S    
C13   C112  S    
C16   C120  A    
C119  C127  A    
C22   C60   S    
C18   O27   S    
C76   H3    S    
C126  H36   S    
C90   C113  A    
C66   C69   A    
C23   O6    S    
C123  H32   S    
N6    N16   A    
C65   C70   A    
C12   C119  A    
C99   H26   S    
C127  H37   S    
H62   O10   S    
C93   H20   S    
C92   C102  A    
H66   O19   S    
C90   H17   S    
C29   O16   D    
C32   O24   S    
C27   O11   D    
N28   Ni3   S    
C74   N28   A    
C26   O10   S    
C6    C15   A    
C89   C114  A    
C41   N12   A    
C28   C50   S    
C44   C53   A    
C97   H24   S    
C96   H67   S    
N21   Ni5   S    
C25   O8    S    
C84   H11   S    
C42   H52   S    
C90   N17   A    
N4    N9    A    
C117  H27   S    
C94   N21   A    
H65   O17   S    
C122  H31   S    
N11   Ni5   S    
N3    N10   A    
H60   O6    S    
C31   O20   D    
C21   O2    S    
C96   N30   A    
C15   C104  S    
C4    C12   A    
C10   C125  A    
C40   C72   A    
C117  C126  A    
C57   C66   A    
C88   H15   S    
C21   C61   S    
C52   N23   A    
C75   H2    S    
C26   C48   S    
C91   H18   S    
C98   N25   A    
C20   C58   S    
C14   C117  A    
C14   C108  S    
C99   C104  A    
C98   H25   S    
C17   O1    D    
C87   H14   S    
C38   H49   S    
C43   C66   A    
C92   H19   S    
C128  H38   S    
N20   Ni6   S    
C44   C65   A    
C125  H35   S    
C24   C111  S    
C10   C128  A    
C1    C100  A    
N32   Ni2   S    
C22   O3    D    
C78   H5    S    
C75   N2    A    
N27   Ni1   S    
C30   C53   S    
C84   N11   A    
C95   N22   A    
C107  N31   A    
C3    H39   S    
C30   O19   S    
C99   N26   A    
C24   C58   A    
C86   C109  A    
C85   N29   A    
C74   H45   S    
C63   C103  A    
N13   Ni6   S    
C91   C103  A    
H58   O2    S    
C83   H10   S    
C63   N27   A    
C85   C105  A    
C19   C59   S    
C5    C14   A    
C34   C61   A    
C29   O17   S    
C4    H40   S    
C48   C118  A    
C33   O25   D    
N6    Ni3   S    
C77   H4    S    
C82   C112  A    
C23   O5    D    
C77   C112  A    
C32   O22   D    
C41   H12   S    
C26   O9    D    
N24   N30   A    
C59   C68   A    
C19   O28   D    
C40   H51   S    
C27   O13   S    
N1    Ni1   S    
H54   O27   S    
N17   Ni8   S    
C80   C115  A    
C94   C100  A    
C9    C103  S    
H64   O15   S    
N5    N17   A    
C45   C68   A    
N7    N15   A    
C9    C122  A    
C39   C69   A    
C4    C122  A    
C11   C101  S    
C95   H22   S    
H63   O13   S    
C7    C125  A    
C10   C100  S    
C80   H7    S    
C20   O31   S    
C87   C116  A    
N13   N32   A    
C16   C105  S    
C42   C50   A    
C89   N16   A    
C31   C51   S    
C37   C54   A    
C25   O7    D    
C8    C126  A    
C38   C70   A    
C45   C54   A    
C85   H56   S    
N26   N28   A    
C121  H30   S    
C81   N8    A    
N4    Ni2   S    
C35   C51   A    
C120  H29   S    
C83   C111  A    
C78   C113  A    
C34   C114  S    
N18   Ni6   S    
C107  C108  A    
C93   C101  A    
C89   H16   S    
C77   N4    A    
C20   O30   D    
N18   N27   A    
C39   H50   S    
C36   C116  S    
C81   H8    S    
C74   C104  A    
C124  H33   S    
C6    H42   S    
C27   C47   S    
C33   C54   S    
C79   H6    S    
N8    Ni4   S    
C6    C124  A    
C23   C64   S    
C75   C110  A    
N8    N14   A    
N26   Ni7   S    
C15   C121  A    
C30   O18   D    
N16   Ni7   S    
N5    Ni4   S    
C7    C16   A    
N9    Ni5   S    
C28   O14   D    
H59   O4    S    
H53   O12   S    
C73   C109  A    
N22   N31   A    
N12   Ni2   S    
C43   H44   S    
C120  C128  A    
C8    C123  A    
C68   C71   A    
C37   C115  S    
C18   C56   S    
C2    C47   A    
H69   O24   S    
C79   N6    A    
N12   N20   A    
C5    C123  A    
C17   O12   S    
C97   N24   A    
C38   C47   A    
C33   O26   S    
C31   O21   S    
N30   Ni4   S    
C82   N9    A    
N29   Ni4   S    
C45   H47   S    
N14   Ni7   S    
C78   N5    A    
C18   O23   D    
C88   C115  A    
C36   C55   A    
C2    C56   A    
N2    Ni1   S    
C12   C106  S    
H70   O26   S    
C43   C51   A    
C40   C49   A    
C60   C69   A    
C91   N18   A    
C76   C111  A    
N19   Ni5   S    
C24   C49   A    
C81   C116  A    
N22   Ni8   S    
C42   C71   A    
C87   N14   A    
C41   C101  A    
C62   C71   A    
C35   C113  S    
C46   H48   S    
C25   C62   S    
C64   C72   A    
C46   C55   A    
N24   Ni7   S    
C84   C110  A    
C86   N13   A    
C83   N10   A    
C3    C11   A    
C95   C108  A    
H57   O31   S    
N19   N23   A    
C13   C50   A    
N3    Ni1   S    
C3    C121  A    
C58   C67   A    
C46   C67   A    
C80   N7    A    
C57   C118  A    
C34   C53   A    
N25   N29   A    
C21   O32   D    
C79   C114  A    
C96   C106  A    
C52   H23   S    
N25   Ni8   S    
C5    H41   S    
C35   C60   A    
N31   Ni3   S    
N15   Ni8   S    
C13   C59   A    
C36   C64   A    
C8    C102  S    
C73   N32   A    
C56   C65   A    
C86   H13   S    
C17   C57   S    
C39   C48   A    
H61   O8    S    
C97   C106  A    
