data_mof_unit_46371.cif
_audit_creation_date              2012-12-10T20:31:06-0500
_audit_creation_method            fapswitch 2.2
_symmetry_space_group_name_H-M    P1
_symmetry_Int_Tables_number       1
_space_group_crystal_system       triclinic
_cell_length_a                    15.002264
_cell_length_b                    10.684987
_cell_length_c                    9.834536
_cell_angle_alpha                 90.562073
_cell_angle_beta                  89.904386
_cell_angle_gamma                 89.674865
_cell_volume                      1576.36266332

loop_
_atom_site_label
_atom_site_type_symbol
_atom_type_description
_atom_site_fract_x
_atom_site_fract_y
_atom_site_fract_z
_atom_type_partial_charge
C1    C     C_R   0.494819 0.259491 0.498718 0.958745
C2    C     C_R   0.906744 0.533687 0.621873 0.040436
C3    C     C_R   0.953926 0.435196 0.262366 -0.150274
C4    C     C_R   0.046466 0.433040 0.262740 -0.161778
C5    C     C_R   0.092684 0.465108 0.381368 0.119736
C6    C     C_R   0.046149 0.499673 0.500978 0.064585
C7    C     C_R   0.092563 0.532963 0.620171 0.063447
C8    C     C_R   0.046545 0.565767 0.739041 -0.213880
C9    C     C_R   0.953876 0.565850 0.741118 0.267211
C10   C     C_R   0.184909 0.463219 0.382625 -0.187512
C11   C     C_R   0.230629 0.498458 0.500357 -0.054948
C12   C     C_R   0.326534 0.499393 0.500089 0.915016
C13   C     C_R   0.184703 0.533189 0.618474 -0.197190
C14   C     C_R   0.512005 0.065595 0.618483 -0.008399
C15   C     C_R   0.496983 0.125695 0.495346 -0.273025
C16   C     C_R   0.504200 0.057578 0.370866 0.263512
C17   C     C_R   0.535605 0.934463 0.376125 0.360504
C18   C     C_R   0.525917 0.870530 0.499939 -0.250443
C19   C     C_R   0.522136 0.938819 0.620854 0.003893
C20   C     C_3   0.468329 0.924192 0.747552 -0.378496
C21   C     C_3   0.457030 0.065495 0.746407 0.173443
C22   C     C_R   0.440483 0.570718 0.072151 0.294059
C23   C     C_R   0.508144 0.739385 0.500273 0.969016
C24   C     C_R   0.565538 0.439265 0.071289 -0.023055
C25   C     C_R   0.565037 0.438153 0.927010 -0.086816
C26   C     C_R   0.440836 0.571438 0.929547 0.183462
C27   C     C_3   0.341878 0.563988 0.923553 -0.560926
C28   C     C_3   0.341642 0.562302 0.077763 0.048712
C29   C     C_R   0.673392 0.500305 0.499899 0.909454
C30   C     C_R   0.814255 0.533144 0.619435 -0.186294
C31   C     C_R   0.769167 0.501263 0.499932 -0.072292
C32   C     C_R   0.815224 0.469810 0.380959 -0.206924
C33   C     C_R   0.907330 0.468646 0.380839 0.125979
C34   C     C_R   0.953381 0.500792 0.501320 0.025954
H1    H     H_    0.776605 0.558224 0.709655 0.205276
H2    H     H_    0.405532 0.871603 0.730268 0.224093
H3    H     H_    0.509427 0.890739 0.834005 0.232067
H4    H     H_    0.491170 0.113322 0.832511 0.188656
H5    H     H_    0.617281 0.389426 0.125231 0.163710
H6    H     H_    0.616076 0.386848 0.871773 0.158432
H7    H     H_    0.312231 0.650116 0.879670 0.233268
H8    H     H_    0.318533 0.474484 0.877719 0.222250
H9    H     H_    0.779457 0.444660 0.288953 0.161711
H10   H     H_    0.318419 0.472152 0.119736 0.161674
H11   H     H_    0.918800 0.410319 0.169842 0.180837
H12   H     H_    0.081843 0.406784 0.170496 0.167549
H13   H     H_    0.220863 0.433599 0.292415 0.167717
H14   H     H_    0.220441 0.561636 0.708688 0.156231
H15   H     H_    0.082650 0.590855 0.830671 0.190748
N1    N     N_R   0.499390 0.499140 0.142800 -0.126673
N2    N     N_R   0.499390 0.499180 0.857150 -0.115641
O1    O     O_R   0.500010 0.316790 0.614690 -0.613870
O2    O     O_R   0.500000 0.316760 0.385350 -0.556634
O3    O     O_R   0.367850 0.499990 0.614680 -0.627251
O4    O     O_R   0.367840 0.499950 0.385340 -0.609189
O5    O     O_R   0.500000 0.683240 0.614650 -0.629676
O6    O     O_R   0.499990 0.683210 0.385310 -0.547652
O7    O     O_R   0.632160 0.500050 0.614660 -0.639815
O8    O     O_R   0.632150 0.500010 0.385320 -0.623722
Zn1   Zn    Zn3+2 0.500010 0.500020 0.653130 0.982451
Zn2   Zn    Zn3+2 0.499990 0.499980 0.346870 1.062651
S1    S     S_3+6 0.598056 0.869921 0.237826 0.086736
O9    O     O_2   0.536896 0.807225 0.137861 -0.277130
O10   O     O_2   0.648080 0.971941 0.167061 -0.245507
O11   O     O_3   0.671817 0.764366 0.296492 -0.557291
H16   H     H_    0.695875 0.721732 0.214284 0.387097
Br1   Br    Br    0.333755 0.118074 0.720252 -0.453393
Br2   Br    Br    0.288962 0.711589 0.159240 -0.399448
Br3   Br    Br    0.896352 0.610303 0.909919 -0.520501
S2    S     S_3+6 0.453887 0.109601 0.216690 0.096847
O12   O     O_2   0.522720 0.173167 0.131179 -0.269413
O13   O     O_2   0.417168 0.000568 0.137575 -0.207866
O14   O     O_3   0.369385 0.210095 0.248304 -0.538180
H17   H     H_    0.328689 0.164474 0.309563 0.353942

loop_
_geom_bond_atom_site_label_1
_geom_bond_atom_site_label_2
_ccdc_geom_bond_type
O14   H17   S    
C19   C20   S    
C7    C8    A    
O3    Zn1   S    
C26   C27   S    
C30   H1    S    
C14   C21   S    
C28   Br2   S    
C9    Br3   S    
C25   H6    S    
C5    C6    A    
C3    C33   A    
O7    Zn1   S    
C15   C16   A    
C24   H5    S    
C18   C19   A    
C1    O2    A    
S1    O10   D    
O1    Zn1   S    
O2    Zn2   S    
C21   H4    S    
C29   O8    A    
C16   C17   A    
S2    O12   D    
C1    C15   S    
C22   N1    A    
C2    C34   A    
C22   C28   S    
C21   Br1   S    
C17   C18   A    
C24   N1    A    
O8    Zn2   S    
C18   C23   S    
C23   O5    A    
C16   S2    S    
C24   C25   A    
C8    C9    A    
C4    H12   S    
C28   H10   S    
C6    C34   A    
C25   N2    A    
S1    O9    D    
C17   S1    S    
C27   H7    S    
C31   C32   A    
S2    O14   S    
C33   C34   A    
C20   C21   S    
C3    C4    A    
C10   H13   S    
C23   O6    A    
S1    O11   S    
C14   C19   A    
C4    C5    A    
C13   H14   S    
C11   C12   S    
O6    Zn2   S    
C6    C7    A    
C2    C30   A    
C32   C33   A    
C5    C10   A    
C29   C31   S    
C26   N2    A    
C20   H3    S    
C11   C13   A    
C27   H8    S    
C30   C31   A    
O4    Zn2   S    
C32   H9    S    
C3    H11   S    
C1    O1    A    
C12   O4    A    
C10   C11   A    
C20   H2    S    
O5    Zn1   S    
C7    C13   A    
C29   O7    A    
O11   H16   S    
C22   C26   A    
C27   C28   S    
N1    Zn2   S    
C14   C15   A    
S2    O13   D    
N2    Zn1   S    
C2    C9    A    
C8    H15   S    
C12   O3    A    
