data_mof_unit_28680.cif
_audit_creation_date              2012-12-10T20:45:27-0500
_audit_creation_method            fapswitch 2.2
_symmetry_space_group_name_H-M    P1
_symmetry_Int_Tables_number       1
_space_group_crystal_system       triclinic
_cell_length_a                    10.649475
_cell_length_b                    10.721025
_cell_length_c                    9.90744
_cell_angle_alpha                 88.555231
_cell_angle_beta                  90.394001
_cell_angle_gamma                 91.20528
_cell_volume                      1130.53241114

loop_
_atom_site_label
_atom_site_type_symbol
_atom_type_description
_atom_site_fract_x
_atom_site_fract_y
_atom_site_fract_z
_atom_type_partial_charge
C1    C     C_R   0.500214 0.259929 0.501064 0.909245
C2    C     C_R   0.243856 0.915812 0.236517 -0.099914
C3    C     C_R   0.934499 0.599830 0.440459 -0.220140
C4    C     C_R   0.871332 0.498606 0.501166 -0.082953
C5    C     C_R   0.933740 0.395567 0.556512 -0.042701
C6    C     C_R   0.063754 0.395961 0.551918 0.093293
C7    C     C_R   0.127561 0.500467 0.496027 -0.117327
C8    C     C_R   0.063827 0.601737 0.436475 -0.030922
C9    C     C_R   0.835685 0.280991 0.752724 -0.061275
C10   C     C_R   0.787253 0.170749 0.812201 -0.163073
C11   C     C_R   0.769159 0.064653 0.734611 -0.105339
C12   C     C_R   0.260389 0.502154 0.499047 0.921655
C13   C     C_R   0.795717 0.069557 0.596655 -0.103751
C14   C     C_R   0.842661 0.180081 0.536360 -0.158535
C15   C     C_R   0.865065 0.285674 0.614784 0.127646
C16   C     C_R   0.429719 0.057522 0.597500 0.171795
C17   C     C_R   0.494488 0.127280 0.498863 -0.081299
C18   C     C_R   0.539739 0.067728 0.384605 -0.255611
C19   C     C_R   0.537569 0.938899 0.381440 -0.239464
C20   C     C_R   0.490365 0.870532 0.492703 -0.079372
C21   C     C_R   0.428415 0.930434 0.594373 0.134208
C22   C     C_3   0.434143 0.914254 0.743932 -0.476780
C23   C     C_R   0.499736 0.739462 0.498234 0.888508
C24   C     C_3   0.435124 0.055209 0.748317 -0.507750
C25   C     C_R   0.401691 0.448137 0.072340 0.197208
C26   C     C_R   0.588701 0.564592 0.072020 -0.164961
C27   C     C_R   0.588710 0.566028 0.928859 0.174546
C28   C     C_R   0.401781 0.447779 0.930048 0.194134
C29   C     C_3   0.360956 0.314407 0.931605 -0.506151
C30   C     C_3   0.357861 0.316124 0.084202 -0.502597
C31   C     C_R   0.739304 0.500115 0.500401 0.895758
C32   C     C_R   0.189216 0.929299 0.362991 -0.126306
C33   C     C_R   0.132047 0.826569 0.429399 -0.178004
C34   C     C_R   0.128893 0.709514 0.368995 0.093039
C35   C     C_R   0.181861 0.697157 0.240646 -0.080382
C36   C     C_R   0.240361 0.799732 0.175451 -0.127336
H1    H     H_    0.288778 0.995340 0.185859 0.139482
H2    H     H_    0.733819 0.978856 0.781359 0.155132
H3    H     H_    0.781254 0.987313 0.536849 0.145094
H4    H     H_    0.866051 0.182139 0.430073 0.137241
H5    H     H_    0.583144 0.119948 0.301616 0.167029
H6    H     H_    0.579710 0.893495 0.296929 0.170891
H7    H     H_    0.346990 0.869729 0.785590 0.208827
H8    H     H_    0.523177 0.873260 0.780887 0.230746
H9    H     H_    0.347595 0.089085 0.793468 0.233059
H10   H     H_    0.523977 0.095232 0.788812 0.209368
H11   H     H_    0.661142 0.615092 0.126457 0.172140
H12   H     H_    0.191706 0.019325 0.409697 0.169474
H13   H     H_    0.266657 0.300235 0.885841 0.237771
H14   H     H_    0.436975 0.256423 0.894167 0.214303
H15   H     H_    0.261431 0.307299 0.126114 0.208105
H16   H     H_    0.428117 0.254161 0.133146 0.218486
H17   H     H_    0.090107 0.838198 0.527427 0.156794
H18   H     H_    0.177513 0.608275 0.191061 0.135170
H19   H     H_    0.282184 0.789413 0.077212 0.126868
H20   H     H_    0.882690 0.677016 0.396189 0.146721
H21   H     H_    0.853549 0.361453 0.814539 0.149487
H22   H     H_    0.765738 0.166892 0.918879 0.130940
N1    N     N_R   0.499160 0.499140 0.142800 -0.121771
N2    N     N_R   0.499160 0.499180 0.857150 -0.125494
O1    O     O_R   0.500020 0.316790 0.614690 -0.602786
O2    O     O_R   0.500000 0.316760 0.385350 -0.628425
O3    O     O_R   0.316770 0.500030 0.614670 -0.596572
O4    O     O_R   0.316750 0.499990 0.385330 -0.622198
O5    O     O_R   0.500000 0.683240 0.614650 -0.604259
O6    O     O_R   0.499980 0.683210 0.385310 -0.623767
O7    O     O_R   0.683250 0.500010 0.614670 -0.588596
O8    O     O_R   0.683230 0.499970 0.385330 -0.629816
Zn1   Zn    Zn3+2 0.500010 0.500020 0.653130 0.981295
Zn2   Zn    Zn3+2 0.499990 0.499980 0.346870 0.945477
I1    I     I_    0.731739 0.678854 0.838085 -0.448083
I2    I     I_    0.161133 0.233441 0.617857 -0.487227

loop_
_geom_bond_atom_site_label_1
_geom_bond_atom_site_label_2
_ccdc_geom_bond_type
O1    Zn1   S    
C11   H2    S    
C6    I2    S    
C30   H15   S    
C19   H6    S    
C16   C21   A    
O4    Zn2   S    
C29   C30   S    
C11   C13   A    
C3    H20   S    
C1    C17   S    
C19   C20   A    
C20   C23   S    
C27   N2    A    
C24   H10   S    
C32   C33   A    
C23   O5    A    
C33   C34   A    
C9    C15   A    
C7    C8    A    
C16   C24   S    
C36   H19   S    
C29   H13   S    
C21   C22   S    
C1    O2    A    
C35   H18   S    
C31   O7    A    
C32   H12   S    
C2    H1    S    
C26   C27   A    
O6    Zn2   S    
N2    Zn1   S    
O5    Zn1   S    
C24   H9    S    
C26   H11   S    
C23   O6    A    
C2    C32   A    
C28   C29   S    
C10   H22   S    
C17   C18   A    
C6    C7    A    
C9    H21   S    
C29   H14   S    
C28   N2    A    
C3    C8    A    
C33   H17   S    
C5    C6    A    
C12   O4    A    
C22   C24   S    
C7    C12   S    
C5    C15   S    
C4    C31   S    
C13   H3    S    
C10   C11   A    
N1    Zn2   S    
C14   H4    S    
C3    C4    A    
C25   C28   A    
C27   I1    S    
C20   C21   A    
O2    Zn2   S    
O8    Zn2   S    
C34   C35   A    
C9    C10   A    
C18   H5    S    
C2    C36   A    
C25   C30   S    
C12   O3    A    
C30   H16   S    
C14   C15   A    
C18   C19   A    
C26   N1    A    
C8    C34   S    
C25   N1    A    
C13   C14   A    
C31   O8    A    
C22   H7    S    
C22   H8    S    
O3    Zn1   S    
C16   C17   A    
C4    C5    A    
O7    Zn1   S    
C35   C36   A    
C1    O1    A    
