data_mof_unit_61662.cif
_audit_creation_date              2012-12-11T15:58:35-0500
_audit_creation_method            fapswitch 2.2
_symmetry_space_group_name_H-M    P1
_symmetry_Int_Tables_number       1
_space_group_crystal_system       triclinic
_cell_length_a                    6.95167
_cell_length_b                    17.327795
_cell_length_c                    18.677484
_cell_angle_alpha                 106.578198
_cell_angle_beta                  90.059773
_cell_angle_gamma                 90.500936
_cell_volume                      2156.21574836

loop_
_atom_site_label
_atom_site_type_symbol
_atom_type_description
_atom_site_fract_x
_atom_site_fract_y
_atom_site_fract_z
_atom_type_partial_charge
O1    O     O_R   0.505770 0.442340 0.559500 -0.526093
O2    O     O_R   0.168070 0.405470 0.411510 -0.541475
O3    O     O_R   0.005580 0.557660 0.440500 -0.528369
C1    C     C_R   0.338898 0.382112 0.383209 0.748262
O4    O     O_R   0.175550 0.432860 0.557160 -0.527567
O5    O     O_R   0.013110 0.585240 0.587190 -0.515525
C2    C     C_R   0.344374 0.415905 0.580605 0.716381
O6    O     O_R   0.498240 0.414760 0.412810 -0.514875
O7    O     O_3   0.341770 0.549960 0.509680 -0.354166
V1    V     V_3+5 0.063870 0.490730 0.498200 1.451797
O8    O     O_R   0.683850 0.594530 0.588490 -0.536861
C3    C     C_R   0.854324 0.617683 0.616730 0.728480
O9    O     O_R   0.676380 0.567140 0.442840 -0.520299
C4    C     C_R   0.845377 0.584081 0.419381 0.734482
V2    V     V_3+5 0.564820 0.509270 0.501800 1.475213
O10   O     O_3   0.836790 0.450040 0.490320 -0.361135
C5    C     C_1   0.856683 0.636056 0.367315 -0.207321
C6    C     C_1   0.867923 0.678604 0.323734 0.010776
C7    C     C_1   0.882240 0.728791 0.271845 0.009361
C8    C     C_1   0.894520 0.771064 0.228047 0.008555
C9    C     C_1   0.908842 0.821265 0.176173 0.013277
C10   C     C_1   0.920099 0.863840 0.132616 -0.188828
C11   C     C_3   0.785934 0.835326 0.750053 0.172282
C12   C     C_3   0.753609 0.761096 0.680508 -0.437059
H1    H     H_    0.598189 0.744442 0.674280 0.212768
H2    H     H_    0.638554 0.649061 0.747131 0.221953
C13   C     C_3   0.820724 0.735280 0.829175 0.152151
C14   C     C_3   0.113310 0.789581 0.775083 0.526862
C15   C     C_3   0.909604 0.812121 0.811760 -0.102687
C16   C     C_3   0.873271 0.688134 0.687493 -0.126354
C17   C     C_3   0.793968 0.665035 0.756288 -0.326558
C18   C     C_3   0.089621 0.717355 0.701767 0.113935
H3    H     H_    0.864431 0.609987 0.762432 0.088633
C19   C     C_3   0.585154 0.293296 0.295172 0.236639
C20   C     C_3   0.618275 0.215328 0.229036 0.510640
C21   C     C_3   0.267380 0.329609 0.242433 0.136071
C22   C     C_3   0.269120 0.233730 0.320393 -0.556857
C23   C     C_3   0.363561 0.312115 0.311618 -0.155130
C24   C     C_3   0.419052 0.188546 0.187781 -0.171238
C25   C     C_3   0.324222 0.263387 0.169161 0.074230
C26   C     C_3   0.277326 0.165157 0.244472 0.234617
C27   C     C_1   0.354639 0.363851 0.632660 -0.216793
C28   C     C_1   0.366300 0.321298 0.676226 0.002991
C29   C     C_1   0.381809 0.271138 0.728113 0.003559
C30   C     C_1   0.395237 0.228907 0.771906 0.005096
C31   C     C_1   0.410747 0.178743 0.823789 0.009102
C32   C     C_1   0.422407 0.136185 0.867348 -0.192494
O11   O     O_R   0.278700 0.085270 0.087180 -0.507829
O12   O     O_R   0.601470 0.067150 0.942830 -0.529475
O13   O     O_R   0.763830 0.914750 0.912810 -0.516694
C33   C     C_R   0.432652 0.084123 0.919390 0.746158
O14   O     O_R   0.608870 0.094540 0.088490 -0.544664
O15   O     O_R   0.771290 0.942340 0.059510 -0.534672
C34   C     C_R   0.438986 0.117941 0.116627 0.774356
O16   O     O_R   0.271240 0.057690 0.940480 -0.519930
O17   O     O_3   0.435150 0.950050 0.990310 -0.353692
V3    V     V_3+5 0.713080 0.009270 0.001800 1.499522
O18   O     O_R   0.100490 0.932820 0.057180 -0.524902
C35   C     C_R   0.931458 0.915858 0.080592 0.691892
O19   O     O_R   0.093090 0.905430 0.911530 -0.506504
C36   C     C_R   0.923574 0.882620 0.882972 0.762462
V4    V     V_3+5 0.212120 0.990690 0.998230 1.563319
O20   O     O_3   0.940180 0.049940 0.009690 -0.356422
O21   O     O_3   0.612312 0.872666 0.777163 -0.629354
H4    H     H_    0.537018 0.834246 0.795890 0.394972
O22   O     O_3   0.221029 0.655308 0.700566 -0.630265
H5    H     H_    0.165828 0.619969 0.728708 0.280524
H6    H     H_    0.920014 0.714015 0.866145 0.051726
O23   O     O_3   0.687828 0.360289 0.285614 -0.627560
H7    H     H_    0.651895 0.367996 0.236870 0.325108
H8    H     H_    0.647495 0.282131 0.346272 0.142330
O24   O     O_3   0.683856 0.155142 0.260135 -0.656406
H9    H     H_    0.731857 0.109602 0.218978 0.316307
O25   O     O_3   0.765944 0.228770 0.181638 -0.622220
H10   H     H_    0.711643 0.249482 0.141947 0.263453
O26   O     O_3   0.318757 0.406247 0.236487 -0.653821
H11   H     H_    0.231903 0.445775 0.269810 0.289380
H12   H     H_    0.427576 0.289803 0.137188 0.100252
H13   H     H_    0.116239 0.244750 0.337670 0.192366
H14   H     H_    0.865873 0.881184 0.730421 0.163126
H15   H     H_    0.343193 0.216355 0.366188 0.164213
O27   O     O_3   0.316966 0.088627 0.253277 -0.645256
H16   H     H_    0.400890 0.094566 0.297406 0.330973
H17   H     H_    0.129965 0.159920 0.220085 0.211084
H18   H     H_    0.107836 0.327223 0.249272 0.180668
O28   O     O_3   0.159706 0.239244 0.124123 -0.625329
H19   H     H_    0.123952 0.285035 0.104888 0.307668
H20   H     H_    0.795992 0.777144 0.629068 0.120126
O29   O     O_3   0.643204 0.751537 0.866247 -0.614159
H21   H     H_    0.669930 0.770146 0.920760 0.290400
O30   O     O_3   0.243887 0.771494 0.825974 -0.603585
H22   H     H_    0.210322 0.719293 0.834414 0.283929
O31   O     O_3   0.187043 0.857884 0.756972 -0.652402
H23   H     H_    0.291769 0.840802 0.720080 0.305038
H24   H     H_    0.128516 0.738876 0.652867 0.113355

loop_
_geom_bond_atom_site_label_1
_geom_bond_atom_site_label_2
_ccdc_geom_bond_type
O18   V4    S    
C20   O25   S    
O31   H23   S    
C13   C15   S    
O2    C1    A    
C7    C8    T    
C1    O6    A    
O15   C35   A    
C24   C26   S    
C30   C31   S    
O11   C34   A    
C22   H13   S    
C22   C23   S    
C11   C15   S    
C14   C15   S    
C6    C7    S    
O5    C3    A    
C16   C17   S    
C24   C34   S    
V2    O10   S    
O16   V4    S    
O12   V3    S    
O17   V3    S    
O19   V4    S    
C19   C20   S    
C2    C27   S    
C25   O28   S    
C13   H6    S    
C21   O26   S    
O8    V2    S    
O12   C33   A    
C11   C12   S    
C17   H3    S    
O1    V2    S    
C11   H14   S    
O7    V1    S    
O17   V4    S    
O22   H5    S    
H2    C17   S    
C19   C23   S    
O9    C4    A    
C4    C5    S    
C22   H15   S    
O14   C34   A    
V3    O20   S    
C15   C36   S    
O25   H10   S    
C13   C17   S    
C14   C18   S    
C12   H1    S    
C10   C35   S    
O4    C2    A    
O15   V3    S    
O28   H19   S    
C32   C33   S    
O18   C35   A    
C26   H17   S    
C14   O31   S    
C20   C24   S    
C28   C29   S    
V4    O20   S    
O11   V4    S    
C21   C25   S    
C5    C6    T    
O26   H11   S    
C12   H20   S    
C19   O23   S    
O3    C4    A    
C11   O21   S    
C1    C23   S    
C20   O24   S    
O6    V2    S    
O9    V2    S    
C25   H12   S    
C27   C28   T    
O2    V1    S    
O30   H22   S    
C29   C30   T    
C18   O22   S    
C31   C32   T    
C3    C16   S    
O1    C2    A    
O13   V3    S    
O24   H9    S    
O5    V1    S    
O8    C3    A    
C21   H18   S    
O21   H4    S    
C21   C23   S    
O7    V2    S    
O4    V1    S    
O3    V1    S    
V1    O10   S    
C16   C18   S    
C26   O27   S    
C13   O29   S    
C14   O30   S    
C33   O16   A    
C22   C26   S    
O23   H7    S    
C12   C16   S    
O14   V3    S    
C24   C25   S    
C18   H24   S    
C8    C9    S    
O27   H16   S    
O13   C36   A    
O19   C36   A    
O29   H21   S    
C9    C10   T    
C19   H8    S    
