data_mof_unit_9300.cif
_audit_creation_date              2012-12-10T19:25:49-0500
_audit_creation_method            fapswitch 2.2
_symmetry_space_group_name_H-M    P1
_symmetry_Int_Tables_number       1
_space_group_crystal_system       triclinic
_cell_length_a                    9.756664
_cell_length_b                    10.491816
_cell_length_c                    16.814544
_cell_angle_alpha                 89.909062
_cell_angle_beta                  84.882321
_cell_angle_gamma                 89.577399
_cell_volume                      1714.31399247

loop_
_atom_site_label
_atom_site_type_symbol
_atom_type_description
_atom_site_fract_x
_atom_site_fract_y
_atom_site_fract_z
_atom_type_partial_charge
C1    C     C_R   0.499460 0.742525 0.499938 0.861116
C2    C     C_3   0.574905 0.957194 0.434340 -0.175828
C3    C     C_3   0.943465 0.587775 0.546521 -0.071360
C4    C     C_3   0.056535 0.412225 0.453479 -0.071439
C5    C     C_3   0.051550 0.608283 0.475640 -0.072368
C6    C     C_3   0.948450 0.391717 0.524360 -0.072359
C7    C     C_3   0.037756 0.479465 0.570946 -0.075311
C8    C     C_3   0.962244 0.520535 0.429054 -0.075356
C9    C     C_R   0.480537 0.504715 0.652724 0.849626
C10   C     C_R   0.519464 0.495400 0.347267 0.849808
C11   C     C_R   0.468115 0.526809 0.738056 -0.024890
C12   C     C_R   0.500540 0.257475 0.500065 0.861171
C13   C     C_R   0.531888 0.474100 0.261853 -0.025146
C14   C     C_R   0.576951 0.585121 0.772860 -0.183195
C15   C     C_R   0.422818 0.416694 0.226769 -0.183625
C16   C     C_R   0.568557 0.603588 0.854538 -0.137567
C17   C     C_R   0.431155 0.399230 0.145007 -0.137640
C18   C     C_R   0.452177 0.562436 0.901656 0.115145
C19   C     C_R   0.547730 0.440458 0.098091 0.115548
C20   C     C_R   0.339968 0.510944 0.867017 -0.179190
C21   C     C_R   0.660118 0.491099 0.132968 -0.179300
C22   C     C_R   0.347445 0.493925 0.784868 -0.200698
C23   C     C_3   0.369040 0.960902 0.499821 -0.140868
C24   C     C_R   0.652680 0.507136 0.215194 -0.200840
C25   C     C_2   0.459931 0.549238 0.987671 0.357109
C26   C     C_2   0.540319 0.454053 0.012075 0.357140
C27   C     C_3   0.662174 0.264085 0.987042 -0.327536
C28   C     C_3   0.337433 0.738914 0.012521 -0.327623
C29   C     C_3   0.630960 0.039096 0.500185 -0.140930
C30   C     C_3   0.445788 0.043143 0.434213 -0.182431
C31   C     C_3   0.554211 0.956855 0.565794 -0.182477
C32   C     C_3   0.501674 0.122342 0.500056 0.032129
C33   C     C_3   0.498325 0.877657 0.499951 0.032190
C34   C     C_3   0.425094 0.042804 0.565666 -0.175874
H1    H     H_    0.669403 0.614313 0.737194 0.142255
H2    H     H_    0.749664 0.524333 0.096242 0.135529
H3    H     H_    0.343896 0.360778 0.117668 0.123521
H4    H     H_    0.655709 0.642640 0.881692 0.123446
H5    H     H_    0.401945 0.083237 0.380741 0.127424
H6    H     H_    0.598053 0.916758 0.619265 0.127364
H7    H     H_    0.262288 0.924995 0.499663 0.133934
H8    H     H_    0.737712 0.075003 0.500344 0.133932
H9    H     H_    0.364414 0.082561 0.619046 0.130576
H10   H     H_    0.635585 0.917437 0.380960 0.130649
H11   H     H_    0.099833 0.699461 0.455115 0.116481
H12   H     H_    0.330234 0.387445 0.262288 0.142439
H13   H     H_    0.900167 0.300539 0.544885 0.116456
H14   H     H_    0.572369 0.210448 0.015093 0.155045
H15   H     H_    0.740746 0.278179 0.030115 0.169109
H16   H     H_    0.710233 0.205147 0.937259 0.192372
H17   H     H_    0.258633 0.724207 0.969662 0.169061
H18   H     H_    0.426852 0.792734 0.984162 0.155064
H19   H     H_    0.289410 0.797991 0.062246 0.192385
H20   H     H_    0.890814 0.661614 0.585675 0.112456
H21   H     H_    0.109186 0.338386 0.414325 0.112495
H22   H     H_    0.074342 0.462148 0.630702 0.117408
H23   H     H_    0.925658 0.537853 0.369298 0.117335
H24   H     H_    0.738377 0.549915 0.241799 0.143678
H25   H     H_    0.261905 0.450503 0.758462 0.143511
H26   H     H_    0.250600 0.477722 0.903906 0.135351
N1    N     N_3   0.136700 0.499970 0.500060 -0.071972
N2    N     N_3   0.863300 0.500030 0.499940 -0.071964
O1    O     O_R   0.383390 0.686040 0.500000 -0.624770
O2    O     O_3   0.379024 0.621595 0.044077 -0.620582
O3    O     O_R   0.616610 0.313960 0.500000 -0.624762
O4    O     O_R   0.616650 0.686050 0.499970 -0.622218
O5    O     O_R   0.383350 0.313950 0.500030 -0.622165
O6    O     O_R   0.369590 0.500020 0.615820 -0.622265
O7    O     O_R   0.630410 0.499980 0.384180 -0.622301
O8    O     O_R   0.602840 0.500020 0.615790 -0.616365
O9    O     O_R   0.397160 0.499980 0.384210 -0.616399
O10   O     O_3   0.621308 0.381773 0.955665 -0.620516
Zn1   Zn    Zn3+2 0.344250 0.499990 0.500020 0.934950
Zn2   Zn    Zn3+2 0.655750 0.500010 0.499980 0.934923

loop_
_geom_bond_atom_site_label_1
_geom_bond_atom_site_label_2
_ccdc_geom_bond_type
C27   H14   S    
C29   H8    S    
C26   O10   S    
C4    C8    S    
C1    C33   S    
C21   H2    S    
C2    C29   S    
C19   C21   A    
C29   C32   S    
C3    C7    S    
C28   H17   S    
O4    Zn2   S    
C31   H6    S    
C19   C26   S    
C7    N1    S    
C17   C19   A    
C2    H10   S    
C23   C33   S    
O8    Zn2   S    
C31   C33   S    
O5    Zn1   S    
C20   H26   S    
C27   H16   S    
C10   O9    A    
C12   C32   S    
C18   C25   S    
C7    H22   S    
C1    O1    A    
C12   O5    A    
C6    H13   S    
C23   C30   S    
C9    O8    A    
C4    C6    S    
C14   H1    S    
O9    Zn1   S    
O1    Zn1   S    
N1    Zn1   S    
C25   C26   D    
C5    H11   S    
C4    N1    S    
O3    Zn2   S    
C13   C24   A    
C25   O2    S    
C32   C34   S    
C8    H23   S    
C23   C34   S    
C1    O4    A    
C31   C34   S    
C5    N1    S    
O7    Zn2   S    
C17   H3    S    
C9    C11   S    
C3    H20   S    
C28   O2    S    
C2    C33   S    
C16   C18   A    
C20   C22   A    
C13   C15   A    
C4    H21   S    
C14   C16   A    
C22   H25   S    
C3    N2    S    
C15   C17   A    
C34   H9    S    
C3    C5    S    
C10   C13   S    
C5    C8    S    
C28   H19   S    
C6    C7    S    
C12   O3    A    
C11   C22   A    
C23   H7    S    
C2    C30   S    
C6    N2    S    
O6    Zn1   S    
C9    O6    A    
C29   C31   S    
C30   C32   S    
C28   H18   S    
C11   C14   A    
C30   H5    S    
C18   C20   A    
C10   O7    A    
C24   H24   S    
C21   C24   A    
C16   H4    S    
N2    Zn2   S    
C15   H12   S    
C27   O10   S    
C27   H15   S    
C8    N2    S    
