data_mof_unit_32986.cif
_audit_creation_date              2012-10-26T18:26:37-0400
_audit_creation_method            fapswitch 2.2
_symmetry_space_group_name_H-M    P1
_symmetry_Int_Tables_number       1
_space_group_crystal_system       triclinic
_cell_length_a                    15.803833
_cell_length_b                    8.752378
_cell_length_c                    7.513273
_cell_angle_alpha                 103.507004
_cell_angle_beta                  92.127993
_cell_angle_gamma                 91.27747
_cell_volume                      1009.29045086

loop_
_atom_site_label
_atom_site_type_symbol
_atom_type_description
_atom_site_fract_x
_atom_site_fract_y
_atom_site_fract_z
_atom_type_partial_charge
C1    C     C_R   0.497556 0.200021 0.453273 0.548582
C2    C     C_3   0.967011 0.616570 0.626496 -0.030106
C3    C     C_1   0.251402 0.515073 0.522076 0.013386
C4    C     C_1   0.748597 0.484922 0.477919 0.013462
C5    C     C_3   0.026400 0.489746 0.667461 0.005472
C6    C     C_3   0.973600 0.510226 0.332489 0.005501
C7    C     C_3   0.083691 0.513386 0.514463 0.030803
C8    C     C_3   0.916309 0.486592 0.485491 0.030868
C9    C     C_1   0.175907 0.519869 0.526985 0.040184
C10   C     C_1   0.824092 0.480119 0.472996 0.040353
C11   C     C_R   0.077969 0.260569 0.235303 0.020477
C12   C     C_R   0.502444 0.799979 0.546727 0.548581
C13   C     C_R   0.053413 0.101404 0.200750 -0.097391
C14   C     C_R   0.100023 0.987245 0.086898 -0.076396
C15   C     C_R   0.170205 0.030995 0.000861 -0.080273
C16   C     C_R   0.194130 0.189502 0.029680 -0.115802
C17   C     C_R   0.148522 0.303424 0.146467 -0.099530
C18   C     C_R   0.922033 0.739412 0.764653 0.020457
C19   C     C_R   0.946563 0.898583 0.799152 -0.097365
C20   C     C_R   0.899946 0.012736 0.912993 -0.076383
C21   C     C_R   0.829785 0.968970 0.999087 -0.080290
C22   C     C_R   0.805888 0.810459 0.970328 -0.115741
C23   C     C_R   0.340411 0.504533 0.506446 0.549059
C24   C     C_R   0.851500 0.696546 0.853536 -0.099553
C25   C     C_2   0.947128 0.208897 0.569263 0.200168
C26   C     C_2   0.052870 0.791070 0.430651 0.200253
C27   C     C_2   0.937560 0.525930 0.152818 0.201531
C28   C     C_2   0.062441 0.473959 0.847097 0.201492
C29   C     C_R   0.659589 0.495466 0.493554 0.549054
C30   C     C_2   0.496335 0.031868 0.427730 -0.141906
C31   C     C_2   0.503665 0.968132 0.572270 -0.141907
C32   C     C_3   0.975125 0.360343 0.528030 -0.005691
C33   C     C_3   0.024874 0.639634 0.471915 -0.005643
C34   C     C_3   0.032990 0.383408 0.373458 -0.030113
Cu1   Cu    Cu3+1 0.509330 0.517380 0.684380 0.982514
Cu2   Cu    Cu3+1 0.490670 0.482620 0.315620 0.982519
H1    H     H_    0.489370 0.960024 0.288553 0.136733
H2    H     H_    0.003131 0.934886 0.743076 0.117735
H3    H     H_    0.919718 0.134989 0.937538 0.185840
H4    H     H_    0.794596 0.057597 0.089265 0.157961
H5    H     H_    0.751856 0.775667 0.037826 0.128298
H6    H     H_    0.831535 0.574656 0.833169 0.177730
H7    H     H_    0.994715 0.133321 0.604895 0.082308
H8    H     H_    0.005284 0.866638 0.394993 0.082337
H9    H     H_    0.954041 0.629289 0.104476 0.125891
H10   H     H_    0.046149 0.370367 0.895134 0.125583
H11   H     H_    0.510630 0.039976 0.711447 0.136734
H12   H     H_    0.434690 0.380342 0.950805 0.239009
H13   H     H_    0.565310 0.619658 0.049195 0.239019
H14   H     H_    0.996833 0.065107 0.256791 0.117776
H15   H     H_    0.080223 0.864998 0.062301 0.185899
H16   H     H_    0.205386 0.942360 0.910675 0.157932
H17   H     H_    0.248177 0.224284 0.962218 0.128251
H18   H     H_    0.168498 0.425312 0.166843 0.177723
N1    N     N_2   0.476600 0.456420 0.038510 -0.254459
N2    N     N_2   0.523400 0.543580 0.961490 -0.254451
O1    O     O_R   0.506070 0.286130 0.619780 -0.506079
O2    O     O_2   0.127768 0.829964 0.438217 -0.500912
O3    O     O_2   0.889755 0.423711 0.061532 -0.544050
O4    O     O_2   0.110055 0.576345 0.938671 -0.544183
O5    O     O_R   0.493930 0.713870 0.380220 -0.506081
O6    O     O_R   0.490300 0.256770 0.308360 -0.498208
O7    O     O_R   0.509700 0.743230 0.691640 -0.498210
O8    O     O_R   0.386960 0.514660 0.655680 -0.499305
O9    O     O_R   0.613040 0.485340 0.344320 -0.499279
O10   O     O_R   0.371190 0.485310 0.344260 -0.493615
O11   O     O_R   0.628810 0.514690 0.655740 -0.493611
O12   O     O_2   0.872230 0.170000 0.561690 -0.500941

loop_
_geom_bond_atom_site_label_1
_geom_bond_atom_site_label_2
_ccdc_geom_bond_type
H12   N1    S    
C6    C8    S    
N1    N2    D    
C5    C7    S    
Cu1   O8    S    
C3    C9    T    
C19   H2    S    
C1    O1    A    
C2    C18   S    
C5    C28   S    
C7    C33   S    
C26   C33   S    
C3    C23   S    
C6    C27   S    
C14   C15   A    
C6    C33   S    
Cu1   O11   S    
Cu1   O1    S    
C5    C32   S    
C28   H10   S    
C1    O6    A    
C25   H7    S    
C25   C32   S    
C8    C32   S    
C20   H3    S    
C26   H8    S    
Cu2   N1    S    
C27   O3    D    
C15   H16   S    
C16   H17   S    
C14   H15   S    
C12   O5    A    
C26   O2    D    
C27   H9    S    
C16   C17   A    
C25   O12   D    
C29   O9    A    
C23   O10   A    
C1    C30   S    
C31   H11   S    
Cu2   O10   S    
C28   O4    D    
C12   C31   S    
C30   C31   D    
C7    C34   S    
Cu2   O6    S    
C22   H5    S    
C6    C34   S    
C4    C10   T    
C15   C16   A    
C2    C5    S    
H13   N2    S    
C29   O11   A    
C11   C13   A    
C13   H14   S    
C24   H6    S    
C20   C21   A    
C2    C33   S    
C18   C24   A    
C8    C10   S    
C18   C19   A    
C22   C24   A    
C2    C8    S    
C7    C9    S    
C12   O7    A    
Cu2   O9    S    
C23   O8    A    
Cu1   O7    S    
C13   C14   A    
Cu1   N2    S    
C21   C22   A    
C17   H18   S    
C11   C34   S    
C11   C17   A    
C19   C20   A    
C30   H1    S    
C32   C34   S    
C4    C29   S    
Cu2   O5    S    
Cu1   Cu2   S    
C21   H4    S    
