data_mof_unit_38482.cif
_audit_creation_date              2012-12-10T20:41:47-0500
_audit_creation_method            fapswitch 2.2
_symmetry_space_group_name_H-M    P1
_symmetry_Int_Tables_number       1
_space_group_crystal_system       triclinic
_cell_length_a                    14.88073
_cell_length_b                    15.388762
_cell_length_c                    9.885772
_cell_angle_alpha                 89.993219
_cell_angle_beta                  88.148935
_cell_angle_gamma                 90.289943
_cell_volume                      2262.59198288

loop_
_atom_site_label
_atom_site_type_symbol
_atom_type_description
_atom_site_fract_x
_atom_site_fract_y
_atom_site_fract_z
_atom_type_partial_charge
C1    C     C_R   0.386271 0.874329 0.500685 0.942891
C2    C     C_R   0.384504 0.124133 0.500670 0.949567
C3    C     C_R   0.886271 0.374329 0.500684 0.942893
C4    C     C_R   0.884503 0.624132 0.500671 0.949560
C5    C     C_3   0.261785 0.193767 0.746964 -0.168997
C6    C     C_3   0.279942 0.786724 0.756508 -0.172149
C7    C     C_3   0.761772 0.693757 0.746957 -0.169021
C8    C     C_3   0.779968 0.286699 0.756521 -0.172115
C9    C     C_R   0.427530 0.030178 0.075385 0.120212
C10   C     C_R   0.927528 0.530175 0.075385 0.120206
C11   C     C_R   0.576394 0.983873 0.068253 -0.089046
C12   C     C_R   0.076396 0.483879 0.068253 -0.089039
C13   C     C_R   0.576814 0.985559 0.924273 0.807967
C14   C     C_R   0.076815 0.485566 0.924273 0.807985
C15   C     C_R   0.426967 0.028854 0.933295 -0.101320
C16   C     C_R   0.926965 0.528850 0.933294 -0.101288
C17   C     C_3   0.333275 0.994104 0.935956 -0.600010
C18   C     C_3   0.833276 0.494094 0.935954 -0.600017
C19   C     C_3   0.333316 0.998390 0.088572 1.156099
C20   C     C_3   0.833315 0.498381 0.088570 1.156095
C21   C     C_R   0.622753 0.117638 0.498425 0.951674
C22   C     C_R   0.621479 0.881310 0.498376 0.951447
C23   C     C_R   0.122752 0.617639 0.498424 0.951658
C24   C     C_R   0.121479 0.381311 0.498376 0.951437
C25   C     C_R   0.297862 0.237061 0.621193 -0.095015
C26   C     C_R   0.308331 0.753185 0.620082 -0.093683
C27   C     C_R   0.797854 0.737055 0.621195 -0.095018
C28   C     C_R   0.808338 0.253178 0.620079 -0.093695
C29   C     C_R   0.332822 0.202688 0.500397 -0.348107
C30   C     C_R   0.338578 0.792605 0.500139 -0.349861
C31   C     C_R   0.832820 0.702686 0.500401 -0.348102
C32   C     C_R   0.838579 0.292604 0.500135 -0.349846
C33   C     C_R   0.314406 0.245042 0.377691 0.591470
C34   C     C_R   0.319591 0.750692 0.377161 0.606986
C35   C     C_R   0.814408 0.745044 0.377700 0.591475
C36   C     C_R   0.819588 0.250695 0.377156 0.606996
C37   C     C_R   0.746405 0.806469 0.375676 0.569254
C38   C     C_R   0.749952 0.190049 0.374721 0.560342
C39   C     C_R   0.246404 0.306468 0.375668 0.569241
C40   C     C_R   0.249955 0.690046 0.374723 0.560350
C41   C     C_R   0.696791 0.824421 0.495872 -0.391492
C42   C     C_R   0.701792 0.170558 0.495964 -0.388684
C43   C     C_R   0.196793 0.324423 0.495871 -0.391502
C44   C     C_R   0.201788 0.670562 0.495963 -0.388686
C45   C     C_R   0.727272 0.793415 0.617948 0.039569
C46   C     C_R   0.737954 0.196138 0.617599 0.012502
C47   C     C_R   0.227281 0.293424 0.617950 0.039563
C48   C     C_R   0.237940 0.696150 0.617599 0.012539
C49   C     C_3   0.679303 0.751753 0.737298 0.809673
C50   C     C_3   0.698846 0.225412 0.751453 0.814527
C51   C     C_3   0.179317 0.251767 0.737315 0.809677
C52   C     C_3   0.198809 0.725454 0.751421 0.814509
H1    H     H_    0.248046 0.123713 0.730726 0.154789
H2    H     H_    0.261535 0.856374 0.752387 0.157309
H3    H     H_    0.748040 0.623702 0.730719 0.154796
H4    H     H_    0.761542 0.356345 0.752419 0.157298
H5    H     H_    0.637724 0.969687 0.119483 0.239611
H6    H     H_    0.137727 0.469698 0.119483 0.239608
H7    H     H_    0.283227 0.037414 0.892438 0.200163
H8    H     H_    0.331792 0.927594 0.898731 0.203144
H9    H     H_    0.783225 0.537400 0.892433 0.200162
H10   H     H_    0.831796 0.427582 0.898735 0.203148
N1    N     N_R   0.499140 0.000000 0.142800 -0.162545
N2    N     N_R   0.999140 0.500000 0.142800 -0.162546
N3    N     N_R   0.499160 0.000000 0.857150 -0.163001
N4    N     N_R   0.999160 0.500000 0.857150 -0.162993
O1    O     O_R   0.408400 0.908380 0.614690 -0.646344
O2    O     O_R   0.408400 0.091620 0.614690 -0.636988
O3    O     O_R   0.908400 0.408380 0.614690 -0.646348
O4    O     O_R   0.908400 0.591620 0.614690 -0.636986
O5    O     O_R   0.408370 0.908370 0.385350 -0.513254
O6    O     O_R   0.408370 0.091630 0.385350 -0.543316
O7    O     O_R   0.908370 0.408370 0.385350 -0.513261
O8    O     O_R   0.908370 0.591630 0.385350 -0.543314
O9    O     O_R   0.591610 0.091610 0.614650 -0.587303
O10   O     O_R   0.591610 0.908390 0.614650 -0.564865
O11   O     O_R   0.091610 0.591610 0.614650 -0.587260
O12   O     O_R   0.091610 0.408390 0.614650 -0.564889
O13   O     O_R   0.591590 0.091600 0.385310 -0.559971
O14   O     O_R   0.591590 0.908400 0.385310 -0.570478
O15   O     O_R   0.091590 0.591600 0.385310 -0.559972
O16   O     O_R   0.091590 0.408400 0.385310 -0.570478
Zn1   Zn    Zn3+2 0.500010 0.000000 0.653130 1.016746
Zn2   Zn    Zn3+2 0.000010 0.500000 0.653130 1.016761
Zn3   Zn    Zn3+2 0.499980 0.000000 0.346870 1.119417
Zn4   Zn    Zn3+2 0.999980 0.500000 0.346870 1.119417
F1    F     F_    0.356973 0.223417 0.258865 -0.587365
F2    F     F_    0.364073 0.771030 0.259382 -0.564241
F3    F     F_    0.856980 0.723424 0.258881 -0.587371
F4    F     F_    0.864068 0.271034 0.259377 -0.564240
F5    F     F_    0.275323 0.059969 0.143379 -0.633565
F6    F     F_    0.324018 0.917910 0.148804 -0.614907
F7    F     F_    0.775317 0.559957 0.143375 -0.633578
F8    F     F_    0.824021 0.417901 0.148802 -0.614888
F9    F     F_    0.726007 0.843179 0.255653 -0.589771
F10   F     F_    0.726899 0.155620 0.254090 -0.577280
F11   F     F_    0.226003 0.343174 0.255636 -0.589752
F12   F     F_    0.226910 0.655610 0.254095 -0.577284
F13   F     F_    0.666618 0.807599 0.845735 -0.584534
F14   F     F_    0.697867 0.159799 0.847568 -0.584184
F15   F     F_    0.166645 0.307619 0.845752 -0.584525
F16   F     F_    0.197789 0.659857 0.847562 -0.584214
C53   C     C_3   0.593111 0.702286 0.703409 -0.928737
H11   H     H_    0.603972 0.660488 0.612703 0.210795
H12   H     H_    0.571743 0.660685 0.790512 0.263843
H13   H     H_    0.538253 0.748672 0.683571 0.253390
C54   C     C_3   0.608883 0.273579 0.746066 -0.904396
H14   H     H_    0.608056 0.318200 0.657685 0.200844
H15   H     H_    0.552115 0.227016 0.739754 0.264309
H16   H     H_    0.598379 0.312249 0.840014 0.260108
C55   C     C_3   0.093116 0.202302 0.703447 -0.928754
H17   H     H_    0.103967 0.160493 0.612748 0.210799
H18   H     H_    0.071748 0.160713 0.790566 0.263849
H19   H     H_    0.038260 0.248690 0.683603 0.253391
C56   C     C_3   0.108861 0.773639 0.745962 -0.904452
H20   H     H_    0.108084 0.818278 0.657606 0.200857
H21   H     H_    0.052089 0.727089 0.739561 0.264282
H22   H     H_    0.098322 0.812288 0.839919 0.260140
C57   C     C_3   0.321072 0.215215 0.866954 -0.571324
H23   H     H_    0.289294 0.189875 0.962105 0.293027
H24   H     H_    0.388350 0.185953 0.850652 0.222100
H25   H     H_    0.331253 0.286467 0.877913 0.283151
C58   C     C_3   0.348263 0.762026 0.863175 -0.589846
H26   H     H_    0.319377 0.775206 0.966019 0.307063
H27   H     H_    0.366403 0.692118 0.856467 0.273831
H28   H     H_    0.410879 0.800789 0.847657 0.220946
C59   C     C_3   0.821048 0.715207 0.866957 -0.571313
H29   H     H_    0.789263 0.689868 0.962101 0.293019
H30   H     H_    0.888327 0.685945 0.850671 0.222123
H31   H     H_    0.831227 0.786458 0.877913 0.283156
C60   C     C_3   0.848314 0.262010 0.863155 -0.589887
H32   H     H_    0.819430 0.275141 0.966012 0.307096
H33   H     H_    0.866501 0.192116 0.856387 0.273783
H34   H     H_    0.910903 0.300814 0.847655 0.220934
F17   F     F_    0.655214 0.974414 0.853263 -0.552168
F18   F     F_    0.155217 0.474432 0.853262 -0.552187

loop_
_geom_bond_atom_site_label_1
_geom_bond_atom_site_label_2
_ccdc_geom_bond_type
C44   C48   A    
C20   F7    S    
O1    Zn1   S    
C13   F17   S    
C55   H17   S    
C22   O10   A    
C60   H34   S    
C8    H4    S    
C4    O4    A    
O6    Zn3   S    
C58   H26   S    
C13   N3    A    
C28   C46   A    
C1    O5    A    
C5    C57   S    
C2    C29   S    
C34   C40   A    
C32   C36   A    
C5    H1    S    
C3    O3    A    
C38   C42   A    
C2    O2    A    
C40   F12   S    
C12   N2    A    
C39   F11   S    
C22   C41   S    
C56   H20   S    
C15   N3    A    
C29   C33   A    
C7    C27   S    
C37   F9    S    
C42   C46   A    
C24   O16   A    
C19   F6    S    
C1    O1    A    
O5    Zn3   S    
C9    C19   S    
C10   C20   S    
C56   H21   S    
C34   F2    S    
C54   H14   S    
C7    H3    S    
C53   H13   S    
O4    Zn2   S    
C25   C47   A    
C40   C44   A    
C4    O8    A    
O15   Zn4   S    
C26   C48   A    
C12   H6    S    
C27   C45   A    
N1    Zn3   S    
C37   C41   A    
C54   H15   S    
C6    C58   S    
C6    H2    S    
C2    O6    A    
O10   Zn1   S    
N2    Zn4   S    
C46   C50   S    
C57   H24   S    
C25   C29   A    
C30   C34   A    
C27   C31   A    
C28   C32   A    
C19   F5    S    
C7    C49   S    
C55   H18   S    
C18   H10   S    
C58   H28   S    
C39   C43   A    
O11   Zn2   S    
O16   Zn4   S    
C23   O11   A    
C23   C44   S    
N3    Zn1   S    
C59   H30   S    
O14   Zn3   S    
C49   F13   S    
C45   C49   S    
C56   H22   S    
C52   F16   S    
C21   O13   A    
C8    C60   S    
C14   N4    A    
C53   H12   S    
C33   C39   A    
O8    Zn4   S    
C17   H7    S    
C5    C25   S    
C35   F3    S    
C24   O12   A    
C12   C14   A    
C26   C30   A    
C50   C54   S    
C8    C28   S    
C54   H16   S    
C31   C35   A    
C16   N4    A    
C59   H29   S    
C8    C50   S    
O13   Zn3   S    
C52   C56   S    
C36   F4    S    
C15   C17   S    
C20   F8    S    
C51   C55   S    
C23   O15   A    
C35   C37   A    
C9    N1    A    
O2    Zn1   S    
C57   H25   S    
C10   N2    A    
C60   H33   S    
C49   C53   S    
C47   C51   S    
C57   H23   S    
C18   H9    S    
C51   F15   S    
C21   O9    A    
C50   F14   S    
C6    C52   S    
C36   C38   A    
C33   F1    S    
C59   H31   S    
C22   O14   A    
O3    Zn2   S    
C10   C16   A    
C11   C13   A    
O9    Zn1   S    
C6    C26   S    
C14   F18   S    
C1    C30   S    
C17   C19   S    
C55   H19   S    
C18   C20   S    
C9    C15   A    
C3    C32   S    
C3    O7    A    
O7    Zn4   S    
C4    C31   S    
C58   H27   S    
C17   H8    S    
N4    Zn2   S    
C21   C42   S    
O12   Zn2   S    
C48   C52   S    
C16   C18   S    
C38   F10   S    
C53   H11   S    
C24   C43   S    
C41   C45   A    
C5    C51   S    
C7    C59   S    
C11   H5    S    
C11   N1    A    
C43   C47   A    
C60   H32   S    
