data_mof_unit_5819.cif
_audit_creation_date              2012-12-10T17:51:31-0500
_audit_creation_method            fapswitch 2.2
_symmetry_space_group_name_H-M    P1
_symmetry_Int_Tables_number       1
_space_group_crystal_system       triclinic
_cell_length_a                    9.971176
_cell_length_b                    10.748332
_cell_length_c                    16.814544
_cell_angle_alpha                 91.041238
_cell_angle_beta                  82.82463
_cell_angle_gamma                 91.682815
_cell_volume                      1786.99847816

loop_
_atom_site_label
_atom_site_type_symbol
_atom_type_description
_atom_site_fract_x
_atom_site_fract_y
_atom_site_fract_z
_atom_type_partial_charge
C1    C     C_R   0.503903 0.738487 0.490858 0.917780
C2    C     C_R   0.545880 0.479758 0.260613 -0.176219
C3    C     C_R   0.300459 0.859807 0.406311 -0.214764
C4    C     C_R   0.478296 0.497011 0.653136 0.936235
C5    C     C_R   0.211377 0.923921 0.366259 -0.193791
C6    C     C_R   0.215392 0.053055 0.370063 0.428559
C7    C     C_R   0.266315 0.109995 0.436661 0.237513
C8    C     C_R   0.384658 0.056181 0.458652 -0.039419
C9    C     C_R   0.396177 0.926292 0.448127 0.012246
C10   C     C_R   0.511146 0.869063 0.470825 -0.161081
C11   C     C_R   0.630202 0.941090 0.474896 0.326329
C12   C     C_R   0.359048 0.421754 0.786554 0.287598
C13   C     C_R   0.617769 0.066522 0.489567 -0.206670
C14   C     C_R   0.495192 0.124948 0.485749 -0.135837
C15   C     C_R   0.843477 0.653851 0.609356 -0.051052
C16   C     C_R   0.497993 0.259284 0.496637 0.962125
C17   C     C_R   0.903990 0.725465 0.665473 -0.118574
C18   C     C_R   0.042323 0.722548 0.666843 -0.127964
C19   C     C_R   0.121050 0.648860 0.611667 -0.093859
C20   C     C_R   0.062802 0.572082 0.555696 0.165402
C21   C     C_R   0.918758 0.572890 0.555349 0.104197
C22   C     C_R   0.940805 0.436258 0.442903 0.475464
C23   C     C_R   0.536411 0.327445 0.153263 0.008665
C24   C     C_R   0.082693 0.436015 0.444761 -0.092058
C25   C     C_R   0.522617 0.503027 0.346773 0.959989
C26   C     C_R   0.460117 0.496234 0.740690 -0.207030
C27   C     C_R   0.548338 0.573338 0.778857 -0.215336
C28   C     C_R   0.543227 0.573088 0.861019 -0.109898
C29   C     C_R   0.445035 0.500979 0.906537 0.009617
C30   C     C_R   0.343719 0.434652 0.871191 0.383058
C31   C     C_R   0.526322 0.356610 0.234669 -0.123106
C32   C     C_R   0.600379 0.570114 0.204281 0.441322
C33   C     C_R   0.615823 0.537909 0.123369 -0.268892
C34   C     C_R   0.574115 0.420539 0.097847 -0.103535
C35   C     C_2   0.460223 0.487183 0.990423 -0.197726
C36   C     C_2   0.546235 0.406158 0.015231 0.377662
H1    H     H_    0.651426 0.607115 0.078964 0.203817
H2    H     H_    0.357340 0.982002 0.209545 0.385376
H3    H     H_    0.122133 0.936697 0.549922 0.370621
H4    H     H_    0.708331 0.119589 0.499652 0.252022
H5    H     H_    0.855230 0.441725 0.239553 0.378057
H6    H     H_    0.739139 0.669678 0.607171 0.185102
H7    H     H_    0.843628 0.786742 0.706367 0.172417
H8    H     H_    0.089617 0.780788 0.709218 0.192451
H9    H     H_    0.146989 0.385710 0.399903 0.216849
H10   H     H_    0.563212 0.868278 0.304976 0.386150
H11   H     H_    0.797240 0.258339 0.019652 0.376873
H12   H     H_    0.500177 0.283745 0.277908 0.207058
H13   H     H_    0.093208 0.419956 0.050344 0.398498
H14   H     H_    0.508424 0.235063 0.133466 0.243925
H15   H     H_    0.055496 0.300831 0.720226 0.418362
H16   H     H_    0.227277 0.657104 0.613136 0.196106
H17   H     H_    0.410507 0.554970 0.032079 0.195493
H18   H     H_    0.618571 0.626641 0.889292 0.184295
H19   H     H_    0.624781 0.631118 0.744779 0.162332
H20   H     H_    0.821387 0.992807 0.334316 0.388478
H21   H     H_    0.308835 0.762314 0.390597 0.231692
H22   H     H_    0.162180 0.875222 0.320393 0.216208
N1    N     N_R   0.857140 0.501200 0.500750 -0.171643
N2    N     N_R   0.142740 0.501280 0.500770 -0.143402
O1    O     O_R   0.385310 0.683220 0.500000 -0.675189
O2    O     O_2   0.805595 0.765030 0.404431 -0.208560
O3    O     O_3   0.875712 0.994358 0.379809 -0.453829
O4    O     O_2   0.120868 0.091045 0.230834 -0.187225
O5    O     O_2   0.252580 0.262549 0.284305 -0.299126
O6    O     O_3   0.380171 0.069154 0.223966 -0.574390
O7    O     O_2   0.153783 0.249981 0.563156 -0.202872
O8    O     O_2   0.000322 0.134127 0.487321 -0.238443
O9    O     O_3   0.134627 0.013103 0.582220 -0.481574
O10   O     O_2   0.991076 0.286058 0.313924 -0.217512
O11   O     O_2   0.757857 0.291376 0.369813 -0.308303
O12   O     O_R   0.614640 0.683250 0.500010 -0.591367
O13   O     O_3   0.864608 0.483947 0.291513 -0.498815
O14   O     O_2   0.796336 0.724712 0.243369 -0.182351
O15   O     O_2   0.637728 0.807447 0.159639 -0.280084
O16   O     O_3   0.555111 0.776538 0.309665 -0.619352
O17   O     O_2   0.530930 0.212008 0.914153 -0.194825
O18   O     O_2   0.725119 0.355570 0.886470 -0.260553
O19   O     O_3   0.723018 0.202924 0.004628 -0.472901
O20   O     O_2   0.076731 0.369687 0.890784 -0.218696
O21   O     O_2   0.228626 0.245016 0.959406 -0.190210
O22   O     O_3   0.167118 0.464490 0.016443 -0.552059
O23   O     O_R   0.371780 0.500010 0.615800 -0.582395
O24   O     O_2   0.351473 0.252861 0.666620 -0.261728
O25   O     O_2   0.227144 0.196695 0.794570 -0.186570
O26   O     O_3   0.127027 0.366941 0.712407 -0.494723
O27   O     O_R   0.601110 0.500030 0.615800 -0.647750
O28   O     O_R   0.385360 0.316750 0.499990 -0.562945
O29   O     O_R   0.614690 0.316780 0.500000 -0.588770
O30   O     O_R   0.398890 0.499970 0.384200 -0.634352
O31   O     O_R   0.628220 0.499990 0.384200 -0.512282
O32   O     O_2   0.871817 0.889521 0.517252 -0.283294
S1    S     S_3+6 0.797774 0.890648 0.444946 0.071806
S2    S     S_3+6 0.238408 0.123875 0.275907 0.050358
S3    S     S_3+6 0.135391 0.131096 0.517768 0.097402
S4    S     S_3+6 0.885229 0.368876 0.354773 0.090447
S5    S     S_3+6 0.650922 0.723238 0.228585 0.052763
S6    S     S_3+6 0.632017 0.292726 0.951767 0.093376
S7    S     S_3+6 0.199929 0.373937 0.934051 0.105515
S8    S     S_3+6 0.266681 0.303579 0.739324 0.144463
Zn1   Zn    Zn3+2 0.346870 0.499980 0.499990 1.027261
Zn2   Zn    Zn3+2 0.653130 0.500020 0.500010 1.085569

loop_
_geom_bond_atom_site_label_1
_geom_bond_atom_site_label_2
_ccdc_geom_bond_type
O29   Zn2   S    
C35   H17   S    
O22   S7    S    
O19   S6    S    
O1    Zn1   S    
C35   C36   D    
H11   O19   S    
H10   O16   S    
O28   Zn1   S    
C7    C8    A    
C4    O27   A    
C25   O30   A    
C5    H22   S    
C24   H9    S    
C22   C24   A    
C28   C29   A    
C21   N1    A    
C5    C6    A    
C27   H19   S    
O15   S5    D    
C32   S5    S    
C2    C32   A    
C18   C19   A    
C13   H4    S    
C19   H16   S    
H2    O6    S    
C8    C9    A    
C6    S2    S    
O18   S6    D    
C20   N2    A    
O26   S8    S    
C9    C10   A    
O6    S2    S    
C11   S1    S    
C16   O29   A    
C13   C14   A    
O7    S3    D    
H15   O26   S    
C33   C34   A    
O14   S5    D    
C25   O31   A    
O8    S3    D    
C1    O12   A    
C22   N1    A    
C28   H18   S    
C23   H14   S    
O11   S4    D    
O21   S7    D    
C3    C5    A    
O16   S5    S    
C30   S7    S    
C33   H1    S    
C12   C26   A    
C2    C31   A    
O24   S8    D    
H13   O22   S    
O10   S4    D    
C17   H7    S    
O30   Zn1   S    
C29   C30   A    
C3    C9    A    
C18   H8    S    
O27   Zn2   S    
C24   N2    A    
C23   C34   A    
C17   C18   A    
H3    O9    S    
H20   O3    S    
O17   S6    D    
C3    H21   S    
O5    S2    D    
C31   H12   S    
O20   S7    D    
C26   C27   A    
C14   C16   S    
O31   Zn2   S    
N2    Zn1   S    
C15   C17   A    
C29   C35   S    
C8    C14   A    
O23   Zn1   S    
C12   C30   A    
N1    Zn2   S    
C22   S4    S    
C1    C10   S    
C15   H6    S    
O9    S3    S    
C1    O1    A    
C4    C26   S    
C6    C7    A    
C7    S3    S    
O3    S1    S    
C32   C33   A    
C19   C20   A    
O4    S2    D    
O25   S8    D    
C11   C13   A    
C4    O23   A    
O12   Zn2   S    
O32   S1    D    
C2    C25   S    
C34   C36   S    
C12   S8    S    
C10   C11   A    
H5    O13   S    
C15   C21   A    
C20   C21   A    
O2    S1    D    
C27   C28   A    
C16   O28   A    
C36   S6    S    
O13   S4    S    
C23   C31   A    
