data_mof_unit_49394.cif
_audit_creation_date              2012-12-10T19:44:38-0500
_audit_creation_method            fapswitch 2.2
_symmetry_space_group_name_H-M    P1
_symmetry_Int_Tables_number       1
_space_group_crystal_system       triclinic
_cell_length_a                    8.612675
_cell_length_b                    14.913852
_cell_length_c                    14.213233
_cell_angle_alpha                 88.93555
_cell_angle_beta                  98.166892
_cell_angle_gamma                 90.807264
_cell_volume                      1806.71584922

loop_
_atom_site_label
_atom_site_type_symbol
_atom_type_description
_atom_site_fract_x
_atom_site_fract_y
_atom_site_fract_z
_atom_type_partial_charge
C1    C     C_R   0.499391 0.327894 0.500786 0.939239
C2    C     C_R   0.497548 0.672131 0.499119 0.915695
C3    C     C_R   0.369211 0.466683 0.095158 0.552324
C4    C     C_R   0.529393 0.579800 0.895563 0.579287
C5    C     C_R   0.374976 0.464802 0.194681 -0.263525
C6    C     C_R   0.533557 0.577106 0.796933 -0.192654
C7    C     C_R   0.621714 0.539126 0.213693 0.528077
C8    C     C_R   0.459494 0.423781 0.794450 0.497164
C9    C     C_R   0.626384 0.535996 0.114199 0.279616
C10   C     C_R   0.464344 0.421998 0.894630 0.322132
C11   C     C_R   0.496088 0.502242 0.053040 -0.069338
C12   C     C_R   0.495443 0.501575 0.946537 -0.090800
C13   C     C_R   0.201655 0.499165 0.475614 0.858156
C14   C     C_R   0.798354 0.500078 0.524457 0.900848
C15   C     C_2   0.038032 0.491534 0.463219 0.289613
C16   C     C_2   0.962125 0.506164 0.537233 0.224358
C17   C     C_R   0.579741 0.089412 0.567733 -0.344662
C18   C     C_R   0.368158 0.902062 0.544345 -0.311917
C19   C     C_R   0.589744 0.182796 0.570532 0.544109
C20   C     C_R   0.373947 0.809184 0.544479 0.524043
C21   C     C_R   0.490635 0.231999 0.502130 -0.181653
C22   C     C_R   0.485409 0.767902 0.496929 -0.199152
C23   C     C_R   0.378428 0.190221 0.435926 -0.392325
C24   C     C_R   0.585120 0.818285 0.446766 -0.404708
C25   C     C_R   0.367703 0.097276 0.434217 0.580653
C26   C     C_R   0.580566 0.911545 0.447282 0.570720
C27   C     C_R   0.468643 0.047951 0.500860 0.011114
C28   C     C_R   0.470049 0.952101 0.495642 0.002291
H1    H     H_    0.660640 0.048617 0.615125 0.162978
H2    H     H_    0.285578 0.935099 0.582676 0.177041
H3    H     H_    0.298786 0.229897 0.386384 0.187976
H4    H     H_    0.667907 0.785103 0.409352 0.160221
H5    H     H_    0.277472 0.436204 0.225718 0.212044
H6    H     H_    0.561908 0.637713 0.759812 0.214581
N1    N     N_R   0.500000 0.499980 0.252470 -0.175417
N2    N     N_R   0.500000 0.500020 0.747530 -0.174626
O1    O     O_R   0.500010 0.369070 0.579480 -0.543234
O2    O     O_R   0.499990 0.630930 0.420520 -0.627582
O3    O     O_R   0.500010 0.369060 0.420520 -0.623416
O4    O     O_R   0.499990 0.630940 0.579480 -0.586236
O5    O     O_R   0.271750 0.500000 0.560890 -0.576937
O6    O     O_R   0.728250 0.500000 0.439110 -0.533979
O7    O     O_R   0.271750 0.499990 0.401930 -0.602620
O8    O     O_R   0.728250 0.500010 0.598070 -0.583737
Zn1   Zn    Zn3+2 0.500000 0.500010 0.606140 1.049409
Zn2   Zn    Zn3+2 0.500000 0.499990 0.393860 1.011819
F1    F     F_    0.966129 0.463886 0.376708 -0.640787
F2    F     F_    0.034279 0.532250 0.624337 -0.667652
O9    O     O_3   0.705832 0.227560 0.630635 -0.599846
C29   C     C_3   0.713000 0.195746 0.725285 -0.239348
H7    H     H_    0.594418 0.184541 0.746467 0.182886
H8    H     H_    0.773804 0.247201 0.772985 0.188294
H9    H     H_    0.783578 0.133745 0.736466 0.147665
O10   O     O_3   0.275739 0.759004 0.594430 -0.570068
C30   C     C_3   0.129796 0.748699 0.536442 -0.254312
H10   H     H_    0.050646 0.708518 0.576234 0.229857
H11   H     H_    0.142184 0.712012 0.470431 0.131601
H12   H     H_    0.073173 0.814559 0.518565 0.132158
O11   O     O_3   0.254353 0.053983 0.371665 -0.627087
C31   C     C_3   0.292516 0.063355 0.278695 -0.272000
H13   H     H_    0.413667 0.040129 0.274538 0.196804
H14   H     H_    0.210668 0.020733 0.230868 0.194592
H15   H     H_    0.277864 0.133697 0.251992 0.169548
O12   O     O_3   0.674626 0.964501 0.396470 -0.614882
C32   C     C_3   0.834541 0.946449 0.426671 -0.284033
H16   H     H_    0.905689 0.002742 0.402674 0.231842
H17   H     H_    0.870097 0.884672 0.393264 0.152710
H18   H     H_    0.862643 0.941597 0.505615 0.146874
F3    F     F_    0.238883 0.434865 0.040415 -0.646218
F4    F     F_    0.555649 0.659262 0.940424 -0.610246
O13   O     O_3   0.745072 0.576933 0.273052 -0.528641
C33   C     C_3   0.740974 0.671019 0.261620 -0.195781
H19   H     H_    0.824399 0.700694 0.319711 0.145320
H20   H     H_    0.622322 0.698070 0.265886 0.147290
H21   H     H_    0.780537 0.692826 0.193737 0.212235
O14   O     O_3   0.423392 0.346015 0.744682 -0.586457
C34   C     C_3   0.259168 0.333522 0.730422 -0.191254
H22   H     H_    0.229835 0.277579 0.680377 0.162734
H23   H     H_    0.197179 0.393926 0.698138 0.209222
H24   H     H_    0.215102 0.314598 0.797925 0.198605
O15   O     O_3   0.755411 0.569966 0.076948 -0.563799
C35   C     C_3   0.871498 0.503566 0.084431 -0.159706
H25   H     H_    0.833395 0.446892 0.036622 0.133856
H26   H     H_    0.904004 0.478874 0.158942 0.202754
H27   H     H_    0.978650 0.533488 0.061172 0.230521
O16   O     O_3   0.430680 0.342636 0.939841 -0.540277
C36   C     C_3   0.572148 0.297787 0.970814 -0.250764
H28   H     H_    0.639503 0.332095 0.032578 0.142509
H29   H     H_    0.645375 0.291036 0.912829 0.143715
H30   H     H_    0.543614 0.229098 0.994830 0.192574

loop_
_geom_bond_atom_site_label_1
_geom_bond_atom_site_label_2
_ccdc_geom_bond_type
C36   H28   S    
C1    C21   S    
C17   H1    S    
C15   F1    S    
C30   H10   S    
C16   F2    S    
C13   O5    A    
O15   C35   S    
C34   H22   S    
C31   H15   S    
C22   C24   A    
C19   C21   A    
C24   C26   A    
C7    O13   S    
C15   C16   D    
C8    O14   S    
C31   H14   S    
C8    N2    A    
C2    O2    A    
C26   O12   S    
C32   H17   S    
C5    H5    S    
C2    C22   S    
C29   H8    S    
C18   H2    S    
C4    C12   A    
C1    O1    A    
C14   O6    A    
O11   C31   S    
C33   H21   S    
C4    F4    S    
C34   H23   S    
C21   C23   A    
O4    Zn1   S    
C29   H9    S    
C17   C27   A    
C18   C28   A    
O14   C34   S    
C33   H20   S    
O16   C36   S    
C6    H6    S    
C31   H13   S    
C23   H3    S    
C24   H4    S    
C19   O9    S    
C32   H18   S    
C29   H7    S    
N2    Zn1   S    
C9    C11   A    
C10   C12   A    
O3    Zn2   S    
C20   O10   S    
C20   C22   A    
O9    C29   S    
C35   H26   S    
C13   C15   S    
O6    Zn2   S    
C14   C16   S    
C30   H12   S    
C4    C6    A    
O1    Zn1   S    
C13   O7    A    
O8    Zn1   S    
C14   O8    A    
C34   H24   S    
C7    C9    A    
O10   C30   S    
C10   O16   S    
C3    F3    S    
C7    N1    A    
C33   H19   S    
C3    C5    A    
C11   C12   S    
C25   C27   A    
C35   H27   S    
C26   C28   A    
O12   C32   S    
C30   H11   S    
O13   C33   S    
C32   H16   S    
C5    N1    A    
C17   C19   A    
C6    N2    A    
C18   C20   A    
C23   C25   A    
O7    Zn2   S    
O2    Zn2   S    
C3    C11   A    
C1    O3    A    
C2    O4    A    
C8    C10   A    
C35   H25   S    
C36   H30   S    
C27   C28   S    
C36   H29   S    
O5    Zn1   S    
C25   O11   S    
N1    Zn2   S    
C9    O15   S    
