data_mof_unit_40332.cif
_audit_creation_date              2012-12-11T14:48:34-0500
_audit_creation_method            fapswitch 2.2
_symmetry_space_group_name_H-M    P1
_symmetry_Int_Tables_number       1
_space_group_crystal_system       triclinic
_cell_length_a                    7.234401
_cell_length_b                    19.121833
_cell_length_c                    19.037392
_cell_angle_alpha                 89.999989
_cell_angle_beta                  87.492847
_cell_angle_gamma                 90.000012
_cell_volume                      2631.01686428

loop_
_atom_site_label
_atom_site_type_symbol
_atom_type_description
_atom_site_fract_x
_atom_site_fract_y
_atom_site_fract_z
_atom_type_partial_charge
O1    O     O_R   0.350610 0.187000 0.656530 -0.518649
O2    O     O_R   0.649390 0.813000 0.343470 -0.518649
O3    O     O_R   0.149390 0.687000 0.343470 -0.518649
O4    O     O_R   0.850610 0.313000 0.656530 -0.518648
O5    O     O_R   0.655920 0.179060 0.799470 -0.539501
O6    O     O_R   0.344080 0.820940 0.200530 -0.539501
O7    O     O_R   0.844080 0.679060 0.200530 -0.539501
O8    O     O_R   0.155920 0.320940 0.799470 -0.539501
O9    O     O_R   0.826150 0.314000 0.799910 -0.531839
O10   O     O_R   0.173850 0.686000 0.200090 -0.531839
O11   O     O_R   0.673850 0.814000 0.200090 -0.531839
O12   O     O_R   0.326150 0.186000 0.799910 -0.531839
C1    C     C_R   0.485481 0.161626 0.822881 0.689584
C2    C     C_R   0.514518 0.838374 0.177119 0.689583
C3    C     C_R   0.014518 0.661625 0.177119 0.689580
C4    C     C_R   0.985481 0.338374 0.822881 0.689588
O13   O     O_R   0.680230 0.178680 0.657050 -0.534442
O14   O     O_R   0.319770 0.821320 0.342950 -0.534442
O15   O     O_R   0.819770 0.678680 0.342950 -0.534440
O16   O     O_R   0.180230 0.321320 0.657050 -0.534443
C5    C     C_R   0.514151 0.162103 0.634212 0.744820
C6    C     C_R   0.485848 0.837897 0.365788 0.744819
C7    C     C_R   0.985848 0.662103 0.365788 0.744817
C8    C     C_R   0.014152 0.337896 0.634212 0.744825
O17   O     O_3   0.504860 0.294770 0.728200 -0.375398
O18   O     O_3   0.495140 0.705230 0.271800 -0.375397
O19   O     O_3   0.995140 0.794770 0.271800 -0.375398
O20   O     O_3   0.004860 0.205230 0.728200 -0.375398
V1    V     V_3+5 0.779710 0.242290 0.728230 1.543595
V2    V     V_3+5 0.220290 0.757710 0.271770 1.543594
V3    V     V_3+5 0.720290 0.742290 0.271770 1.543595
V4    V     V_3+5 0.279710 0.257710 0.728230 1.543594
C9    C     C_1   0.027463 0.611569 0.119058 -0.094427
C10   C     C_1   0.972536 0.388431 0.880942 -0.094423
C11   C     C_1   0.472536 0.111569 0.880942 -0.094426
C12   C     C_1   0.527464 0.888431 0.119058 -0.094426
C13   C     C_2   0.063368 0.524607 0.008153 0.220543
C14   C     C_2   0.936631 0.475393 0.991847 0.220542
C15   C     C_2   0.436631 0.024607 0.991847 0.220543
C16   C     C_2   0.563369 0.975393 0.008153 0.220543
C17   C     C_1   0.959600 0.428846 0.930632 0.105966
C18   C     C_1   0.040400 0.571154 0.069368 0.105966
C19   C     C_1   0.540400 0.928846 0.069368 0.105966
C20   C     C_1   0.459600 0.071154 0.930632 0.105966
C21   C     C_R   0.008490 0.390092 0.576832 -0.180278
C22   C     C_R   0.991510 0.609907 0.423167 -0.180281
C23   C     C_R   0.491509 0.890092 0.423167 -0.180281
C24   C     C_R   0.508490 0.109907 0.576833 -0.180279
H1    H     H_    0.132820 0.600807 0.590144 0.205467
H2    H     H_    0.867170 0.399193 0.409857 0.205471
H3    H     H_    0.367167 0.100807 0.409858 0.205471
H4    H     H_    0.632829 0.899193 0.590143 0.205469
C25   C     C_R   0.076966 0.582004 0.541979 -0.103097
C26   C     C_R   0.923029 0.417996 0.458021 -0.103088
C27   C     C_R   0.423028 0.082004 0.458022 -0.103092
C28   C     C_R   0.576970 0.917996 0.541978 -0.103093
C29   C     C_R   0.055474 0.630733 0.488569 0.281640
C30   C     C_R   0.944521 0.369267 0.511431 0.281633
C31   C     C_R   0.444521 0.130733 0.511431 0.281635
C32   C     C_R   0.555478 0.869267 0.488569 0.281637
C33   C     C_R   0.952173 0.538429 0.411145 -0.104911
C34   C     C_R   0.047831 0.461570 0.588853 -0.104903
C35   C     C_R   0.547830 0.038429 0.588854 -0.104908
C36   C     C_R   0.452169 0.961571 0.411146 -0.104908
C37   C     C_R   0.969084 0.488928 0.466793 0.053479
C38   C     C_R   0.030915 0.511071 0.533207 0.053471
C39   C     C_R   0.530916 0.988928 0.533207 0.053475
C40   C     C_R   0.469083 0.011072 0.466793 0.053476
C41   C     C_2   0.096596 0.483345 0.660787 0.392322
H5    H     H_    0.193950 0.452769 0.689753 0.062513
O21   O     O_2   0.020758 0.533261 0.689795 -0.488439
C42   C     C_2   0.903424 0.516653 0.339209 0.392337
H6    H     H_    0.806100 0.547235 0.310235 0.062499
O22   O     O_2   0.979247 0.466731 0.310209 -0.488438
C43   C     C_2   0.403408 0.983346 0.339211 0.392332
H7    H     H_    0.306074 0.952765 0.310240 0.062506
O23   O     O_2   0.479229 0.033267 0.310208 -0.488440
C44   C     C_2   0.596588 0.016654 0.660789 0.392332
H8    H     H_    0.693925 0.047234 0.689759 0.062507
O24   O     O_2   0.520760 0.966735 0.689793 -0.488440
Br1   Br    Br    0.715536 0.462823 0.049957 -0.417507
Br2   Br    Br    0.284464 0.537176 0.950043 -0.417505
Br3   Br    Br    0.784464 0.962824 0.950043 -0.417506
Br4   Br    Br    0.215536 0.037176 0.049957 -0.417506
Br5   Br    Br    0.882463 0.273614 0.492271 -0.411448
Br6   Br    Br    0.117528 0.726386 0.507730 -0.411447
Br7   Br    Br    0.617531 0.773614 0.507729 -0.411447
Br8   Br    Br    0.382463 0.226386 0.492271 -0.411448

loop_
_geom_bond_atom_site_label_1
_geom_bond_atom_site_label_2
_ccdc_geom_bond_type
O1    C5    A    
C27   C31   A    
O13   V1    S    
O3    C7    A    
O15   V3    S    
C27   C40   A    
C26   C37   A    
H2    C26   S    
C8    C21   S    
C36   C40   A    
O20   V1    S    
O9    C4    A    
C15   Br4   S    
C1    C11   S    
O10   C3    A    
C2    C12   S    
O4    C8    A    
O11   C2    A    
C44   O24   D    
C21   C34   A    
C29   Br6   S    
C13   C18   S    
C41   O21   D    
C31   Br8   S    
C4    C10   S    
C23   C32   A    
C16   C19   S    
O16   C8    A    
O2    C6    A    
O14   V2    S    
O5    C1    A    
O4    V1    S    
O9    V1    S    
C5    C24   S    
O17   V4    S    
O7    C3    A    
C6    C23   S    
O11   V3    S    
O18   V3    S    
O8    C4    A    
C7    C22   S    
O12   V4    S    
O19   V2    S    
C16   Br3   S    
C10   C17   T    
C32   Br7   S    
O5    V1    S    
C35   C39   A    
C21   C30   A    
O7    V3    S    
C34   C38   A    
C22   C33   A    
C39   C40   A    
O8    V4    S    
C14   C17   S    
C42   O22   D    
C23   C36   A    
C25   C29   A    
C44   H8    S    
C24   C35   A    
O1    V4    S    
O13   C5    A    
C28   C32   A    
C34   C41   S    
O2    V3    S    
O3    V2    S    
O15   C7    A    
C43   H7    S    
C13   C14   D    
C11   C20   T    
O6    C2    A    
O10   V2    S    
C26   C30   A    
C25   C38   A    
C43   O23   D    
C33   C42   S    
O6    V2    S    
C14   Br1   S    
C13   Br2   S    
C9    C18   T    
C30   Br5   S    
C15   C16   D    
C24   C31   A    
O16   V4    S    
O14   C6    A    
C42   H6    S    
C15   C20   S    
C28   C39   A    
C22   C29   A    
H1    C25   S    
C36   C43   S    
H3    C27   S    
C41   H5    S    
C33   C37   A    
O12   C1    A    
C37   C38   A    
C12   C19   T    
C3    C9    S    
H4    C28   S    
C35   C44   S    
