data_mof_unit_29924.cif
_audit_creation_date              2013-03-05T16:06:21-0500
_audit_creation_method            fapswitch 2.2
_symmetry_space_group_name_H-M    P1
_symmetry_Int_Tables_number       1
_space_group_crystal_system       triclinic
_cell_length_a                    15.077607
_cell_length_b                    15.390596
_cell_length_c                    16.756891
_cell_angle_alpha                 90.193972
_cell_angle_beta                  99.699978
_cell_angle_gamma                 98.745045
_cell_volume                      3786.66339089

loop_
_atom_site_label
_atom_site_type_symbol
_atom_site_description
_atom_site_fract_x
_atom_site_fract_y
_atom_site_fract_z
_atom_type_partial_charge
O1    O     O_R   0.615140 0.606020 0.522930 -0.659671
O2    O     O_R   0.384860 0.393980 0.477070 -0.578724
O3    O     O_R   0.468580 0.639400 0.493740 -0.609054
O4    O     O_R   0.531420 0.360600 0.506260 -0.616495
C1    C     C_R   0.557930 0.662943 0.511408 0.843912
C2    C     C_R   0.442272 0.337433 0.484120 0.881177
O5    O     O_R   0.581950 0.481350 0.400520 -0.618749
O6    O     O_R   0.418050 0.518650 0.599480 -0.588741
O7    O     O_R   0.435380 0.514730 0.371330 -0.626475
O8    O     O_R   0.564620 0.485270 0.628670 -0.625489
C3    C     C_R   0.508339 0.491874 0.349596 0.836416
C4    C     C_R   0.489491 0.502806 0.650596 0.882208
Zn1   Zn    Zn3+2 0.597860 0.477710 0.519490 0.931001
Zn2   Zn    Zn3+2 0.402140 0.522290 0.480510 0.966479
C5    C     C_R   0.500587 0.461935 0.265927 -0.034774
C6    C     C_R   0.484447 0.501648 0.736592 -0.037676
C7    C     C_R   0.413616 0.433732 0.220529 -0.171283
C8    C     C_R   0.557701 0.479793 0.792126 -0.195407
C9    C     C_R   0.404659 0.401710 0.141789 -0.126290
C10   C     C_R   0.550982 0.472766 0.873221 -0.135716
C11   C     C_R   0.482491 0.398682 0.107708 0.097750
C12   C     C_R   0.470760 0.486574 0.899291 0.119704
C13   C     C_R   0.569312 0.421393 0.154073 -0.180841
C14   C     C_R   0.398921 0.511829 0.845079 -0.176986
C15   C     C_R   0.578378 0.452529 0.233341 -0.171170
C16   C     C_R   0.405737 0.519514 0.763766 -0.183359
C17   C     C_2   0.474266 0.398488 0.019404 0.353254
C18   C     C_2   0.462972 0.475954 0.984622 0.359281
H1    H     H_    0.352401 0.437303 0.245400 0.148733
H2    H     H_    0.619682 0.466832 0.773000 0.158238
H3    H     H_    0.349183 0.538296 0.722354 0.149751
H4    H     H_    0.645799 0.471854 0.267975 0.206924
H5    H     H_    0.629648 0.420864 0.127032 0.141709
H6    H     H_    0.337425 0.524127 0.865579 0.153159
H7    H     H_    0.607840 0.455653 0.915650 0.144333
H8    H     H_    0.337454 0.385673 0.105410 0.129559
C19   C     C_R   0.594264 0.757424 0.508005 -0.166836
C20   C     C_R   0.407055 0.244579 0.458854 -0.153609
C21   C     C_R   0.714297 0.881394 0.504055 -0.132732
C22   C     C_R   0.289412 0.120899 0.408743 -0.141953
C23   C     C_R   0.688298 0.793266 0.522571 -0.019410
C24   C     C_R   0.313879 0.210819 0.429144 -0.035872
C25   C     C_R   0.530168 0.812171 0.481182 -0.221090
C26   C     C_R   0.472054 0.188472 0.461248 -0.222850
C27   C     C_R   0.555368 0.899514 0.462261 0.055696
C28   C     C_R   0.448592 0.100540 0.435212 0.054032
C29   C     C_R   0.649035 0.935033 0.475334 -0.006642
C30   C     C_R   0.355418 0.065279 0.412797 0.000433
C31   C     C_R   0.488729 0.953682 0.436122 0.005574
C32   C     C_R   0.515911 0.045400 0.438293 -0.001907
C33   C     C_R   0.609440 0.079079 0.444885 -0.314144
C34   C     C_R   0.395724 0.919592 0.409663 -0.305902
C35   C     C_R   0.675848 0.024657 0.463190 0.507842
C36   C     C_R   0.329782 0.974908 0.395076 0.515935
H9    H     H_    0.541835 0.213307 0.486985 0.167529
H10   H     H_    0.459246 0.786158 0.477835 0.171583
H11   H     H_    0.785843 0.909391 0.515761 0.223552
H12   H     H_    0.218293 0.094568 0.388134 0.218584
H13   H     H_    0.632339 0.147407 0.434320 0.168334
H14   H     H_    0.372194 0.850184 0.398315 0.153044
N1    N     N_R   0.271750 0.551950 0.454510 -0.118064
N2    N     N_R   0.728250 0.448050 0.545490 -0.138008
C37   C     C_R   0.175921 0.650511 0.392268 -0.240395
C38   C     C_R   0.825763 0.352175 0.609490 -0.285102
C39   C     C_R   0.257887 0.617859 0.402584 -0.048647
C40   C     C_R   0.742908 0.382946 0.598009 -0.037500
C41   C     C_R   0.205455 0.511633 0.493854 0.099169
C42   C     C_R   0.794099 0.489544 0.506449 0.089895
C43   C     C_R   0.116607 0.532557 0.474623 -0.112494
C44   C     C_R   0.883605 0.469702 0.525672 -0.030584
C45   C     C_R   0.105457 0.609799 0.430690 0.053377
C46   C     C_R   0.895714 0.393161 0.570679 0.050060
C47   C     C_R   0.040390 0.482961 0.501770 -0.027332
C48   C     C_R   0.959889 0.519814 0.498802 0.032566
C49   C     C_R   0.959307 0.606479 0.471673 -0.231917
C50   C     C_R   0.041455 0.396641 0.529496 -0.294818
C51   C     C_R   0.026521 0.647618 0.430034 0.531827
C52   C     C_R   0.975331 0.356296 0.572438 0.520290
H15   H     H_    0.688016 0.351318 0.626898 0.145181
H16   H     H_    0.313047 0.649175 0.373845 0.140631
H17   H     H_    0.168545 0.707733 0.355718 0.194100
H18   H     H_    0.834170 0.295945 0.647143 0.182231
H19   H     H_    0.906855 0.643246 0.482321 0.181774
H20   H     H_    0.093345 0.359444 0.518181 0.219787
O9    O     O_3   0.021932 0.730398 0.398474 -0.594991
C53   C     C_3   0.942190 0.728008 0.340141 -0.240507
H21   H     H_    0.881440 0.727860 0.369590 0.190027
H22   H     H_    0.931905 0.670834 0.296784 0.159471
H23   H     H_    0.949130 0.788501 0.304459 0.186239
O10   O     O_3   0.981679 0.275016 0.606734 -0.630306
C54   C     C_3   0.063635 0.279198 0.662620 -0.292454
H24   H     H_    0.077219 0.339110 0.703047 0.145743
H25   H     H_    0.121986 0.275490 0.630855 0.215226
H26   H     H_    0.057694 0.221336 0.701741 0.194662
C55   C     C_2   0.766140 0.541369 0.435127 0.391125
H27   H     H_    0.724343 0.591747 0.438613 0.108482
O11   O     O_2   0.790401 0.527930 0.370842 -0.616447
C56   C     C_2   0.231370 0.464673 0.568919 0.418293
H28   H     H_    0.212930 0.486088 0.624827 0.017795
O12   O     O_2   0.265761 0.398088 0.568274 -0.559277
O13   O     O_3   0.439315 0.543129 0.029073 -0.620103
C57   C     C_3   0.493975 0.624008 0.019235 -0.307220
H29   H     H_    0.471980 0.651297 0.959098 0.172497
H30   H     H_    0.567632 0.617800 0.028029 0.152524
H31   H     H_    0.485324 0.671753 0.065983 0.197452
O14   O     O_3   0.492081 0.328945 0.973721 -0.628034
C58   C     C_3   0.482268 0.248656 0.014066 -0.298629
H32   H     H_    0.414535 0.234201 0.033350 0.157214
H33   H     H_    0.538196 0.248639 0.066597 0.171406
H34   H     H_    0.486924 0.194897 0.971437 0.198236
O15   O     O_3   0.767052 0.058534 0.467397 -0.605228
C59   C     C_3   0.797134 0.110573 0.539049 -0.252206
H35   H     H_    0.781277 0.074066 0.593503 0.138727
H36   H     H_    0.767713 0.172695 0.535078 0.165519
H37   H     H_    0.872187 0.128310 0.546821 0.253566
O16   O     O_3   0.238772 0.939115 0.374050 -0.586951
C60   C     C_3   0.221331 0.912134 0.291679 -0.313334
H38   H     H_    0.257239 0.856259 0.281100 0.150522
H39   H     H_    0.240048 0.967753 0.252302 0.151014
H40   H     H_    0.147228 0.888925 0.273802 0.208851
C61   C     C_2   0.240216 0.265813 0.415787 0.458584
H41   H     H_    0.251730 0.331499 0.392859 0.088759
O17   O     O_2   0.163704 0.236510 0.427521 -0.561515
C62   C     C_2   0.760314 0.743853 0.562045 0.336734
H42   H     H_    0.744573 0.689196 0.600421 0.100089
O18   O     O_2   0.839671 0.765899 0.554430 -0.583462

loop_
_geom_bond_atom_site_label_1
_geom_bond_atom_site_label_2
_geom_bond_distance
_ccdc_geom_bond_type
C37   C39   1.388236 A    
O13   C57   1.411062 S    
C1    C19   1.478751 S    
C7    H1    1.083268 S    
C47   C48   1.409458 A    
C55   H27   1.078142 S    
C50   H20   1.077618 S    
C59   H36   1.111212 S    
C21   C23   1.404197 A    
O9    C53   1.411629 S    
C52   O10   1.388193 S    
O5    C3    1.312509 A    
C40   H15   1.081836 S    
C37   H17   1.083305 S    
O1    C1    1.312886 A    
C23   C62   1.485720 S    
C62   O18   1.221206 D    
C9    C11   1.395622 A    
C50   C52   1.397807 A    
C20   C24   1.425511 A    
C9    H8    1.083543 S    
C60   H39   1.113969 S    
C53   H22   1.114629 S    
C5    C15   1.400620 A    
O14   C58   1.410554 S    
C21   H11   1.083785 S    
O16   C60   1.409750 S    
C57   H31   1.109189 S    
C5    C7    1.405415 A    
O4    Zn1   1.916956 S    
C43   C45   1.417201 A    
C46   C52   1.399687 A    
C34   H14   1.078797 S    
C41   C56   1.477708 S    
C7    C9    1.384683 A    
C10   H7    1.083672 S    
C3    C5    1.454551 S    
C18   O13   1.395483 S    
Zn1   N2    2.061270 S    
C4    C6    1.455798 S    
C26   C28   1.394769 A    
C13   H5    1.083577 S    
C36   O16   1.384364 S    
C44   C48   1.423932 A    
C58   H32   1.113316 S    
C2    C20   1.480831 S    
C43   C47   1.421950 A    
C8    H2    1.083067 S    
C29   C35   1.402693 A    
C35   O15   1.384518 S    
C15   H4    1.080156 S    
C22   C24   1.402598 A    
C11   C17   1.463871 S    
C51   O9    1.388049 S    
C16   H3    1.081266 S    
C39   H16   1.081916 S    
C12   C18   1.461978 S    
C58   H33   1.111702 S    
O2    C2    1.309964 A    
C59   H35   1.114284 S    
C34   C36   1.396417 A    
C27   C29   1.414754 A    
C6    C16   1.404219 A    
C28   C30   1.413562 A    
C42   C55   1.476879 S    
C22   H12   1.084180 S    
C48   C49   1.411433 A    
N2    C40   1.354659 A    
O4    C2    1.325440 A    
C60   H40   1.109413 S    
C54   H24   1.114759 S    
C53   H21   1.110948 S    
C17   O14   1.398171 S    
Zn2   N1    2.061270 S    
C53   H23   1.109264 S    
C14   H6    1.083409 S    
C33   C35   1.396942 A    
C38   C40   1.386156 A    
C19   C25   1.396325 A    
C30   C36   1.402550 A    
O7    Zn2   1.984220 S    
C20   C26   1.397161 A    
C54   H25   1.110615 S    
O7    C3    1.310832 A    
N1    C41   1.362013 A    
C27   C31   1.416086 A    
O6    C4    1.312932 A    
C31   C34   1.415432 A    
C32   C33   1.412231 A    
C57   H30   1.114201 S    
C49   C51   1.400335 A    
C38   H18   1.083147 S    
C61   H41   1.082359 S    
O3    Zn2   1.916953 S    
O8    C4    1.312823 A    
C42   C44   1.413419 A    
C37   C45   1.402388 A    
C31   C32   1.407337 A    
C56   O12   1.217598 D    
C11   C13   1.398464 A    
C58   H34   1.109191 S    
C12   C14   1.395845 A    
O1    Zn1   1.951570 S    
C10   C12   1.398083 A    
C45   C51   1.400605 A    
C21   C29   1.404110 A    
C22   C30   1.401613 A    
O6    Zn2   1.969438 S    
O15   C59   1.410073 S    
C14   C16   1.387692 A    
O3    C1    1.322978 A    
O8    Zn1   1.984219 S    
C55   O11   1.221181 D    
C28   C32   1.413385 A    
N2    C42   1.360319 A    
C25   C27   1.392878 A    
C60   H38   1.112180 S    
C54   H26   1.109187 S    
C26   H9    1.078315 S    
C49   H19   1.077235 S    
O10   C54   1.411925 S    
C47   C50   1.410398 A    
C8    C10   1.382978 A    
C38   C46   1.401739 A    
C19   C23   1.420815 A    
C57   H29   1.111060 S    
O2    Zn2   1.951573 S    
C61   O17   1.221351 D    
N1    C39   1.356072 A    
C25   H10   1.075347 S    
O5    Zn1   1.969437 S    
C13   C15   1.388252 A    
C33   H13   1.080686 S    
C6    C8    1.402766 A    
C56   H28   1.084976 S    
C17   C18   1.350240 D    
C44   C46   1.419456 A    
C41   C43   1.410148 A    
C59   H37   1.108233 S    
C24   C61   1.484384 S    
C62   H42   1.082533 S    
