data_mof_unit_46246.cif
_audit_creation_date              2012-10-26T17:11:12-0400
_audit_creation_method            fapswitch 2.2
_symmetry_space_group_name_H-M    P1
_symmetry_Int_Tables_number       1
_space_group_crystal_system       triclinic
_cell_length_a                    28.046117
_cell_length_b                    18.740996
_cell_length_c                    16.927936
_cell_angle_alpha                 89.963245
_cell_angle_beta                  62.525133
_cell_angle_gamma                 90.018895
_cell_volume                      7894.00254102

loop_
_atom_site_label
_atom_site_type_symbol
_atom_type_description
_atom_site_fract_x
_atom_site_fract_y
_atom_site_fract_z
_atom_type_partial_charge
C1    C     C_R   0.293419 0.725479 0.330399 0.828236
C2    C     C_R   0.706502 0.274372 0.669680 0.802875
C3    C     C_R   0.704206 0.730242 0.670943 0.825079
C4    C     C_R   0.293474 0.274441 0.330354 0.803280
C5    C     C_R   0.793380 0.225394 0.330438 0.828319
C6    C     C_R   0.206495 0.774351 0.669687 0.803093
C7    C     C_R   0.206658 0.225294 0.669511 0.828716
C8    C     C_R   0.795772 0.769799 0.329060 0.798280
C9    C     C_R   0.558299 0.876513 0.472287 -0.227264
C10   C     C_R   0.461799 0.128988 0.462015 -0.221391
C11   C     C_R   0.443520 0.876155 0.523010 -0.224246
C12   C     C_R   0.538663 0.128790 0.536531 -0.221079
C13   C     C_R   0.057425 0.376374 0.474445 -0.223175
C14   C     C_R   0.961676 0.628962 0.462377 -0.221177
C15   C     C_R   0.942735 0.376362 0.524965 -0.223257
C16   C     C_R   0.038520 0.628893 0.536979 -0.222667
C17   C     C_R   0.219107 0.770849 0.958305 0.108384
C18   C     C_R   0.779883 0.227699 0.042820 0.106521
C19   C     C_R   0.780371 0.766369 0.044660 0.110275
C20   C     C_R   0.220340 0.227564 0.956845 0.108560
C21   C     C_R   0.718999 0.270606 0.958374 0.106869
C22   C     C_R   0.280137 0.728013 0.042505 0.107999
C23   C     C_R   0.280974 0.270454 0.041745 0.108913
C24   C     C_R   0.719358 0.734196 0.955507 0.109332
C25   C     C_R   0.242791 0.822176 0.989252 -0.189892
C26   C     C_R   0.756627 0.176389 0.011090 -0.189390
C27   C     C_R   0.724681 0.779401 0.085534 -0.165284
C28   C     C_R   0.228505 0.300401 0.966039 -0.171747
C29   C     C_R   0.742207 0.321905 0.990201 -0.188884
C30   C     C_R   0.256424 0.676679 0.011618 -0.190127
C31   C     C_R   0.272908 0.197601 0.032383 -0.172917
C32   C     C_R   0.775048 0.721187 0.914630 -0.164649
C33   C     C_R   0.273282 0.800846 0.030976 -0.172531
C34   C     C_R   0.726174 0.197751 0.969294 -0.172416
C35   C     C_R   0.694356 0.763012 0.041563 -0.192845
C36   C     C_R   0.258804 0.321749 0.008084 -0.190239
C37   C     C_R   0.772621 0.300544 0.032049 -0.171296
C38   C     C_R   0.225905 0.698010 0.969930 -0.173338
C39   C     C_R   0.242564 0.176254 0.990398 -0.190767
C40   C     C_R   0.805370 0.737566 0.958600 -0.193098
C41   C     C_R   0.144953 0.831406 0.944359 -0.249809
C42   C     C_R   0.854488 0.167703 0.056114 -0.247250
C43   C     C_R   0.855014 0.829517 0.056347 -0.247944
C44   C     C_R   0.145559 0.167657 0.943829 -0.248073
C45   C     C_R   0.644861 0.331245 0.944422 -0.248965
C46   C     C_R   0.354613 0.667899 0.056000 -0.248173
C47   C     C_R   0.355207 0.331112 0.055538 -0.249901
C48   C     C_R   0.644808 0.670803 0.943790 -0.247023
C49   C     C_R   0.118675 0.852856 0.895083 -0.059516
C50   C     C_R   0.881102 0.146799 0.105079 -0.058721
C51   C     C_R   0.881310 0.852340 0.105261 -0.059958
C52   C     C_R   0.118886 0.146834 0.894927 -0.058788
C53   C     C_R   0.618624 0.352781 0.895116 -0.058840
C54   C     C_R   0.381143 0.646868 0.105045 -0.059374
C55   C     C_R   0.381435 0.352678 0.104845 -0.058924
C56   C     C_R   0.618619 0.647771 0.894787 -0.059891
C57   C     C_R   0.138224 0.830530 0.807068 -0.274077
C58   C     C_R   0.861682 0.169316 0.192995 -0.270271
C59   C     C_R   0.862263 0.830077 0.193249 -0.271745
C60   C     C_R   0.138289 0.169377 0.807018 -0.270462
C61   C     C_R   0.638191 0.330495 0.807080 -0.274025
C62   C     C_R   0.361691 0.669345 0.192983 -0.270383
C63   C     C_R   0.361856 0.330414 0.192896 -0.274222
C64   C     C_R   0.637716 0.669938 0.806751 -0.268314
C65   C     C_R   0.186466 0.792681 0.764671 -0.075175
C66   C     C_R   0.813204 0.206612 0.235673 -0.081160
C67   C     C_R   0.818996 0.782849 0.232142 -0.072948
C68   C     C_R   0.186893 0.206403 0.764196 -0.080846
C69   C     C_R   0.686459 0.292705 0.764665 -0.075181
C70   C     C_R   0.313300 0.706848 0.235562 -0.081157
C71   C     C_R   0.313495 0.292811 0.235410 -0.074888
C72   C     C_R   0.680908 0.717287 0.767898 -0.078769
C73   C     C_R   0.216142 0.777011 0.812370 0.154993
C74   C     C_R   0.783105 0.221329 0.188481 0.149653
C75   C     C_R   0.796239 0.753527 0.179269 0.150765
C76   C     C_R   0.217153 0.220777 0.811181 0.149430
C77   C     C_R   0.716142 0.277089 0.812356 0.154854
C78   C     C_R   0.283337 0.721902 0.188206 0.150031
C79   C     C_R   0.283718 0.277395 0.187840 0.154831
C80   C     C_R   0.703518 0.746838 0.820861 0.151304
C81   C     C_R   0.192810 0.792767 0.904193 0.064526
C82   C     C_R   0.806361 0.205750 0.096642 0.065731
C83   C     C_R   0.811740 0.781817 0.093388 0.064413
C84   C     C_R   0.193831 0.205475 0.903117 0.065507
C85   C     C_R   0.692744 0.292657 0.904234 0.064682
C86   C     C_R   0.306583 0.706159 0.096402 0.065658
C87   C     C_R   0.307214 0.292670 0.095855 0.064491
C88   C     C_R   0.688003 0.718631 0.906785 0.065308
C89   C     C_R   0.196908 0.631773 0.526571 0.810727
C90   C     C_R   0.800238 0.369054 0.483594 0.815094
C91   C     C_R   0.803100 0.631787 0.473387 0.810402
C92   C     C_R   0.199779 0.369057 0.516346 0.815141
C93   C     C_R   0.696910 0.131775 0.526582 0.810601
C94   C     C_R   0.300275 0.869047 0.483519 0.815242
C95   C     C_R   0.303097 0.131779 0.473427 0.810335
C96   C     C_R   0.699848 0.869062 0.516171 0.815626
C97   C     C_R   0.925857 0.903903 0.067126 0.812638
C98   C     C_R   0.073475 0.096917 0.933471 0.813958
C99   C     C_R   0.073464 0.903074 0.933482 0.815115
C100  C     C_R   0.926499 0.096878 0.066543 0.811940
C101  C     C_R   0.426594 0.402992 0.066481 0.813367
C102  C     C_R   0.574129 0.596119 0.932885 0.813429
C103  C     C_R   0.573442 0.403044 0.933499 0.811400
C104  C     C_R   0.426498 0.596876 0.066544 0.815660
C105  C     C_R   0.047989 0.502365 0.507320 0.024521
C106  C     C_R   0.952239 0.502372 0.491912 0.024128
C107  C     C_R   0.548434 0.002359 0.506139 0.024367
C108  C     C_R   0.452657 0.002296 0.490815 0.024274
C109  C     C_R   0.021881 0.567274 0.509924 0.043333
C110  C     C_R   0.974242 0.437939 0.502793 0.045503
C111  C     C_R   0.978369 0.567287 0.489277 0.042406
C112  C     C_R   0.025976 0.437945 0.496420 0.045468
C113  C     C_R   0.522185 0.067227 0.509094 0.042945
C114  C     C_R   0.474889 0.937839 0.501098 0.045327
C115  C     C_R   0.478664 0.067244 0.488485 0.043089
C116  C     C_R   0.526645 0.937947 0.494673 0.046345
C117  C     C_R   0.125631 0.437460 0.500883 0.062179
C118  C     C_R   0.884980 0.565385 0.463919 0.061076
C119  C     C_R   0.874475 0.437476 0.498746 0.062144
C120  C     C_R   0.115130 0.565327 0.535666 0.060201
C121  C     C_R   0.626071 0.937558 0.499845 0.062070
C122  C     C_R   0.385084 0.065383 0.463668 0.059935
C123  C     C_R   0.374820 0.937363 0.497970 0.062157
C124  C     C_R   0.615276 0.065292 0.535261 0.059754
C125  C     C_R   0.171846 0.436105 0.515679 -0.121883
C126  C     C_R   0.833817 0.565315 0.464724 -0.124193
C127  C     C_R   0.828200 0.436119 0.484139 -0.121634
C128  C     C_R   0.166225 0.565273 0.535081 -0.124008
C129  C     C_R   0.672041 0.936146 0.515265 -0.121196
C130  C     C_R   0.333836 0.065308 0.464757 -0.123696
C131  C     C_R   0.328329 0.936075 0.483917 -0.122025
C132  C     C_R   0.666280 0.065263 0.534983 -0.123658
C133  C     C_R   0.191908 0.500314 0.530187 -0.278039
C134  C     C_R   0.808115 0.500331 0.469683 -0.278293
C135  C     C_R   0.691954 0.000317 0.530193 -0.279448
C136  C     C_R   0.308118 0.000320 0.469828 -0.278249
C137  C     C_R   0.096218 0.501655 0.515247 0.072678
C138  C     C_R   0.903941 0.501679 0.484196 0.072451
C139  C     C_R   0.596558 0.001674 0.514368 0.072448
C140  C     C_R   0.404229 0.001613 0.483478 0.072628
C141  C     C_R   0.608648 0.877961 0.468586 -0.183958
C142  C     C_R   0.417995 0.126824 0.444423 -0.179816
C143  C     C_R   0.392909 0.877521 0.527826 -0.184268
C144  C     C_R   0.582242 0.126560 0.554694 -0.179259
C145  C     C_R   0.107833 0.377729 0.470427 -0.184096
C146  C     C_R   0.917951 0.626771 0.444569 -0.177544
C147  C     C_R   0.892270 0.377740 0.529227 -0.183879
C148  C     C_R   0.082164 0.626664 0.554982 -0.179860
Cu1   Cu    Cu3+1 0.209920 0.785290 0.495070 0.926106
Cu2   Cu    Cu3+1 0.790080 0.214710 0.504930 0.926970
Cu3   Cu    Cu3+1 0.790080 0.785290 0.504930 0.927961
Cu4   Cu    Cu3+1 0.209920 0.214710 0.495070 0.926780
Cu5   Cu    Cu3+1 0.709920 0.285290 0.495070 0.926637
Cu6   Cu    Cu3+1 0.290080 0.714710 0.504930 0.926070
Cu7   Cu    Cu3+1 0.290080 0.285290 0.504930 0.926292
Cu8   Cu    Cu3+1 0.709920 0.714710 0.495070 0.926305
Cu9   Cu    Cu3+1 0.495240 0.500000 0.924150 0.936897
Cu10  Cu    Cu3+1 0.504760 0.500000 0.075850 0.937423
Cu11  Cu    Cu3+1 0.995240 0.000000 0.924150 0.937556
Cu12  Cu    Cu3+1 0.004760 1.000000 0.075850 0.936912
H1    H     H_    0.229164 0.500015 0.534827 0.191151
H2    H     H_    0.770817 0.500015 0.465174 0.190973
H3    H     H_    0.729089 0.000007 0.535220 0.191044
H4    H     H_    0.270717 0.000016 0.465655 0.191200
H5    H     H_    0.633349 0.832209 0.437599 0.177630
H6    H     H_    0.411706 0.173781 0.413631 0.173623
H7    H     H_    0.368622 0.831444 0.558737 0.173905
H8    H     H_    0.588250 0.173281 0.586151 0.173226
H9    H     H_    0.132196 0.331711 0.439806 0.173397
H10   H     H_    0.911755 0.673649 0.413533 0.171948
H11   H     H_    0.867844 0.331760 0.560105 0.173425
H12   H     H_    0.088273 0.673457 0.586204 0.172992
H13   H     H_    0.545949 0.828309 0.451489 0.142860
H14   H     H_    0.484199 0.178331 0.449475 0.142182
H15   H     H_    0.456231 0.827797 0.542928 0.144407
H16   H     H_    0.516095 0.177978 0.549459 0.142182
H17   H     H_    0.044892 0.328086 0.454111 0.144267
H18   H     H_    0.984149 0.678252 0.449681 0.141953
H19   H     H_    0.955252 0.328073 0.545347 0.144286
H20   H     H_    0.016033 0.678140 0.549727 0.141274
H21   H     H_    0.208323 0.657893 0.945237 0.140195
H22   H     H_    0.789864 0.340643 0.057357 0.141543
H23   H     H_    0.848131 0.726818 0.926111 0.136096
H24   H     H_    0.237272 0.119912 0.982482 0.137205
H25   H     H_    0.708936 0.157659 0.943973 0.141472
H26   H     H_    0.290874 0.840966 0.055649 0.140281
H27   H     H_    0.264047 0.378095 0.016056 0.137096
H28   H     H_    0.651592 0.773738 0.074057 0.136483
H29   H     H_    0.238557 0.878480 0.979414 0.137444
H30   H     H_    0.761197 0.120066 0.020306 0.140082
H31   H     H_    0.704717 0.802247 0.151695 0.138758
H32   H     H_    0.212036 0.340492 0.939389 0.140147
H33   H     H_    0.737671 0.378232 0.980948 0.140008
H34   H     H_    0.260685 0.620376 0.021422 0.137589
H35   H     H_    0.289364 0.157518 0.059063 0.140154
H36   H     H_    0.795012 0.698326 0.848480 0.141564
H37   H     H_    0.129083 0.846180 0.013819 0.162105
H38   H     H_    0.870314 0.152966 0.986651 0.162352
H39   H     H_    0.867129 0.850252 0.990024 0.160621
H40   H     H_    0.129672 0.153017 0.013361 0.161893
H41   H     H_    0.628944 0.345927 0.013920 0.162315
H42   H     H_    0.370426 0.653099 0.986559 0.162127
H43   H     H_    0.371209 0.345678 0.985962 0.161873
H44   H     H_    0.632677 0.650129 0.010145 0.160632
H45   H     H_    0.116856 0.845404 0.770122 0.182931
H46   H     H_    0.883352 0.155030 0.229644 0.183845
H47   H     H_    0.880459 0.851183 0.232566 0.184232
H48   H     H_    0.116521 0.155272 0.770476 0.183829
H49   H     H_    0.616827 0.345372 0.770132 0.183125
H50   H     H_    0.383268 0.654873 0.229723 0.183644
H51   H     H_    0.383265 0.345214 0.229793 0.183132
H52   H     H_    0.619622 0.648658 0.767366 0.184871
O1    O     O_R   0.255040 0.869590 0.478480 -0.583481
O2    O     O_R   0.744960 0.130410 0.521520 -0.583035
O3    O     O_R   0.744960 0.869590 0.521520 -0.585620
O4    O     O_R   0.255040 0.130410 0.478480 -0.583099
O5    O     O_R   0.755040 0.369590 0.478480 -0.583484
O6    O     O_R   0.244960 0.630410 0.521520 -0.583051
O7    O     O_R   0.244960 0.369590 0.521520 -0.583532
O8    O     O_R   0.755040 0.630410 0.478480 -0.583905
O9    O     O_R   0.182050 0.796550 0.624440 -0.594862
O10   O     O_R   0.817950 0.203450 0.375560 -0.584447
O11   O     O_R   0.817950 0.796550 0.375560 -0.595035
O12   O     O_R   0.182050 0.203450 0.624440 -0.584500
O13   O     O_R   0.682050 0.296550 0.624440 -0.594798
O14   O     O_R   0.317950 0.703450 0.375560 -0.584588
O15   O     O_R   0.317950 0.296550 0.375560 -0.594890
O16   O     O_R   0.682050 0.703450 0.624440 -0.584771
O17   O     O_R   0.250530 0.763330 0.367210 -0.583661
O18   O     O_R   0.749470 0.236670 0.632790 -0.593136
O19   O     O_R   0.749470 0.763330 0.632790 -0.580061
O20   O     O_R   0.250530 0.236670 0.367210 -0.593113
O21   O     O_R   0.750530 0.263330 0.367210 -0.583572
O22   O     O_R   0.249470 0.736670 0.632790 -0.593120
O23   O     O_R   0.249470 0.263330 0.632790 -0.583645
O24   O     O_R   0.750530 0.736670 0.367210 -0.592045
O25   O     O_R   0.177260 0.690030 0.513710 -0.599677
O26   O     O_R   0.822740 0.309970 0.486290 -0.600047
O27   O     O_R   0.822740 0.690030 0.486290 -0.596461
O28   O     O_R   0.177260 0.309970 0.513710 -0.600123
O29   O     O_R   0.677260 0.190030 0.513710 -0.599804
O30   O     O_R   0.322740 0.809970 0.486290 -0.600523
O31   O     O_R   0.322740 0.190030 0.486290 -0.600036
O32   O     O_R   0.677260 0.809970 0.513710 -0.599610
O33   O     O_R   0.051640 0.926880 0.885090 -0.588522
O34   O     O_R   0.948360 0.073120 0.114910 -0.588610
O35   O     O_R   0.948360 0.926880 0.114910 -0.589081
O36   O     O_R   0.051640 0.073120 0.885090 -0.587868
O37   O     O_R   0.551640 0.426880 0.885090 -0.589483
O38   O     O_R   0.448360 0.573120 0.114910 -0.587772
O39   O     O_R   0.448360 0.426880 0.114910 -0.588761
O40   O     O_R   0.551640 0.573120 0.885090 -0.588249
O41   O     O_R   0.940620 0.926560 0.986760 -0.593033
O42   O     O_R   0.059380 0.073440 0.013240 -0.593213
O43   O     O_R   0.059380 0.926560 0.013240 -0.592822
O44   O     O_R   0.940620 0.073440 0.986760 -0.593194
O45   O     O_R   0.440620 0.426560 0.986760 -0.593602
O46   O     O_R   0.559380 0.573440 0.013240 -0.592621
O47   O     O_R   0.559380 0.426560 0.013240 -0.593544
O48   O     O_R   0.440620 0.573440 0.986760 -0.592400
C149  C     C_3   0.273513 0.748826 0.765815 -0.830943
H53   H     H_    0.298317 0.782845 0.707433 0.230339
H54   H     H_    0.294696 0.750578 0.807082 0.228699
H55   H     H_    0.273742 0.692455 0.745548 0.241174
C150  C     C_3   0.725388 0.248214 0.235589 -0.821720
H56   H     H_    0.701240 0.214324 0.294539 0.242675
H57   H     H_    0.724553 0.304898 0.255179 0.240333
H58   H     H_    0.703956 0.244972 0.194775 0.227215
C151  C     C_3   0.758137 0.690323 0.211032 -0.838296
H59   H     H_    0.772522 0.650286 0.243545 0.236432
H60   H     H_    0.716927 0.708309 0.257776 0.237770
H61   H     H_    0.756293 0.661625 0.155200 0.227672
C152  C     C_3   0.275103 0.246832 0.763759 -0.822548
H62   H     H_    0.298833 0.212919 0.704711 0.242710
H63   H     H_    0.276430 0.303644 0.744248 0.239924
H64   H     H_    0.296615 0.242749 0.804397 0.227108
C153  C     C_3   0.773607 0.249269 0.765729 -0.830383
H65   H     H_    0.798255 0.283364 0.707345 0.229868
H66   H     H_    0.794804 0.251332 0.806964 0.228764
H67   H     H_    0.774039 0.192860 0.745447 0.241537
C154  C     C_3   0.225780 0.749414 0.235104 -0.822387
H68   H     H_    0.201322 0.715496 0.293857 0.242929
H69   H     H_    0.225252 0.805968 0.254948 0.239970
H70   H     H_    0.204439 0.746877 0.194109 0.227187
C155  C     C_3   0.226044 0.250270 0.234698 -0.831560
H71   H     H_    0.201742 0.284410 0.293125 0.229853
H72   H     H_    0.204788 0.253036 0.193580 0.228689
H73   H     H_    0.225189 0.193747 0.254954 0.241161
C156  C     C_3   0.741470 0.810193 0.789144 -0.835695
H74   H     H_    0.727066 0.850050 0.756456 0.236400
H75   H     H_    0.743142 0.839032 0.845033 0.226864
H76   H     H_    0.782747 0.792350 0.742556 0.241734

loop_
_geom_bond_atom_site_label_1
_geom_bond_atom_site_label_2
_ccdc_geom_bond_type
C10   H14   S    
C51   C97   S    
Cu9   Cu10  S    
C32   H36   S    
C64   C72   A    
C79   C87   A    
C154  H70   S    
C38   H21   S    
C27   H31   S    
C4    O20   A    
Cu5   O13   S    
C13   C112  A    
Cu9   O48   S    
Cu10  O47   S    
C152  H64   S    
C30   C38   A    
C96   O32   A    
C90   O5    A    
C7    C68   S    
C101  O45   A    
Cu1   O25   S    
Cu8   O16   S    
Cu3   O3    S    
Cu11  O44   S    
C73   C81   A    
C16   C109  A    
C104  O38   A    
C90   O26   A    
C42   H38   S    
Cu10  O39   S    
C57   C65   A    
C20   C28   A    
C27   C35   A    
C21   C29   A    
C21   C85   S    
C23   C31   A    
C24   C32   A    
Cu6   O22   S    
Cu8   O8    S    
C8    O11   A    
C105  C112  A    
C63   C71   A    
C120  C148  A    
C151  H60   S    
C108  C140  A    
C136  H4    S    
C26   C34   A    
C93   O2    A    
C9    C116  A    
C135  H3    S    
Cu9   O37   S    
C97   O35   A    
C50   C100  S    
C1    C70   S    
Cu2   O18   S    
C17   C25   A    
C3    C72   S    
C80   C88   A    
C31   H35   S    
C29   H33   S    
C52   C98   S    
C18   C82   S    
C76   C152  S    
Cu1   O1    S    
C12   C144  A    
C126  C134  A    
C155  H72   S    
C23   C36   A    
C64   H52   S    
C118  C138  A    
C119  C147  A    
C3    O16   A    
C4    C71   S    
C96   C129  S    
C113  C115  A    
C1    O14   A    
C15   H19   S    
C43   C83   A    
C124  C139  A    
C69   C77   A    
C127  C134  A    
C13   C145  A    
C43   C51   A    
C92   C125  S    
C71   C79   A    
Cu4   O4    S    
Cu7   O15   S    
C108  C115  A    
C109  C111  A    
C10   C142  A    
C149  H53   S    
C142  H6    S    
C108  C114  A    
C66   C74   A    
C49   C57   A    
C124  C132  A    
C4    O15   A    
C52   C60   A    
C59   C67   A    
C129  C135  A    
C53   C61   A    
Cu9   O45   S    
C35   H28   S    
C55   C63   A    
C95   C130  S    
C56   C64   A    
C9    H13   S    
C33   H26   S    
C2    C69   S    
Cu5   O5    S    
C39   H24   S    
C12   H16   S    
C40   H23   S    
C44   C52   A    
C5    O10   A    
C6    O22   A    
C77   C85   A    
C153  H65   S    
C95   O4    A    
C19   C83   S    
C73   C149  S    
C106  C111  A    
C103  O37   A    
C107  C113  A    
C28   C36   A    
C41   H37   S    
C131  C136  A    
C3    O19   A    
C130  C136  A    
C102  O46   A    
C47   C87   A    
C92   O7    A    
C78   C154  S    
C98   O36   A    
C49   C99   S    
C156  H74   S    
C62   H50   S    
C150  H57   S    
C143  H7    S    
C14   H18   S    
C42   C50   A    
C44   H40   S    
C20   C84   S    
C67   C75   A    
C97   O41   A    
C59   H47   S    
C105  C109  A    
C92   O28   A    
C22   C30   A    
C119  C138  A    
C63   H51   S    
C5    C66   S    
C149  H55   S    
C114  C116  A    
C154  H69   S    
C48   H44   S    
C141  H5    S    
Cu1   O17   S    
C121  C139  A    
C153  H66   S    
C56   C102  S    
C72   C80   A    
C25   H29   S    
C11   C143  A    
Cu8   O24   S    
C152  H63   S    
Cu3   O11   S    
C17   C38   A    
C107  C139  A    
C110  C112  A    
Cu11  O36   S    
C100  O34   A    
C19   C40   A    
C2    O18   A    
C105  C137  A    
C8    C67   S    
C153  H67   S    
C117  C125  A    
C16   H20   S    
C25   C33   A    
Cu4   O20   S    
Cu7   O31   S    
C79   C155  S    
C18   C26   A    
C76   C84   A    
Cu6   O14   S    
C54   C104  S    
Cu5   O29   S    
C74   C150  S    
C58   H46   S    
C61   C69   A    
C156  H76   S    
C117  C145  A    
C104  O48   A    
Cu12  O42   S    
C91   O8    A    
C89   O6    A    
C6    C65   S    
Cu2   Cu5   S    
C90   C127  S    
C48   C88   A    
Cu7   O7    S    
C99   O33   A    
C151  H59   S    
Cu2   O10   S    
C15   C110  A    
C101  O39   A    
C74   C82   A    
C7    O23   A    
C145  H9    S    
C50   C58   A    
C89   O25   A    
C20   C39   A    
C60   H48   S    
C21   C34   A    
C54   C62   A    
Cu10  O46   S    
C34   H25   S    
Cu1   Cu6   S    
C155  H71   S    
C121  C141  A    
Cu11  Cu12  S    
Cu4   Cu7   S    
C41   C81   A    
C46   C54   A    
C47   H43   S    
C61   H49   S    
Cu3   Cu8   S    
C24   C88   S    
C8    O24   A    
Cu4   O12   S    
C68   C76   A    
Cu11  O41   S    
Cu12  O35   S    
Cu12  O43   S    
C14   C146  A    
C94   O1    A    
C123  C131  A    
C103  O47   A    
Cu10  O38   S    
C121  C129  A    
C44   C84   A    
C120  C128  A    
C41   C49   A    
Cu3   O27   S    
C11   H15   S    
C94   C131  S    
C36   H27   S    
C15   C147  A    
C7    O12   A    
C75   C83   A    
C30   H34   S    
C53   C103  S    
C13   H17   S    
C37   H22   S    
C17   C81   S    
C22   C86   S    
C122  C140  A    
Cu11  O33   S    
C46   H42   S    
C60   C68   A    
C151  H61   S    
C29   C37   A    
C93   O29   A    
C120  C137  A    
C2    O13   A    
C89   C128  S    
Cu6   O30   S    
C91   C126  S    
C70   C78   A    
C42   C82   A    
C26   H30   S    
C95   O31   A    
C96   O3    A    
C144  H8    S    
C102  O40   A    
C18   C37   A    
C155  H73   S    
C80   C156  S    
C106  C138  A    
C57   H45   S    
C65   C73   A    
C77   C153  S    
C11   C114  A    
C99   O43   A    
C148  H12   S    
C58   C66   A    
Cu2   O26   S    
Cu6   O6    S    
Cu8   O32   S    
C150  H56   S    
C6    O9    A    
C78   C86   A    
C32   C40   A    
C5    O21   A    
C62   C70   A    
Cu1   O9    S    
C28   H32   S    
C147  H11   S    
C14   C111  A    
C107  C116  A    
Cu3   O19   S    
C24   C35   A    
Cu5   O21   S    
C118  C146  A    
C149  H54   S    
C9    C141  A    
C75   C151  S    
C154  H68   S    
C123  C140  A    
C134  H2    S    
C45   C85   A    
Cu4   O28   S    
Cu7   O23   S    
C152  H62   S    
C146  H10   S    
C51   C59   A    
C122  C142  A    
C123  C143  A    
C93   C132  S    
Cu9   O40   S    
C98   O42   A    
C19   C27   A    
C47   C55   A    
C12   C113  A    
C106  C110  A    
C125  C133  A    
C48   C56   A    
C22   C33   A    
C117  C137  A    
Cu12  O34   S    
C133  H1    S    
C43   H39   S    
C55   C101  S    
C100  O44   A    
C16   C148  A    
C94   O30   A    
C128  C133  A    
C132  C135  A    
C156  H75   S    
C31   C39   A    
Cu2   O2    S    
C150  H58   S    
C45   C53   A    
C1    O17   A    
C45   H41   S    
C91   O27   A    
C124  C144  A    
C23   C87   S    
C118  C126  A    
C122  C130  A    
C10   C115  A    
C119  C127  A    
C46   C86   A    
