data_mof_unit_55240.cif
_audit_creation_date              2013-03-05T16:47:47-0500
_audit_creation_method            fapswitch 2.2
_symmetry_space_group_name_H-M    P1
_symmetry_Int_Tables_number       1
_space_group_crystal_system       triclinic
_cell_length_a                    15.794688
_cell_length_b                    8.920092
_cell_length_c                    8.132983
_cell_angle_alpha                 90.005053
_cell_angle_beta                  90.910486
_cell_angle_gamma                 90.047877
_cell_volume                      1145.71146423

loop_
_atom_site_label
_atom_site_type_symbol
_atom_site_description
_atom_site_fract_x
_atom_site_fract_y
_atom_site_fract_z
_atom_type_partial_charge
O1    O     O_R   0.500000 0.285340 0.636850 -0.612220
O2    O     O_R   0.500000 0.714660 0.363150 -0.613042
O3    O     O_R   0.500000 0.285340 0.363150 -0.612375
O4    O     O_R   0.500000 0.714660 0.636850 -0.613149
C1    C     C_1   0.499998 0.065241 0.499993 -0.145181
C2    C     C_1   0.500002 0.934760 0.500007 -0.145572
C3    C     C_R   0.499994 0.218111 0.499995 0.935795
C4    C     C_R   0.500006 0.781889 0.500005 0.934289
O5    O     O_R   0.376770 0.500000 0.636850 -0.606333
O6    O     O_R   0.623230 0.500000 0.363150 -0.603494
O7    O     O_R   0.376780 0.500000 0.363100 -0.598391
O8    O     O_R   0.623220 0.500000 0.636900 -0.600399
C5    C     C_R   0.337664 0.499791 0.498591 0.890134
C6    C     C_R   0.662336 0.500199 0.501373 0.887886
Zn1   Zn    Zn3+2 0.499990 0.500000 0.682780 1.052214
Zn2   Zn    Zn3+2 0.500010 0.500000 0.317220 1.053745
N1    N     N_1   0.500010 0.500000 0.073640 -0.006922
N2    N     N_1   0.499990 0.500000 0.926360 -0.007066
C7    C     C_3   0.974540 0.395257 0.606106 -0.211499
C8    C     C_3   0.025677 0.602249 0.388182 -0.218514
C9    C     C_3   0.026190 0.362010 0.450425 -0.167876
C10   C     C_3   0.973957 0.635950 0.543901 -0.174006
C11   C     C_1   0.249217 0.498728 0.494638 -0.070734
C12   C     C_1   0.750783 0.500575 0.504816 -0.063376
C13   C     C_3   0.032376 0.530494 0.644050 0.256927
C14   C     C_3   0.967836 0.467183 0.350300 0.249376
C15   C     C_3   0.083797 0.497436 0.489865 0.014084
C16   C     C_3   0.916199 0.500262 0.504307 0.003355
C17   C     C_1   0.174313 0.497852 0.490935 0.177954
C18   C     C_1   0.825699 0.500683 0.506494 0.190769
C19   C     C_2   0.052448 0.208672 0.395731 0.501626
H1    H     H_    0.004599 0.123882 0.371464 0.051816
O9    O     O_2   0.127072 0.178369 0.378412 -0.527601
C20   C     C_2   0.946990 0.790017 0.595076 0.498044
H2    H     H_    0.994357 0.876494 0.615144 0.067890
O10   O     O_2   0.872318 0.819201 0.613708 -0.539847
C21   C     C_2   0.948511 0.278219 0.727303 0.566819
H3    H     H_    0.996428 0.209527 0.787385 0.100734
O11   O     O_2   0.873989 0.258900 0.758355 -0.507731
C22   C     C_2   0.051595 0.717742 0.265185 0.572945
H4    H     H_    0.003505 0.783294 0.201429 0.088083
O12   O     O_2   0.126227 0.739141 0.236670 -0.496925
N3    N     N_R   0.933918 0.431013 0.187488 0.214429
O13   O     O_R   0.985165 0.389831 0.072752 -0.337375
O14   O     O_R   0.852919 0.435664 0.156746 -0.362809
N4    N     N_R   0.071207 0.563154 0.803839 0.236910
O15   O     O_R   0.056183 0.689493 0.877386 -0.368229
O16   O     O_R   0.125119 0.469438 0.868945 -0.335156

loop_
_geom_bond_atom_site_label_1
_geom_bond_atom_site_label_2
_geom_bond_distance
_ccdc_geom_bond_type
Zn1   N2    1.981032 S    
C2    C4    1.363619 S    
C9    C14   1.539626 S    
C19   O9    1.219813 D    
C21   H3    1.084482 S    
O1    Zn1   1.950853 S    
C8    C15   1.542142 S    
C13   C15   1.533546 S    
C13   N4    1.457458 S    
O2    Zn2   1.950852 S    
O7    Zn2   1.987638 S    
C14   C16   1.534238 S    
C19   H1    1.084645 S    
O8    Zn1   1.987641 S    
O4    C4    1.264290 A    
O4    Zn1   1.950917 S    
C22   O12   1.219872 D    
N1    N2    1.197820 T    
O5    Zn1   1.975906 S    
C21   O11   1.219852 D    
O6    Zn2   1.975909 S    
C7    C16   1.545714 S    
C9    C19   1.499146 S    
C8    C14   1.539565 S    
C7    C13   1.540817 S    
C11   C17   1.183008 T    
C16   C18   1.429833 S    
C22   H4    1.084435 S    
C7    C9    1.545887 S    
C20   O10   1.219811 D    
C8    C10   1.547527 S    
C14   N3    1.456557 S    
O3    C3    1.264289 A    
N3    O13   1.298200 A    
C9    C15   1.542368 S    
C1    C2    1.163900 T    
C10   C20   1.499947 S    
C12   C18   1.183122 T    
C15   C17   1.429565 S    
N4    O16   1.300473 A    
O7    C5    1.271865 A    
C5    C11   1.396862 S    
C20   H2    1.084688 S    
O6    C6    1.274049 A    
C6    C12   1.396838 S    
C1    C3    1.363616 S    
O5    C5    1.274306 A    
N4    O15   1.299607 A    
C10   C16   1.545834 S    
C7    C21   1.497622 S    
O1    C3    1.264263 A    
C8    C22   1.497351 S    
N3    O14   1.300344 A    
O2    C4    1.264263 A    
O3    Zn2   1.950917 S    
O8    C6    1.272114 A    
Zn2   N1    1.981032 S    
C10   C13   1.541882 S    
