data_mof_unit_51700.cif
_audit_creation_date              2012-12-10T19:07:02-0500
_audit_creation_method            fapswitch 2.2
_symmetry_space_group_name_H-M    P1
_symmetry_Int_Tables_number       1
_space_group_crystal_system       triclinic
_cell_length_a                    27.827909
_cell_length_b                    10.820472
_cell_length_c                    9.532269
_cell_angle_alpha                 89.899455
_cell_angle_beta                  90.029716
_cell_angle_gamma                 90.144273
_cell_volume                      2870.25820243

loop_
_atom_site_label
_atom_site_type_symbol
_atom_type_description
_atom_site_fract_x
_atom_site_fract_y
_atom_site_fract_z
_atom_type_partial_charge
C1    C     C_R   0.500857 0.262262 0.500045 0.805278
C2    C     C_R   0.278876 0.490890 0.373042 -0.102717
C3    C     C_R   0.253687 0.498757 0.499800 0.358476
C4    C     C_R   0.101994 0.497973 0.499781 -0.043857
C5    C     C_R   0.127598 0.390066 0.465570 -0.020628
C6    C     C_R   0.102462 0.282242 0.432457 -0.145423
C7    C     C_R   0.127658 0.606146 0.533953 -0.020861
C8    C     C_R   0.354525 0.499542 0.499885 -0.041354
C9    C     C_R   0.645555 0.497908 0.500069 -0.040382
C10   C     C_R   0.974526 0.389651 0.456852 0.042234
C11   C     C_R   0.974600 0.604984 0.542974 0.042257
C12   C     C_R   0.407458 0.499881 0.499951 0.800746
C13   C     C_R   0.949327 0.497191 0.499940 0.068103
C14   C     C_R   0.947488 0.286903 0.409204 -0.205950
C15   C     C_R   0.897595 0.288309 0.408383 -0.144793
C16   C     C_R   0.872527 0.392163 0.454310 -0.020900
C17   C     C_R   0.898203 0.496939 0.499994 -0.043816
C18   C     C_R   0.872610 0.601469 0.545728 -0.020765
C19   C     C_R   0.822161 0.599352 0.544890 0.534861
C20   C     C_R   0.822073 0.393821 0.455209 0.534965
C21   C     C_R   0.721207 0.494851 0.372997 -0.099408
C22   C     C_R   0.671103 0.495499 0.372881 -0.213743
C23   C     C_R   0.500883 0.737715 0.499851 0.806801
C24   C     C_R   0.671162 0.498400 0.627254 -0.213289
C25   C     C_R   0.721263 0.497868 0.627124 -0.098867
C26   C     C_R   0.746460 0.496344 0.500056 0.354029
C27   C     C_R   0.025600 0.388442 0.461827 0.042719
C28   C     C_R   0.050870 0.497709 0.499824 0.068050
C29   C     C_R   0.025669 0.606719 0.537867 0.042735
C30   C     C_R   0.052569 0.281073 0.430887 -0.206019
C31   C     C_R   0.102586 0.713720 0.567068 -0.145351
C32   C     C_R   0.947642 0.707451 0.590720 -0.206016
C33   C     C_R   0.897753 0.705557 0.591636 -0.144821
C34   C     C_R   0.592571 0.499397 0.500046 0.801972
C35   C     C_R   0.052697 0.714377 0.568713 -0.205982
C36   C     C_R   0.507018 0.063303 0.625675 0.139933
C37   C     C_R   0.505673 0.129197 0.499732 -0.096632
C38   C     C_R   0.511222 0.064691 0.372818 -0.208545
C39   C     C_R   0.511202 0.935888 0.372685 -0.209718
C40   C     C_R   0.505679 0.870791 0.499463 -0.096496
C41   C     C_R   0.506994 0.936114 0.625513 0.121479
C42   C     C_3   0.474460 0.928976 0.749892 -0.457144
C43   C     C_3   0.474552 0.069292 0.750233 -0.479478
C44   C     C_R   0.516999 0.599877 0.073466 0.255412
C45   C     C_R   0.178050 0.392255 0.466357 0.534097
C46   C     C_R   0.478319 0.407912 0.074596 -0.081618
C47   C     C_R   0.478261 0.408012 0.925648 -0.080970
C48   C     C_R   0.517019 0.599817 0.926085 0.254063
C49   C     C_3   0.566466 0.652697 0.920010 -0.495167
C50   C     C_3   0.566458 0.652819 0.079303 -0.499173
C51   C     C_R   0.178107 0.604474 0.533140 0.534611
C52   C     C_R   0.278893 0.506980 0.626601 -0.102854
C53   C     C_R   0.328999 0.507175 0.626825 -0.219200
C54   C     C_R   0.328984 0.491457 0.372905 -0.214617
Cu1   Cu    Cu3+1 0.500000 0.499980 0.640670 0.945274
Cu2   Cu    Cu3+1 0.500000 0.500020 0.359330 0.945412
H1    H     H_    0.347656 0.485314 0.273519 0.159150
H2    H     H_    0.259584 0.512834 0.724956 0.140692
H3    H     H_    0.121474 0.798616 0.591844 0.188363
H4    H     H_    0.963863 0.790628 0.630653 0.140080
H5    H     H_    0.652608 0.498911 0.726882 0.149720
H6    H     H_    0.878921 0.786614 0.628960 0.188787
H7    H     H_    0.740572 0.498292 0.725784 0.142120
H8    H     H_    0.036531 0.802088 0.592536 0.138609
H9    H     H_    0.513163 0.112993 0.273346 0.162848
H10   H     H_    0.513054 0.888061 0.273157 0.158460
H11   H     H_    0.438802 0.888148 0.724340 0.205613
H12   H     H_    0.259553 0.484750 0.274654 0.140603
H13   H     H_    0.492605 0.888364 0.843020 0.192265
H14   H     H_    0.438931 0.110190 0.725170 0.199649
H15   H     H_    0.492887 0.109211 0.843421 0.194517
H16   H     H_    0.461478 0.332274 0.130388 0.140663
H17   H     H_    0.461245 0.332733 0.870055 0.139317
H18   H     H_    0.592982 0.587521 0.874874 0.213024
H19   H     H_    0.566970 0.747016 0.873683 0.195958
H20   H     H_    0.593006 0.587813 0.125006 0.213510
H21   H     H_    0.566954 0.747264 0.124861 0.191912
H22   H     H_    0.121303 0.197546 0.407630 0.188356
H23   H     H_    0.740472 0.493624 0.274336 0.142407
H24   H     H_    0.878701 0.207064 0.371115 0.188781
H25   H     H_    0.963647 0.203870 0.369282 0.140076
H26   H     H_    0.036353 0.193208 0.407042 0.138614
H27   H     H_    0.347682 0.513535 0.726251 0.159476
N1    N     N_R   0.202162 0.498486 0.499755 -0.468906
N2    N     N_R   0.798011 0.496480 0.500064 -0.468355
N3    N     N_R   0.500300 0.500930 0.147930 -0.183755
N4    N     N_R   0.500310 0.500890 0.852020 -0.183368
O1    O     O_R   0.500000 0.319640 0.618810 -0.582317
O2    O     O_2   0.797233 0.293322 0.412728 -0.534768
O3    O     O_2   0.202958 0.708088 0.564538 -0.534363
O4    O     O_2   0.797406 0.699645 0.587384 -0.535142
O5    O     O_R   0.500010 0.319680 0.381230 -0.590183
O6    O     O_R   0.430260 0.500000 0.618780 -0.584508
O7    O     O_R   0.430270 0.500040 0.381190 -0.581013
O8    O     O_R   0.499990 0.680320 0.618770 -0.579274
O9    O     O_R   0.500000 0.680360 0.381190 -0.583960
O10   O     O_R   0.569730 0.499960 0.618810 -0.582893
O11   O     O_R   0.569740 0.500000 0.381220 -0.583087
O12   O     O_2   0.202847 0.288900 0.434936 -0.534900
H28   H     H_    0.652494 0.493866 0.273269 0.150271

loop_
_geom_bond_atom_site_label_1
_geom_bond_atom_site_label_2
_ccdc_geom_bond_type
C10   C27   A    
C21   C26   A    
C40   C41   A    
C24   H5    S    
C41   C42   S    
Cu1   O10   S    
Cu2   O11   S    
Cu1   Cu2   S    
Cu2   O7    S    
C36   C37   A    
C2    H12   S    
C51   O3    S    
C5    C6    A    
C9    C22   A    
C6    H22   S    
C42   H11   S    
C23   C40   S    
C34   O10   A    
C23   O9    A    
C18   C19   A    
C25   H7    S    
C31   H3    S    
Cu1   O1    S    
C33   H6    S    
C49   H19   S    
C35   H8    S    
C46   H16   S    
C1    C37   S    
C1    O1    A    
C21   C22   A    
C27   C30   A    
C12   O7    A    
C36   C41   A    
C4    C7    A    
C44   N3    A    
C4    C28   A    
C7    C31   A    
C22   H28   S    
C24   C25   A    
C47   H17   S    
Cu1   O8    S    
C45   O12   S    
C8    C54   A    
C39   C40   A    
C16   C17   A    
C25   C26   A    
C5    C45   A    
C42   H13   S    
C47   N4    A    
C30   H26   S    
C37   C38   A    
C50   H20   S    
Cu2   N3    S    
C15   H24   S    
C38   H9    S    
C8    C12   S    
C20   N2    A    
C21   H23   S    
C17   C18   A    
C48   N4    A    
C16   C20   A    
C52   H2    S    
C48   C49   S    
C6    C30   A    
C11   C32   A    
C1    O5    A    
C2    C54   A    
C9    C34   S    
C39   H10   S    
C31   C35   A    
C12   O6    A    
C45   N1    A    
C42   C43   S    
C32   H4    S    
C50   H21   S    
C3    N1    S    
C52   C53   A    
C44   C50   S    
Cu2   O9    S    
C46   C47   A    
C28   C29   A    
C43   H15   S    
C14   C15   A    
C4    C5    A    
C19   N2    A    
C10   C13   A    
C8    C53   A    
C3    C52   A    
C9    C24   A    
C43   H14   S    
C20   O2    S    
C29   C35   A    
C13   C17   A    
C53   H27   S    
C32   C33   A    
C2    C3    A    
C7    C51   A    
C11   C13   A    
C38   C39   A    
C26   N2    S    
C51   N1    A    
C34   O11   A    
C23   O8    A    
Cu1   N4    S    
C18   C33   A    
C19   O4    S    
C44   C48   A    
Cu2   O5    S    
C11   C29   A    
C49   C50   S    
C27   C28   A    
C49   H18   S    
C36   C43   S    
C14   H25   S    
Cu1   O6    S    
C15   C16   A    
C10   C14   A    
C46   N3    A    
C54   H1    S    
