data_mof_unit_51435.cif
_audit_creation_date              2012-12-10T17:16:38-0500
_audit_creation_method            fapswitch 2.2
_symmetry_space_group_name_H-M    P1
_symmetry_Int_Tables_number       1
_space_group_crystal_system       triclinic
_cell_length_a                    10.350852
_cell_length_b                    10.491844
_cell_length_c                    10.697627
_cell_angle_alpha                 91.62034
_cell_angle_beta                  94.959439
_cell_angle_gamma                 80.942566
_cell_volume                      1142.84905746

loop_
_atom_site_label
_atom_site_type_symbol
_atom_type_description
_atom_site_fract_x
_atom_site_fract_y
_atom_site_fract_z
_atom_type_partial_charge
C1    C     C_R   0.444793 0.504384 0.267303 0.838872
C2    C     C_R   0.555248 0.488041 0.732685 0.849916
C3    C     C_2   0.413377 0.494286 0.133686 0.142680
C4    C     C_2   0.586495 0.465489 0.865464 0.125205
C5    C     C_2   0.506417 0.431901 0.065455 -0.167211
C6    C     C_2   0.491132 0.436442 0.931069 -0.199368
C7    C     C_2   0.072104 0.493073 0.484617 0.429807
C8    C     C_2   0.927831 0.513943 0.506216 0.438894
C9    C     C_R   0.505176 0.259111 0.514569 0.858216
C10   C     C_R   0.493808 0.739833 0.482011 0.880927
C11   C     C_R   0.749344 0.064358 0.484743 0.166319
C12   C     C_R   0.247772 0.929980 0.504884 0.326982
C13   C     C_R   0.831150 0.008793 0.392058 0.287274
C14   C     C_R   0.169558 0.977171 0.601078 0.245630
C15   C     C_R   0.789908 0.911114 0.311594 0.442478
C16   C     C_R   0.208732 0.076578 0.681910 0.309951
C17   C     C_R   0.673036 0.865055 0.329173 0.387296
C18   C     C_R   0.321852 0.128719 0.660715 0.439259
C19   C     C_R   0.589957 0.925646 0.419918 -0.167917
C20   C     C_R   0.404665 0.071848 0.567737 -0.171911
C21   C     C_R   0.619510 0.037610 0.481894 -0.061992
C22   C     C_R   0.375693 0.960353 0.504843 -0.130000
C23   C     C_R   0.478998 0.877245 0.452724 -0.074678
C24   C     C_R   0.516926 0.120345 0.536609 -0.055060
H1    H     H_    0.394568 0.428055 0.886207 0.248414
H2    H     H_    0.600531 0.386508 0.109196 0.201720
N1    N     N_2   0.157300 0.551390 0.551120 0.031933
N2    N     N_2   0.842700 0.448610 0.448880 0.029469
O1    O     O_R   0.568940 0.489660 0.307530 -0.619473
O2    O     O_R   0.431060 0.510340 0.692470 -0.635539
O3    O     O_R   0.348880 0.522640 0.340350 -0.542743
O4    O     O_R   0.651120 0.477360 0.659650 -0.536388
O5    O     O_R   0.610030 0.300280 0.483580 -0.614689
O6    O     O_R   0.389970 0.699720 0.516420 -0.605961
O7    O     O_R   0.389970 0.333270 0.516400 -0.570895
O8    O     O_R   0.610030 0.666730 0.483600 -0.563395
Zn1   Zn    Zn3+2 0.646940 0.477980 0.478080 1.078813
Zn2   Zn    Zn3+2 0.353060 0.522020 0.521920 1.080043
O9    O     O_3   0.138110 0.127556 0.779987 -0.627381
H3    H     H_    0.117456 0.054816 0.827544 0.347291
O10   O     O_3   0.861836 0.856727 0.215135 -0.625028
H4    H     H_    0.931972 0.907916 0.202252 0.404472
Br1   Br    Br    0.819623 0.156012 0.629004 -0.409575
Br2   Br    Br    0.175637 0.830681 0.368135 -0.321299
O11   O     O_3   0.948958 0.049198 0.375247 -0.691874
H5    H     H_    0.964169 0.119386 0.435381 0.406361
O12   O     O_3   0.058188 0.922504 0.612094 -0.665513
H6    H     H_    0.019971 0.950019 0.691510 0.379819
O13   O     O_3   0.638560 0.768424 0.248428 -0.653575
H7    H     H_    0.542554 0.769403 0.245528 0.323060
O14   O     O_3   0.355521 0.224414 0.742702 -0.681504
H8    H     H_    0.451583 0.223184 0.746266 0.312092
Br3   Br    Br    0.759392 0.482755 0.939980 -0.253067
Br4   Br    Br    0.244582 0.577043 0.062015 -0.303501
Br5   Br    Br    0.859954 0.653785 0.615458 -0.289904
Br6   Br    Br    0.134835 0.386509 0.345604 -0.291518
O15   O     O_3   0.883836 0.348479 0.374688 -0.651370
H9    H     H_    0.802903 0.315084 0.342406 0.381083
O16   O     O_3   0.127841 0.595252 0.665651 -0.603196
H10   H     H_    0.206226 0.630567 0.701810 0.391250

loop_
_geom_bond_atom_site_label_1
_geom_bond_atom_site_label_2
_ccdc_geom_bond_type
C2    C4    S    
C9    C24   S    
C11   Br1   S    
C14   O12   S    
C4    Br3   S    
O10   H4    S    
C19   C23   A    
O12   H6    S    
O3    Zn2   S    
C1    O3    A    
C2    O2    A    
C3    C5    D    
C1    O1    A    
O16   H10   S    
C10   O6    A    
N1    O16   S    
O11   H5    S    
C9    O5    A    
C11   C13   A    
C15   O10   S    
O15   H9    S    
N2    Zn1   S    
C15   C17   A    
C7    Br6   S    
C8    Br5   S    
C16   C18   A    
O8    Zn1   S    
C19   C21   A    
C12   C14   A    
C18   O14   S    
O13   H7    S    
C18   C20   A    
C13   C15   A    
C5    C6    S    
C8    N2    D    
C3    Br4   S    
C14   C16   A    
C6    H1    S    
O4    Zn1   S    
N1    Zn2   S    
O1    Zn1   S    
O14   H8    S    
C5    H2    S    
C12   C22   A    
C13   O11   S    
C7    C8    S    
O7    Zn2   S    
C7    N1    D    
O2    Zn2   S    
C2    O4    A    
C4    C6    D    
C21   C24   A    
C17   O13   S    
O9    H3    S    
C9    O7    A    
C22   C23   A    
C12   Br2   S    
C10   C23   S    
C10   O8    A    
C16   O9    S    
C17   C19   A    
N2    O15   S    
C11   C21   A    
O5    Zn1   S    
C20   C24   A    
C20   C22   A    
C1    C3    S    
O6    Zn2   S    
