data_mof_unit_67326.cif
_audit_creation_date              2013-03-05T16:05:29-0500
_audit_creation_method            fapswitch 2.2
_symmetry_space_group_name_H-M    P1
_symmetry_Int_Tables_number       1
_space_group_crystal_system       triclinic
_cell_length_a                    8.835898
_cell_length_b                    15.613052
_cell_length_c                    15.354349
_cell_angle_alpha                 101.641979
_cell_angle_beta                  98.934806
_cell_angle_gamma                 98.795771
_cell_volume                      2011.95795848

loop_
_atom_site_label
_atom_site_type_symbol
_atom_site_description
_atom_site_fract_x
_atom_site_fract_y
_atom_site_fract_z
_atom_type_partial_charge
P1    P     P_3+3 0.996530 0.418490 0.288400 0.617355
O1    O     O_2   0.826410 0.445300 0.275350 -0.303064
O2    O     O_3   0.098900 0.448430 0.388910 -0.285708
O3    O     O_3   0.628630 0.613330 0.338230 -0.313771
O4    O     O_2   0.660944 0.518982 0.180394 -0.358959
O5    O     O_3   0.951743 0.300249 0.248458 -0.555341
O6    O     O_3   0.634963 0.680726 0.183587 -0.544687
H1    H     H_    0.771627 0.744221 0.307343 0.095480
C1    C     C_3   0.719852 0.837303 0.227234 -0.018524
P2    P     P_3+3 0.693090 0.712100 0.580610 0.629059
P3    P     P_3+3 0.128321 0.777819 0.400885 0.574797
O7    O     O_2   0.863180 0.725040 0.553770 -0.347852
O8    O     O_3   0.060890 0.661420 0.386090 -0.367558
O9    O     O_2   0.015364 0.817942 0.457798 -0.233982
O10   O     O_3   0.748811 0.751877 0.700013 -0.471851
O11   O     O_3   0.067606 0.808922 0.298196 -0.510871
C2    C     C_3   0.152114 0.778924 0.230832 0.054126
H2    H     H_    0.274678 0.779738 0.261497 0.067660
C3    C     C_3   0.155001 0.838293 0.160020 0.345956
C4    C     C_3   0.276914 0.773178 0.734270 0.037060
C5    C     C_3   0.293283 0.867274 0.804154 -0.721549
H3    H     H_    0.359269 0.860440 0.869679 0.212828
Ba1   Ba    Ba6+2 0.844890 0.542420 0.457460 1.771428
C6    C     C_3   0.862189 0.251464 0.296376 -0.019256
H4    H     H_    0.741433 0.257036 0.274379 0.110735
C7    C     C_3   0.869939 0.149084 0.271345 0.122918
C8    C     C_3   0.859302 0.710139 0.741892 0.126666
H5    H     H_    0.963763 0.725513 0.714238 0.099084
C9    C     C_3   0.900503 0.750172 0.847050 0.304297
H6    H     H_    0.028262 0.764313 0.866499 0.068353
P4    P     P_3+3 0.193180 0.581580 0.711620 0.558044
O12   O     O_2   0.363300 0.554730 0.724710 -0.360285
O13   O     O_3   0.090820 0.551650 0.611100 -0.306088
O14   O     O_3   0.561090 0.386750 0.661790 -0.389536
O15   O     O_3   0.204535 0.699222 0.765467 -0.640641
P5    P     P_3+3 0.071247 0.229674 0.627781 0.543138
O16   O     O_3   0.598940 0.388670 0.448890 -0.241537
O17   O     O_3   0.128820 0.338650 0.613920 -0.301060
O18   O     O_2   0.158126 0.173480 0.564817 -0.333149
O19   O     O_3   0.172359 0.226639 0.734235 -0.464806
Ba2   Ba    Ba6+2 0.344950 0.457650 0.542550 1.745185
P6    P     P_3+3 0.565348 0.586486 0.219971 0.564230
C10   C     C_3   0.671346 0.752830 0.258492 0.879455
O20   O     O_3   0.590780 0.611410 0.551120 -0.339240
C11   C     C_3   0.424240 0.240578 0.236315 -0.144394
C12   C     C_3   0.410576 0.161436 0.152163 1.030191
P7    P     P_3+3 0.503483 0.271902 0.431078 0.550887
O21   O     O_2   0.326530 0.274990 0.446290 -0.370569
O22   O     O_3   0.496360 0.214563 0.315455 -0.544098
H7    H     H_    0.259882 0.833022 0.130753 0.054767
C13   C     C_3   0.072416 0.226155 0.796974 0.298017
H8    H     H_    0.133326 0.274028 0.860474 0.109858
H9    H     H_    0.960972 0.247701 0.777240 0.051185
C14   C     C_3   0.043217 0.133984 0.816077 -0.671622
H10   H     H_    0.154900 0.109775 0.827631 0.258055
H11   H     H_    0.988346 0.135736 0.876546 0.300085
H12   H     H_    0.966073 0.086222 0.757050 0.267356
P8    P     P_3+3 0.623145 0.396880 0.777225 0.510710
C15   C     C_3   0.595992 0.227211 0.748407 0.153320
H13   H     H_    0.701059 0.249300 0.721339 -0.083765
O23   O     O_2   0.524790 0.461549 0.820867 -0.318006
O24   O     O_3   0.540263 0.296486 0.798508 -0.480908
H14   H     H_    0.501774 0.189186 0.690944 0.070277
C16   C     C_3   0.640308 0.167160 0.810049 1.692712
C17   C     C_R   0.842141 0.435995 0.823572 0.196811
C18   C     C_R   0.910268 0.441741 0.916129 -0.024351
C19   C     C_R   0.046982 0.446962 0.101818 -0.227765
C20   C     C_R   0.898945 0.397949 0.060361 -0.218357
C21   C     C_R   0.823659 0.414676 0.979937 -0.191417
C22   C     C_R   0.104937 0.463807 0.199581 0.082305
C23   C     C_R   0.258568 0.512223 0.231399 0.418802
C24   C     C_R   0.093116 0.515661 0.795107 0.202147
C25   C     C_R   0.157281 0.522516 0.891280 -0.078511
C26   C     C_R   0.071044 0.477510 0.947778 0.115946
C27   C     C_R   0.300506 0.577074 0.937042 -0.054639
C28   C     C_R   0.371971 0.569605 0.022312 -0.119711
C29   C     C_R   0.292276 0.526280 0.078162 -0.074809
C30   C     C_R   0.137682 0.482235 0.042329 0.124140
C31   C     C_R   0.354699 0.538530 0.172244 0.042889
C32   C     C_R   0.941390 0.461253 0.763963 -0.402407
H15   H     H_    0.483159 0.611767 0.049328 0.214933
H16   H     H_    0.893748 0.443451 0.692385 0.180821
C33   C     C_R   0.338641 0.829554 0.462602 0.255420
H17   H     H_    0.387390 0.698609 0.463203 0.238847
C34   C     C_R   0.587480 0.797397 0.533844 0.109359
C35   C     C_R   0.755445 0.236685 0.555974 -0.407505
C36   C     C_R   0.853996 0.182698 0.589274 0.145000
C37   C     C_R   0.792998 0.091417 0.581093 0.005953
C38   C     C_R   0.632958 0.052235 0.543084 0.160543
C39   C     C_R   0.538400 0.110303 0.507872 -0.183188
C40   C     C_R   0.565373 0.956564 0.531769 -0.228477
C41   C     C_R   0.404238 0.924134 0.487410 -0.320348
C42   C     C_R   0.314172 0.987648 0.468050 0.931152
C43   C     C_R   0.381044 0.075812 0.473658 -0.289830
C44   C     C_R   0.650687 0.890819 0.559171 0.749319
C45   C     C_R   0.435071 0.769288 0.483205 -0.402568
C46   C     C_R   0.601780 0.201837 0.507875 0.237308
H18   H     H_    0.802751 0.306172 0.563574 0.174908
H19   H     H_    0.876404 0.052293 0.600596 0.219714
H20   H     H_    0.305407 0.117562 0.449957 0.225212
C47   C     C_2   0.390016 0.942619 0.776467 1.082155
O25   O     O_2   0.528422 0.968927 0.813725 -0.463484
O26   O     O_R   0.322010 0.982369 0.709434 -0.729477
H21   H     H_    0.401024 0.026663 0.691803 0.328068
C48   C     C_2   0.150264 0.901229 0.827565 1.137274
O27   O     O_2   0.144006 0.927365 0.907413 -0.529064
O28   O     O_R   0.033022 0.911627 0.760409 -0.656569
H22   H     H_    0.948253 0.939479 0.786013 0.403647
C49   C     C_2   0.907809 0.291249 0.396816 0.929850
O29   O     O_2   0.850166 0.352384 0.429595 -0.547303
O30   O     O_R   0.031041 0.271906 0.450853 -0.711341
H23   H     H_    0.062769 0.214269 0.428098 0.384506
C50   C     C_2   0.822301 0.102342 0.171623 1.322592
O31   O     O_2   0.894484 0.126310 0.116900 -0.487650
O32   O     O_R   0.705724 0.026239 0.141624 -0.748143
H24   H     H_    0.688202 0.001760 0.073736 0.375711
C51   C     C_2   0.772536 0.103989 0.326879 0.854649
O33   O     O_2   0.833818 0.097118 0.401195 -0.575846
O34   O     O_R   0.613230 0.073049 0.296097 -0.669509
H25   H     H_    0.563151 0.044394 0.340539 0.367428
F1    F     F_    0.020091 0.135205 0.293702 -0.677461
C52   C     C_2   0.802441 0.613373 0.716559 0.735789
O35   O     O_2   0.833756 0.569403 0.649475 -0.578657
O36   O     O_R   0.683026 0.578538 0.753401 -0.775581
H26   H     H_    0.606617 0.535967 0.702483 0.389937
C53   C     C_2   0.806256 0.909753 0.307444 1.075658
O37   O     O_2   0.929952 0.953410 0.303877 -0.463853
O38   O     O_R   0.750294 0.926841 0.387487 -0.743991
H27   H     H_    0.635981 0.901543 0.378650 0.296628
C54   C     C_2   0.853264 0.694557 0.911172 1.215239
O39   O     O_2   0.898863 0.625099 0.911051 -0.687059
O40   O     O_R   0.774305 0.727767 0.978474 -0.585167
H28   H     H_    0.756299 0.686275 0.020267 0.393508
F2    F     F_    0.848243 0.829557 0.868324 -0.546556
F3    F     F_    0.543466 0.759066 0.300224 -0.805658
C55   C     C_2   0.581368 0.863555 0.178225 1.105584
O41   O     O_2   0.498078 0.902763 0.220608 -0.683747
O42   O     O_R   0.549442 0.843614 0.083776 -0.697772
H29   H     H_    0.460987 0.870644 0.057710 0.341123
C56   C     C_2   0.272102 0.261086 0.246634 0.914551
O43   O     O_2   0.154467 0.217428 0.197007 -0.510103
O44   O     O_R   0.268011 0.336727 0.309225 -0.738338
H30   H     H_    0.184693 0.321212 0.343067 0.381333
C57   C     C_2   0.511683 0.325113 0.221676 0.877240
O45   O     O_2   0.502506 0.340429 0.146060 -0.599394
O46   O     O_R   0.566091 0.394341 0.296225 -0.643125
H31   H     H_    0.522853 0.448817 0.290087 0.363610
F4    F     F_    0.348752 0.082767 0.171898 -0.631156
C58   C     C_2   0.317464 0.166528 0.061998 0.949983
O47   O     O_2   0.182009 0.126412 0.036190 -0.491131
O48   O     O_R   0.390970 0.209903 0.004439 -0.664710
H32   H     H_    0.317942 0.209823 0.947196 0.352054
F5    F     F_    0.557719 0.155168 0.138870 -0.736395
F6    F     F_    0.817714 0.820724 0.167234 -0.592889
F7    F     F_    0.760398 0.214426 0.878592 -0.768953
F8    F     F_    0.689200 0.096090 0.762140 -0.773084
C59   C     C_2   0.077112 0.686481 0.179397 1.072327
O49   O     O_2   0.116578 0.656287 0.108719 -0.649707
O50   O     O_R   0.953114 0.638935 0.205956 -0.716114
H33   H     H_    0.907350 0.581415 0.159707 0.342149
F9    F     F_    0.514719 0.137775 0.846978 -0.673156
C60   C     C_2   0.871607 0.303479 0.059776 1.258516
O51   O     O_2   0.977395 0.261923 0.050367 -0.568543
O52   O     O_R   0.720159 0.259346 0.056588 -0.663209
H34   H     H_    0.707040 0.192761 0.033186 0.404106
C61   C     C_2   0.670871 0.437545 0.984877 1.223958
O53   O     O_2   0.658321 0.515358 0.994018 -0.650554
O54   O     O_R   0.542203 0.371678 0.980330 -0.661727
H35   H     H_    0.442142 0.395673 0.981749 0.323635
C62   C     C_2   0.344232 0.665965 0.923336 1.098122
O55   O     O_2   0.265476 0.721515 0.945295 -0.623737
O56   O     O_R   0.485938 0.690437 0.899063 -0.741652
H36   H     H_    0.518632 0.757304 0.914207 0.387715
F10   F     F_    0.317530 0.533072 0.321686 -0.662281
F11   F     F_    0.157824 0.966317 0.441371 -0.594663
F12   F     F_    0.794476 0.915327 0.612032 -0.628963
F13   F     F_    0.034642 0.807135 0.085861 -0.582138
C63   C     C_2   0.155191 0.934137 0.197394 1.347337
O57   O     O_2   0.066896 0.972699 0.156986 -0.459488
O58   O     O_R   0.256308 0.979614 0.277669 -0.772261
H37   H     H_    0.240383 0.042975 0.297081 0.389028
C64   C     C_2   0.434674 0.759445 0.727460 0.951532
O59   O     O_2   0.550188 0.802461 0.781817 -0.528846
O60   O     O_R   0.444300 0.687558 0.663517 -0.736047
H38   H     H_    0.524634 0.658245 0.690610 0.365750
C65   C     C_2   0.194536 0.771689 0.641015 0.892869
O61   O     O_2   0.132899 0.832708 0.624796 -0.485173
O62   O     O_R   0.191617 0.698803 0.571930 -0.752516
H39   H     H_    0.084856 0.675701 0.535194 0.388537

loop_
_geom_bond_atom_site_label_1
_geom_bond_atom_site_label_2
_geom_bond_distance
_ccdc_geom_bond_type
P8    O24   1.740695 S    
C36   C37   1.417468 A    
P2    C34   1.928163 S    
C42   C43   1.392462 A    
C8    C9    1.571864 S    
P3    O8    1.780317 S    
C25   C26   1.454144 A    
O2    Ba1   3.068609 S    
O30   H23   0.995579 S    
H1    C10   1.111968 S    
O4    P6    1.538434 D    
O38   H27   1.004207 S    
C23   C31   1.413738 A    
C63   O57   1.224800 D    
P7    O22   1.806600 S    
C29   C30   1.402883 A    
O56   H36   1.008150 S    
C33   C41   1.450626 A    
C19   C30   1.440593 A    
O7    Ba1   2.902707 S    
C15   C16   1.511127 S    
C47   O25   1.235227 D    
P5    O18   1.545273 D    
C62   O56   1.381584 S    
O52   H34   1.011312 S    
C6    C7    1.581523 S    
O46   H31   0.999401 S    
P2    O10   1.776475 S    
C51   O34   1.389731 S    
P3    O9    1.547069 D    
C18   C21   1.423069 A    
C62   O55   1.220478 D    
O32   H24   1.013695 S    
C18   C26   1.414051 A    
O60   H38   0.985303 S    
O8    Ba1   2.946582 S    
P1    O1    1.614800 D    
H17   C45   1.081860 S    
O6    P6    1.736983 S    
C35   C46   1.409047 A    
C21   C61   1.457424 S    
C2    C3    1.565288 S    
C64   O59   1.220215 D    
C4    O15   1.436756 S    
C59   O49   1.217734 D    
C12   F4    1.376697 S    
O50   H33   1.008303 S    
C20   C21   1.401338 A    
Ba1   O13   2.912480 S    
C44   F12   1.350938 S    
C11   C57   1.500422 S    
O48   H32   1.005991 S    
C7    C51   1.499475 S    
C22   C23   1.408530 A    
C7    F1    1.378935 S    
C43   H20   1.075826 S    
C38   C40   1.486004 A    
C2    C59   1.493628 S    
C3    F13   1.380684 S    
C39   C46   1.453009 A    
C5    C47   1.517338 S    
C37   C38   1.431608 A    
P8    O23   1.549154 D    
C9    F2    1.383702 S    
C15   H13   1.110544 S    
C47   O26   1.409022 S    
C17   C32   1.432303 A    
C5    H3    1.115200 S    
C61   O54   1.394200 S    
C25   C27   1.404776 A    
C58   O48   1.395298 S    
O14   Ba2   2.933101 S    
C8    C52   1.468414 S    
C39   C43   1.388916 A    
C60   O52   1.397127 S    
C28   C29   1.401734 A    
C29   C31   1.426997 A    
P5    C36   1.901117 S    
C14   H11   1.109731 S    
C1    C10   1.516572 S    
P2    O20   1.626224 S    
C13   H8    1.104007 S    
P5    O19   1.750069 S    
C6    H4    1.090140 S    
O17   Ba2   2.947282 S    
C32   H16   1.076829 S    
C40   C41   1.444482 A    
O3    Ba1   2.933752 S    
C35   C36   1.410773 A    
C57   O45   1.224954 D    
P3    C33   1.920660 S    
C11   C12   1.572410 S    
C4    C65   1.496072 S    
C42   F11   1.347460 S    
C11   C56   1.453277 S    
Ba1   O20   3.063837 S    
C19   C20   1.392981 A    
C50   O32   1.393708 S    
O62   H39   0.993325 S    
P1    O2    1.601340 S    
C54   O40   1.393482 S    
C27   C28   1.397798 A    
C1    C55   1.491099 S    
C9    H6    1.097592 S    
C48   O28   1.396411 S    
P3    O11   1.770765 S    
P8    C17   1.912898 S    
O10   C8    1.399995 S    
P7    O21   1.622799 D    
C16   F7    1.370517 S    
C11   O22   1.444111 S    
O28   H22   1.013284 S    
O5    C6    1.403676 S    
C27   C62   1.448745 S    
P4    O13   1.601431 S    
C2    H2    1.108901 S    
C56   O43   1.205533 D    
C10   F3    1.389309 S    
C3    C63   1.490268 S    
P2    O7    1.613221 D    
C65   O61   1.215953 D    
C57   O46   1.371291 S    
P4    C24   2.022480 S    
C1    F6    1.372261 S    
P1    Ba1   3.481886 S    
O6    C10   1.394767 S    
C61   O53   1.218678 D    
Ba2   O20   2.947478 S    
P4    O15   1.836381 S    
O16   P7    1.834868 S    
O12   Ba2   2.866986 S    
C65   O62   1.384272 S    
O26   H21   1.012715 S    
O58   H37   1.011868 S    
C55   O42   1.394071 S    
C4    C64   1.458637 S    
C50   O31   1.213758 D    
C12   F5    1.361938 S    
C14   H10   1.111270 S    
O54   H35   1.013163 S    
C15   O24   1.396011 S    
C53   O38   1.386692 S    
P4    Ba2   3.482667 S    
P4    O12   1.615088 D    
C6    C49   1.506788 S    
P1    C22   1.966191 S    
C56   O44   1.373107 S    
C24   C25   1.473455 A    
P7    C46   1.958199 S    
C28   H15   1.065839 S    
C63   O58   1.390100 S    
O34   H25   1.008989 S    
C20   C60   1.455676 S    
P2    Ba1   3.499380 S    
C60   O51   1.226837 D    
O19   C13   1.404640 S    
C48   O27   1.224240 D    
C16   F8    1.369265 S    
C15   H14   1.110526 S    
C1    C53   1.503580 S    
Ba1   Ba2   4.865675 S    
C23   F10   1.356787 S    
C19   C22   1.464705 A    
O13   Ba2   3.069599 S    
C13   C14   1.517832 S    
C49   O30   1.373428 S    
C54   O39   1.213027 D    
C38   C39   1.449656 A    
C7    C50   1.519577 S    
C24   C32   1.426961 A    
Ba1   O16   2.948011 S    
C51   O33   1.217380 D    
C34   C44   1.430090 A    
C3    H7    1.097851 S    
C16   F9    1.381361 S    
O11   C2    1.413549 S    
O3    P6    1.758183 S    
C53   O37   1.211614 D    
C33   C45   1.411742 A    
P5    O17   1.764670 S    
C41   C42   1.411331 A    
C34   C45   1.402485 A    
Ba2   O21   2.902820 S    
O40   H28   1.012296 S    
O16   Ba2   3.062868 S    
C35   H18   1.077237 S    
C64   O60   1.356948 S    
C37   H19   1.071865 S    
O2    Ba2   2.913165 S    
O42   H29   1.010461 S    
C40   C44   1.453050 A    
C9    C54   1.503132 S    
P6    C31   1.868324 S    
C12   C58   1.520025 S    
C4    C5    1.606616 S    
C59   O50   1.389247 S    
C17   C18   1.434005 A    
C26   C30   1.462100 A    
C49   O29   1.207560 D    
O1    Ba1   2.866325 S    
O14   P8    1.739435 S    
O44   H30   0.992851 S    
C55   O41   1.210623 D    
C13   H9    1.106525 S    
C52   O35   1.212449 D    
C58   O47   1.226810 D    
C52   O36   1.364986 S    
C5    C48   1.508730 S    
P1    O5    1.784676 S    
O36   H26   0.998955 S    
C8    H5    1.088569 S    
C14   H12   1.105442 S    
