data_mof_unit_25842.cif
_audit_creation_date              2012-10-26T19:02:56-0400
_audit_creation_method            fapswitch 2.2
_symmetry_space_group_name_H-M    P1
_symmetry_Int_Tables_number       1
_space_group_crystal_system       triclinic
_cell_length_a                    15.029544
_cell_length_b                    11.07933
_cell_length_c                    9.913932
_cell_angle_alpha                 112.057913
_cell_angle_beta                  97.761059
_cell_angle_gamma                 92.499338
_cell_volume                      1507.9742468

loop_
_atom_site_label
_atom_site_type_symbol
_atom_type_description
_atom_site_fract_x
_atom_site_fract_y
_atom_site_fract_z
_atom_type_partial_charge
C1    C     C_R   0.496536 0.253580 0.439490 0.554873
C2    C     C_2   0.502507 0.476088 0.916709 0.373624
C3    C     C_R   0.329195 0.498154 0.501241 0.580695
C4    C     C_R   0.670944 0.500965 0.498769 0.564572
C5    C     C_R   0.827384 0.601355 0.610107 0.193987
C6    C     C_R   0.175397 0.378286 0.408280 0.188928
C7    C     C_R   0.767840 0.501919 0.497422 0.026348
C8    C     C_R   0.232807 0.489777 0.505422 0.029313
C9    C     C_R   0.800088 0.398663 0.389777 0.180021
C10   C     C_R   0.199665 0.594127 0.609899 0.185474
C11   C     C_R   0.893378 0.383489 0.404833 -0.026364
C12   C     C_R   0.508318 0.745922 0.560919 0.581546
C13   C     C_R   0.108152 0.584701 0.626056 -0.029268
C14   C     C_R   0.954019 0.484226 0.516478 -0.099101
C15   C     C_R   0.047954 0.480733 0.518264 -0.098643
C16   C     C_R   0.920887 0.590422 0.623980 0.033500
C17   C     C_R   0.081558 0.374859 0.410892 0.034937
C18   C     C_R   0.927585 0.269020 0.313788 0.217685
C19   C     C_R   0.075246 0.676373 0.747146 0.215990
C20   C     C_3   0.069784 0.053247 0.276333 -0.255274
C21   C     C_3   0.931193 0.732014 0.977679 -0.256612
C22   C     C_3   0.554000 0.019049 0.859406 -0.237080
C23   C     C_R   0.020549 0.266316 0.312959 0.214080
C24   C     C_3   0.393524 0.018081 0.166681 -0.287822
C25   C     C_3   0.653492 0.732618 0.958946 -0.220794
C26   C     C_3   0.332806 0.288225 0.031821 -0.211264
C27   C     C_R   0.982290 0.682401 0.743700 0.217739
C28   C     C_2   0.496242 0.112185 0.406373 0.101511
C29   C     C_2   0.525985 0.886016 0.598607 0.171966
C30   C     C_2   0.518126 0.072356 0.519818 0.228454
C31   C     C_2   0.484872 0.940011 0.508597 0.263499
C32   C     C_2   0.517022 0.498723 0.080094 0.450400
Cu1   Cu    Cu3+1 0.515770 0.521810 0.644910 0.973616
Cu2   Cu    Cu3+1 0.484230 0.478190 0.355090 1.086214
H1    H     H_    0.739224 0.729187 0.650754 0.306949
H2    H     H_    0.118063 0.095920 0.381646 0.161978
H3    H     H_    0.989893 0.867560 0.909478 0.280096
H4    H     H_    0.901386 0.809343 0.062257 0.149934
H5    H     H_    0.993957 0.708781 0.032097 0.145959
H6    H     H_    0.881699 0.643340 0.928594 0.165259
H7    H     H_    0.370033 0.933815 0.389894 0.322133
H8    H     H_    0.620184 0.200688 0.627213 0.335461
H9    H     H_    0.645809 0.909877 0.740120 0.237838
H10   H     H_    0.608083 0.082013 0.949639 0.183638
H11   H     H_    0.525000 0.942392 0.892362 0.128671
H12   H     H_    0.271421 0.266762 0.350579 0.299599
H13   H     H_    0.500465 0.080932 0.843965 0.200127
H14   H     H_    0.503553 0.930541 0.233708 0.278767
H15   H     H_    0.407039 0.042781 0.072323 0.153642
H16   H     H_    0.349606 0.088071 0.230875 0.142977
H17   H     H_    0.356544 0.918586 0.122672 0.166953
H18   H     H_    0.409419 0.379973 0.754663 0.342386
H19   H     H_    0.643206 0.557379 0.104541 0.309885
H20   H     H_    0.515705 0.743202 0.952458 0.263177
H21   H     H_    0.672641 0.827754 0.053623 0.132754
H22   H     H_    0.655843 0.748644 0.855936 0.192658
H23   H     H_    0.767960 0.296643 0.180791 0.357801
H24   H     H_    0.703343 0.663832 0.967896 0.149818
H25   H     H_    0.349488 0.464592 0.000087 0.232066
H26   H     H_    0.259622 0.278348 0.988569 0.142145
H27   H     H_    0.340873 0.261088 0.129054 0.188356
H28   H     H_    0.367021 0.220650 0.945192 0.145576
H29   H     H_    0.222080 0.783247 0.701226 0.352891
H30   H     H_    0.826177 0.145141 0.288784 0.353158
H31   H     H_    0.183691 0.708817 0.890717 0.353345
H32   H     H_    0.013598 0.111970 0.111131 0.278745
H33   H     H_    0.100068 0.971960 0.197392 0.164057
H34   H     H_    0.006108 0.013019 0.296372 0.149020
N1    N     N_2   0.460520 0.445420 0.137370 -0.099719
N2    N     N_2   0.539480 0.554580 0.862630 -0.150422
N3    N     N_2   0.051868 0.151244 0.215142 -0.418651
N4    N     N_2   0.951258 0.778228 0.865545 -0.415006
N5    N     N_2   0.591492 0.959774 0.725206 -0.497164
N6    N     N_2   0.478436 0.020053 0.256430 -0.544294
N7    N     N_2   0.563771 0.681813 0.961250 -0.451677
N8    N     N_2   0.370421 0.421617 0.073421 -0.394608
O1    O     O_R   0.508410 0.332340 0.577400 -0.474869
O2    O     O_3   0.209514 0.274257 0.307908 -0.688960
O3    O     O_3   0.738854 0.316752 0.269666 -0.684408
O4    O     O_3   0.257438 0.707188 0.686899 -0.692202
O5    O     O_3   0.872918 0.154385 0.230723 -0.722848
O6    O     O_3   0.131557 0.756492 0.874964 -0.731129
O7    O     O_3   0.409421 0.870260 0.407852 -0.706750
O8    O     O_3   0.569744 0.155711 0.651384 -0.638532
O9    O     O_3   0.454073 0.359566 0.823578 -0.692974
O10   O     O_3   0.596994 0.563798 0.168463 -0.659876
O11   O     O_R   0.491590 0.667660 0.422600 -0.424392
O12   O     O_R   0.481780 0.295500 0.332650 -0.501199
O13   O     O_R   0.518220 0.704500 0.667350 -0.530343
O14   O     O_R   0.383570 0.518390 0.622380 -0.509299
O15   O     O_R   0.616430 0.481610 0.377620 -0.410058
O16   O     O_R   0.356940 0.481550 0.377630 -0.471662
O17   O     O_R   0.643060 0.518450 0.622370 -0.517166
O18   O     O_3   0.795781 0.713122 0.702378 -0.686358

loop_
_geom_bond_atom_site_label_1
_geom_bond_atom_site_label_2
_ccdc_geom_bond_type
H9    N5    S    
C11   C18   A    
C12   C29   S    
C1    O1    A    
H23   O3    S    
C20   H33   S    
C25   H22   S    
C28   N6    S    
C5    O18   S    
C17   C23   A    
C2    O9    S    
C3    O14   A    
H18   O9    S    
C26   H27   S    
C30   C31   S    
C11   C14   A    
C6    O2    S    
C29   N5    S    
H7    O7    S    
C18   O5    S    
C31   O7    S    
N1    N8    S    
C2    C32   S    
C9    O3    S    
Cu1   O1    S    
Cu2   O15   S    
C5    C16   A    
C22   H10   S    
C21   H4    S    
C1    C28   S    
C26   N8    S    
C20   N3    S    
H19   O10   S    
C19   O6    S    
C19   C27   A    
C4    O15   A    
C1    O12   A    
C22   H13   S    
C4    C7    S    
H29   O4    S    
C24   H16   S    
C24   H17   S    
C13   C19   A    
C21   N4    S    
C18   C23   A    
H14   N6    S    
C12   O13   A    
H8    O8    S    
C3    C8    S    
C5    C7    A    
C10   O4    S    
C6    C8    A    
H20   N7    S    
C3    O16   A    
C25   N7    S    
Cu1   O13   S    
H32   N3    S    
C21   H5    S    
C32   O10   S    
Cu1   Cu2   S    
Cu2   O12   S    
C9    C11   A    
Cu2   N1    S    
Cu1   N2    S    
C13   C15   A    
C14   C16   A    
C25   H24   S    
H12   O2    S    
H1    O18   S    
C24   H15   S    
C15   C17   A    
C6    C17   A    
C12   O11   A    
C20   H34   S    
C25   H21   S    
C10   C13   A    
Cu1   O17   S    
C32   N1    D    
C28   C30   D    
C26   H28   S    
C29   C31   D    
Cu1   O14   S    
C24   N6    S    
H31   O6    S    
C21   H6    S    
C16   C27   A    
Cu2   O11   S    
C30   O8    S    
Cu2   O16   S    
H30   O5    S    
C4    O17   A    
C20   H2    S    
C7    C9    A    
C22   H11   S    
C23   N3    S    
C8    C10   A    
H3    N4    S    
N2    N7    S    
C14   C15   A    
C22   N5    S    
C2    N2    D    
C26   H26   S    
H25   N8    S    
C27   N4    S    
