data_mof_unit_36318.cif
_audit_creation_date              2012-12-10T17:51:21-0500
_audit_creation_method            fapswitch 2.2
_symmetry_space_group_name_H-M    P1
_symmetry_Int_Tables_number       1
_space_group_crystal_system       triclinic
_cell_length_a                    14.708394
_cell_length_b                    14.628241
_cell_length_c                    17.255302
_cell_angle_alpha                 107.358239
_cell_angle_beta                  73.340845
_cell_angle_gamma                 115.467159
_cell_volume                      3144.70833257

loop_
_atom_site_label
_atom_site_type_symbol
_atom_type_description
_atom_site_fract_x
_atom_site_fract_y
_atom_site_fract_z
_atom_type_partial_charge
C1    C     C_R   0.119086 0.689856 0.515978 0.837927
C2    C     C_R   0.880778 0.310612 0.488489 0.802417
C3    C     C_R   0.185257 0.801762 0.535409 -0.159039
C4    C     C_R   0.812965 0.201364 0.493567 -0.226541
C5    C     C_R   0.209125 0.983466 0.592732 0.380628
C6    C     C_R   0.782150 0.028033 0.506658 0.470074
C7    C     C_R   0.143958 0.879573 0.567398 0.292477
C8    C     C_R   0.850336 0.126742 0.492886 0.253563
C9    C     C_R   0.290548 0.829395 0.528428 -0.296632
C10   C     C_R   0.706968 0.175163 0.510044 -0.275319
C11   C     C_R   0.355949 0.931619 0.555766 -0.041688
C12   C     C_R   0.637226 0.080816 0.532597 -0.036136
C13   C     C_R   0.316642 0.010915 0.580101 -0.115345
C14   C     C_R   0.674763 0.003621 0.525916 -0.137534
C15   C     C_R   0.460963 0.956674 0.555345 -0.095100
C16   C     C_R   0.530262 0.060318 0.557544 -0.087205
C17   C     C_R   0.489954 0.139945 0.586446 0.306982
C18   C     C_R   0.498511 0.882259 0.556523 0.279296
C19   C     C_R   0.384618 0.115463 0.593363 0.412607
C20   C     C_R   0.604601 0.904509 0.539162 0.402162
C21   C     C_R   0.287582 0.319471 0.366858 -0.395340
C22   C     C_R   0.701783 0.665230 0.646148 -0.372892
C23   C     C_R   0.985422 0.496275 0.652076 0.859736
C24   C     C_R   0.010132 0.496248 0.346628 0.821078
C25   C     C_R   0.208241 0.355525 0.382907 0.694650
C26   C     C_R   0.789170 0.639822 0.620719 0.696982
C27   C     C_R   0.283737 0.488080 0.491982 0.002360
C28   C     C_R   0.711263 0.505047 0.513868 0.005686
C29   C     C_R   0.362969 0.451475 0.481115 -0.002935
C30   C     C_R   0.617782 0.521442 0.541230 -0.002770
C31   C     C_R   0.362143 0.365148 0.416743 0.030622
C32   C     C_R   0.616947 0.605845 0.607452 0.037470
C33   C     C_R   0.443583 0.497345 0.529030 -0.074943
C34   C     C_R   0.528221 0.462296 0.503323 -0.068028
C35   C     C_R   0.519003 0.369420 0.441873 0.434941
C36   C     C_R   0.442929 0.575120 0.602411 0.451157
C37   C     C_R   0.434738 0.322346 0.401864 -0.252280
C38   C     C_R   0.531110 0.631162 0.636519 -0.230318
C39   C     C_R   0.971556 0.480544 0.736138 -0.243988
C40   C     C_R   0.007187 0.481714 0.258517 -0.301129
C41   C     C_R   0.031179 0.434962 0.750704 0.341256
C42   C     C_R   0.915456 0.466911 0.236209 0.407429
C43   C     C_R   0.032424 0.435931 0.830942 -0.270132
C44   C     C_R   0.903312 0.427612 0.154101 -0.310486
C45   C     C_R   0.968569 0.473048 0.897198 -0.120319
C46   C     C_R   0.985065 0.417262 0.092439 -0.130372
C47   C     C_R   0.897497 0.504211 0.883173 0.316718
C48   C     C_R   0.079825 0.440936 0.111996 0.441419
C49   C     C_R   0.899417 0.509307 0.802122 0.268218
C50   C     C_R   0.091961 0.474181 0.194923 0.277787
C51   C     C_2   0.979649 0.483574 0.982031 0.421322
C52   C     C_2   0.975851 0.402605 0.006670 0.384756
Cu1   Cu    Cu3+1 0.916740 0.524770 0.521640 1.034783
Cu2   Cu    Cu3+1 0.083260 0.475230 0.478360 0.996076
H1    H     H_    0.424215 0.249631 0.358318 0.136867
H2    H     H_    0.532043 0.696613 0.687188 0.171351
H3    H     H_    0.724930 0.451355 0.458917 0.224345
H4    H     H_    0.279604 0.556588 0.535121 0.229045
H5    H     H_    0.293189 0.256707 0.315715 0.151572
H6    H     H_    0.697833 0.729624 0.696272 0.130083
H7    H     H_    0.831429 0.411371 0.137394 0.162203
H8    H     H_    0.086099 0.410176 0.841364 0.199885
H9    H     H_    0.679028 0.229991 0.505052 0.258524
H10   H     H_    0.321879 0.770011 0.500004 0.226345
N1    N     N_R   0.208390 0.438070 0.445820 -0.241512
N2    N     N_R   0.791610 0.561930 0.554180 -0.236089
O1    O     O_R   0.020090 0.662480 0.528530 -0.485103
O2    O     O_R   0.979910 0.337520 0.471470 -0.550432
O3    O     O_R   0.160710 0.620650 0.491980 -0.616710
O4    O     O_R   0.839290 0.379350 0.508020 -0.591245
O5    O     O_R   0.921540 0.523360 0.633990 -0.488365
O6    O     O_R   0.078460 0.476640 0.366010 -0.528141
O7    O     O_R   0.062170 0.481520 0.597440 -0.556182
O8    O     O_R   0.937830 0.518480 0.402560 -0.551967
O9    O     O_3   0.096118 0.397169 0.687373 -0.577296
C53   C     C_3   0.043258 0.290654 0.659758 0.066152
H11   H     H_    0.978586 0.277717 0.631285 0.178828
H12   H     H_    0.012543 0.248573 0.711508 0.143321
C54   C     C_3   0.116978 0.246495 0.595141 -0.598743
H13   H     H_    0.186251 0.265425 0.619840 0.258015
H14   H     H_    0.079060 0.161173 0.577767 0.253209
H15   H     H_    0.140735 0.279754 0.539253 0.236774
O10   O     O_3   0.836469 0.488519 0.294776 -0.578219
C55   C     C_3   0.825918 0.573128 0.279598 0.095262
H16   H     H_    0.798805 0.552219 0.220456 0.148656
H17   H     H_    0.899954 0.641039 0.277737 0.152252
C56   C     C_3   0.746803 0.604766 0.347875 -0.814403
H18   H     H_    0.774272 0.634190 0.407366 0.255248
H19   H     H_    0.734334 0.667011 0.333358 0.202560
H20   H     H_    0.672862 0.537848 0.353310 0.238573
O11   O     O_3   0.548272 0.240568 0.618465 -0.739115
H21   H     H_    0.598816 0.238823 0.645080 0.336055
O12   O     O_3   0.434789 0.792154 0.584396 -0.731597
H22   H     H_    0.378135 0.805865 0.627242 0.345702
O13   O     O_3   0.875293 0.690176 0.658212 -0.510197
C57   C     C_3   0.863747 0.759381 0.733917 0.104551
H23   H     H_    0.793953 0.721883 0.777537 0.134158
H24   H     H_    0.861294 0.829242 0.722624 0.142871
C58   C     C_3   0.956032 0.793560 0.774002 -0.753693
H25   H     H_    0.027819 0.814724 0.727840 0.247833
H26   H     H_    0.957778 0.861049 0.825514 0.182341
H27   H     H_    0.952174 0.730188 0.798948 0.260883
O14   O     O_3   0.131816 0.315869 0.335508 -0.543856
C59   C     C_3   0.114331 0.214514 0.287974 0.021743
H28   H     H_    0.031213 0.176041 0.285936 0.153908
H29   H     H_    0.130423 0.164583 0.315583 0.120232
C60   C     C_3   0.170840 0.217799 0.199149 -0.818841
H30   H     H_    0.253810 0.264898 0.196652 0.246344
H31   H     H_    0.160803 0.138104 0.163777 0.202857
H32   H     H_    0.138309 0.252177 0.170042 0.242534
O15   O     O_3   0.582987 0.316512 0.429851 -0.587649
C61   C     C_3   0.619570 0.285809 0.344437 0.047305
H33   H     H_    0.643751 0.348860 0.310492 0.170657
H34   H     H_    0.560294 0.215663 0.315846 0.142163
C62   C     C_3   0.710930 0.256593 0.332882 -0.758459
H35   H     H_    0.686112 0.185497 0.356861 0.231113
H36   H     H_    0.743764 0.240874 0.266067 0.200020
H37   H     H_    0.771383 0.320031 0.365043 0.266092
O16   O     O_3   0.359270 0.602988 0.638813 -0.582296
C63   C     C_3   0.319298 0.581954 0.719330 0.098714
H38   H     H_    0.378854 0.603931 0.756444 0.117113
H39   H     H_    0.273262 0.498103 0.715439 0.196474
C64   C     C_3   0.252016 0.643537 0.765738 -0.748179
H40   H     H_    0.192345 0.626463 0.730414 0.255063
H41   H     H_    0.214787 0.623716 0.827483 0.204350
H42   H     H_    0.299517 0.727572 0.774057 0.230944
O17   O     O_3   0.188571 0.503739 0.210672 -0.686601
H43   H     H_    0.198252 0.561656 0.259208 0.333404
O18   O     O_3   0.831977 0.541089 0.785854 -0.707188
H44   H     H_    0.787842 0.560608 0.837781 0.349344
O19   O     O_3   0.958766 0.307192 0.953914 -0.781431
H45   H     H_    0.955664 0.258234 0.984740 0.315158
O20   O     O_3   0.994077 0.577291 0.037355 -0.743333
H46   H     H_    0.004008 0.629987 0.007295 0.342559
O21   O     O_3   0.830970 0.536339 0.949273 -0.586507
C65   C     C_3   0.744222 0.448438 0.968645 0.072590
H47   H     H_    0.766016 0.392670 0.984036 0.147366
H48   H     H_    0.702096 0.408767 0.916101 0.147361
C66   C     C_3   0.672585 0.482253 0.043570 -0.780984
H49   H     H_    0.647732 0.536704 0.030004 0.251687
H50   H     H_    0.603953 0.413767 0.059442 0.196159
H51   H     H_    0.712381 0.521128 0.097229 0.245830
O22   O     O_3   0.164236 0.447097 0.049235 -0.548131
C67   C     C_3   0.182799 0.355217 0.030572 0.100782
H52   H     H_    0.110921 0.284796 0.034255 0.097840
H53   H     H_    0.229588 0.361066 0.073521 0.188198
C68   C     C_3   0.242981 0.342105 0.942900 -0.788209
H54   H     H_    0.317411 0.408621 0.937458 0.254728
H55   H     H_    0.257726 0.269724 0.926977 0.196295
H56   H     H_    0.198593 0.337914 0.898732 0.252283
O23   O     O_3   0.346629 0.192873 0.612470 -0.697552
H57   H     H_    0.403510 0.260550 0.608379 0.366897
O24   O     O_3   0.640849 0.830436 0.536415 -0.694454
H58   H     H_    0.586266 0.760899 0.526975 0.358042
O25   O     O_3   0.953143 0.147994 0.481780 -0.739827
H59   H     H_    0.984951 0.172570 0.429412 0.327809
O26   O     O_3   0.039941 0.852337 0.574351 -0.704916
H60   H     H_    0.022429 0.914634 0.594166 0.355823
O27   O     O_3   0.166020 0.056581 0.633687 -0.557786
C69   C     C_3   0.153586 0.065232 0.719709 0.090863
H61   H     H_    0.229082 0.096859 0.739202 0.163188
H62   H     H_    0.107262 0.989156 0.737662 0.119834
C70   C     C_3   0.097796 0.137588 0.766948 -0.773357
H63   H     H_    0.022185 0.108055 0.748504 0.243698
H64   H     H_    0.085331 0.141785 0.834310 0.202294
H65   H     H_    0.144179 0.216410 0.754257 0.256444
O28   O     O_3   0.822648 0.959610 0.509464 -0.506294
C71   C     C_3   0.854604 0.911776 0.428134 0.112013
H66   H     H_    0.898958 0.967659 0.386150 0.116426
H67   H     H_    0.786818 0.852257 0.401807 0.147054
C72   C     C_3   0.923382 0.859755 0.430713 -0.706681
H68   H     H_    0.882802 0.804417 0.473087 0.267900
H69   H     H_    0.945327 0.817586 0.367895 0.177278
H70   H     H_    0.994015 0.919044 0.452917 0.257195

loop_
_geom_bond_atom_site_label_1
_geom_bond_atom_site_label_2
_ccdc_geom_bond_type
C15   C18   A    
C56   H18   S    
O26   H60   S    
C29   C33   A    
C27   C29   A    
C9    H10   S    
C60   H31   S    
C2    C4    S    
C68   H54   S    
C17   O11   S    
C53   C54   S    
C4    C8    A    
C59   H29   S    
C64   H40   S    
C39   C41   A    
Cu2   N1    S    
C28   H3    S    
C72   H69   S    
O12   H22   S    
C22   C32   A    
O10   C55   S    
C3    C9    A    
C68   H55   S    
C53   H12   S    
C21   H5    S    
C2    O2    A    
C67   C68   S    
C22   H6    S    
C66   H51   S    
C23   C39   S    
C64   H41   S    
Cu2   O2    S    
C45   C51   S    
C62   H35   S    
C57   C58   S    
C46   C52   S    
C11   C13   A    
C33   C36   A    
C14   C20   A    
C34   C35   A    
C8    O25   S    
C36   O16   S    
C59   H28   S    
O14   C59   S    
C1    O1    A    
C11   C15   A    
C71   C72   S    
C10   H9    S    
C63   H39   S    
C16   C17   A    
C62   H36   S    
C56   H19   S    
C57   H24   S    
C19   O23   S    
O23   H57   S    
C55   C56   S    
C32   C38   A    
C5    C13   A    
C63   C64   S    
C66   H50   S    
C40   C42   A    
C41   C43   A    
C42   C44   A    
C23   O7    A    
C65   C66   S    
Cu1   O4    S    
C61   H34   S    
C61   H33   S    
C44   C46   A    
C45   C47   A    
C72   H70   S    
C46   C48   A    
C20   O24   S    
C30   C34   A    
C51   C52   D    
C26   N2    A    
C69   C70   S    
C12   C16   A    
O21   C65   S    
C68   H56   S    
C25   N1    A    
C55   H16   S    
C67   H53   S    
O11   H21   S    
C5    C7    A    
C13   C19   A    
C25   O14   S    
C64   H42   S    
C6    C8    A    
C5    O27   S    
Cu1   Cu2   S    
C49   O18   S    
C1    O3    A    
C31   C37   A    
C48   O22   S    
C1    C3    S    
C69   H62   S    
C28   N2    A    
O9    C53   S    
C27   N1    A    
C23   O5    A    
C6    C14   A    
Cu2   O7    S    
C21   C31   A    
O27   C69   S    
C60   H30   S    
C62   H37   S    
C57   H23   S    
C70   H65   S    
C33   C34   A    
C38   H2    S    
C53   H11   S    
O16   C63   S    
C48   C50   A    
C43   C45   A    
C72   H68   S    
C10   C12   A    
C41   O9    S    
C65   H48   S    
C71   H66   S    
C58   H26   S    
C12   C14   A    
C9    C11   A    
O20   H46   S    
C60   H32   S    
C4    C10   A    
O19   H45   S    
Cu1   O5    S    
O28   C71   S    
C35   O15   S    
C63   H38   S    
C24   O6    A    
C54   H14   S    
O18   H44   S    
C35   C37   A    
C26   O13   S    
C21   C25   A    
C6    O28   S    
O15   C61   S    
C47   O21   S    
C52   O19   S    
C42   O10   S    
C55   H17   S    
C67   H52   S    
C27   H4    S    
C54   H15   S    
C66   H49   S    
C39   C49   A    
C7    O26   S    
C44   H7    S    
C47   C49   A    
C3    C7    A    
C58   H25   S    
C69   H61   S    
C36   C38   A    
O22   C67   S    
O13   C57   S    
C28   C30   A    
C29   C31   A    
Cu1   N2    S    
C30   C32   A    
C51   O20   S    
C24   O8    A    
Cu2   O3    S    
C40   C50   A    
C15   C16   A    
C71   H67   S    
C24   C40   S    
C18   C20   A    
C61   C62   S    
Cu1   O1    S    
C70   H63   S    
C54   H13   S    
C37   H1    S    
C17   C19   A    
C58   H27   S    
Cu2   O6    S    
C22   C26   A    
C56   H20   S    
O25   H59   S    
C18   O12   S    
C65   H47   S    
C70   H64   S    
C50   O17   S    
O24   H58   S    
C2    O4    A    
C59   C60   S    
O17   H43   S    
C43   H8    S    
Cu1   O8    S    
