data_mof_unit_20429.cif
_audit_creation_date              2013-03-05T15:42:40-0500
_audit_creation_method            fapswitch 2.2
_symmetry_space_group_name_H-M    P1
_symmetry_Int_Tables_number       1
_space_group_crystal_system       triclinic
_cell_length_a                    7.772663
_cell_length_b                    8.532633
_cell_length_c                    27.566108
_cell_angle_alpha                 90.935173
_cell_angle_beta                  84.899687
_cell_angle_gamma                 94.032597
_cell_volume                      1816.3792354

loop_
_atom_site_label
_atom_site_type_symbol
_atom_site_description
_atom_site_fract_x
_atom_site_fract_y
_atom_site_fract_z
_atom_type_partial_charge
O1    O     O_R   0.389250 0.738570 0.503220 -0.605580
O2    O     O_R   0.610750 0.261430 0.496780 -0.593345
O3    O     O_R   0.678390 0.711630 0.494810 -0.585983
O4    O     O_R   0.321610 0.288370 0.505190 -0.582381
C1    C     C_R   0.546040 0.794799 0.498599 0.937102
C2    C     C_R   0.453958 0.205201 0.501268 0.966830
O5    O     O_R   0.355440 0.513440 0.575450 -0.562078
O6    O     O_R   0.644560 0.486560 0.424550 -0.576997
O7    O     O_R   0.644590 0.486500 0.567040 -0.621998
O8    O     O_R   0.355410 0.513500 0.432960 -0.616716
C3    C     C_R   0.500811 0.498670 0.594241 0.903152
C4    C     C_R   0.498948 0.499278 0.405992 0.914579
Zn1   Zn    Zn3+2 0.306940 0.517990 0.505620 1.141747
Zn2   Zn    Zn3+2 0.693060 0.482010 0.494380 1.139528
C5    C     C_R   0.624685 0.632284 0.819347 0.498639
C6    C     C_R   0.381442 0.459329 0.179590 0.518352
O9    O     O_2   0.660828 0.759562 0.790973 -0.556274
O10   O     O_2   0.272755 0.361114 0.207509 -0.569109
N1    N     N_R   0.560758 0.496264 0.798615 -0.334625
N2    N     N_R   0.489769 0.564465 0.201969 -0.339574
C7    C     C_R   0.522442 0.361933 0.824471 0.522791
C8    C     C_R   0.599996 0.671263 0.176756 0.522304
C9    C     C_R   0.370469 0.497477 0.731109 0.100679
C10   C     C_R   0.620020 0.451296 0.270613 0.081396
C11   C     C_R   0.355534 0.497698 0.680399 0.286027
C12   C     C_R   0.618661 0.431211 0.321357 0.264850
C13   C     C_R   0.668920 0.491800 0.665627 -0.151747
C14   C     C_R   0.380387 0.603308 0.334482 -0.193451
C15   C     C_R   0.683673 0.490842 0.715100 -0.090103
C16   C     C_R   0.382341 0.624300 0.284814 -0.103425
C17   C     C_R   0.537053 0.494094 0.747835 0.240238
C18   C     C_R   0.500813 0.549905 0.253005 0.253304
C19   C     C_R   0.588884 0.504480 0.897740 -0.062302
C20   C     C_R   0.517474 0.549911 0.101667 -0.084107
C21   C     C_R   0.647024 0.639566 0.869794 -0.082505
C22   C     C_R   0.390154 0.449682 0.128268 -0.053516
C23   C     C_R   0.717680 0.776398 0.893614 0.126026
C24   C     C_R   0.283166 0.341622 0.102284 0.149253
C25   C     C_R   0.528223 0.364952 0.874762 -0.064381
C26   C     C_R   0.618116 0.664820 0.126017 -0.076830
C27   C     C_R   0.506335 0.495776 0.647489 -0.211771
C28   C     C_R   0.498235 0.508468 0.353141 -0.167209
H1    H     H_    0.786511 0.490299 0.641497 0.255045
H2    H     H_    0.288335 0.663943 0.358492 0.203911
H3    H     H_    0.810355 0.488588 0.728326 0.176290
H4    H     H_    0.290153 0.697457 0.270759 0.167627
C29   C     C_R   0.663492 0.641930 0.023718 -0.037337
C30   C     C_R   0.506033 0.381736 0.976654 -0.042559
C31   C     C_R   0.460483 0.408768 0.026674 0.061153
C32   C     C_R   0.659960 0.642251 0.972356 0.048009
C33   C     C_R   0.546648 0.534013 0.050668 0.055746
C34   C     C_R   0.587152 0.508892 0.948871 0.046678
C35   C     C_R   0.773953 0.747323 0.049277 0.295976
C36   C     C_R   0.466861 0.236224 0.952935 0.255253
C37   C     C_R   0.745205 0.761534 0.099760 -0.186482
C38   C     C_R   0.474542 0.231080 0.902241 -0.237527
O11   O     O_2   0.696937 0.778413 0.200998 -0.574712
O12   O     O_2   0.474126 0.227130 0.801451 -0.551207
C39   C     C_R   0.716803 0.775448 0.944557 -0.032385
C40   C     C_R   0.321970 0.322244 0.052163 -0.117733
H5    H     H_    0.830353 0.842389 0.118743 0.202977
H6    H     H_    0.439057 0.121156 0.884302 0.220506
H7    H     H_    0.751855 0.882902 0.963217 0.205265
H8    H     H_    0.238531 0.241414 0.032694 0.197663
C41   C     C_2   0.570104 0.958516 0.497254 -0.291492
C42   C     C_2   0.429891 0.041479 0.502379 -0.306033
H9    H     H_    0.702185 0.010038 0.491833 0.248333
H10   H     H_    0.297811 0.989968 0.507773 0.245269
N3    N     N_2   0.950320 0.457960 0.486880 0.038001
N4    N     N_2   0.049680 0.542040 0.513120 0.043243
N5    N     N_R   0.998620 0.305724 0.479557 0.305610
O13   O     O_R   0.969992 0.205719 0.514979 -0.352068
O14   O     O_R   0.032364 0.253983 0.435365 -0.304471
N6    N     N_R   0.000981 0.694051 0.520687 0.302490
O15   O     O_R   0.029740 0.794755 0.485461 -0.369316
O16   O     O_R   0.966944 0.744926 0.564967 -0.326183
C43   C     C_3   0.794831 0.921687 0.865307 -0.334995
C44   C     C_3   0.895489 0.048006 0.893758 -0.842866
H11   H     H_    0.807545 0.107534 0.920920 0.268537
H12   H     H_    0.999336 0.995873 0.912074 0.306626
H13   H     H_    0.957061 0.138840 0.868141 0.259276
H14   H     H_    0.888623 0.883003 0.835549 0.247934
H15   H     H_    0.689487 0.978647 0.849166 0.264873
C45   C     C_3   0.125693 0.245157 0.124974 -0.363577
C46   C     C_3   0.173870 0.084006 0.140621 -0.671598
H16   H     H_    0.222800 0.015400 0.108324 0.284180
H17   H     H_    0.275681 0.095224 0.166461 0.271363
H18   H     H_    0.057753 0.018455 0.158620 0.239610
H19   H     H_    0.057004 0.308526 0.155391 0.233554
H20   H     H_    0.027464 0.226605 0.098097 0.219156
N7    N     N_R   0.734721 0.328938 0.340419 0.216400
O17   O     O_R   0.900455 0.366499 0.336866 -0.340145
O18   O     O_R   0.673445 0.206828 0.365715 -0.366947
N8    N     N_R   0.187995 0.499365 0.662701 0.198700
O19   O     O_R   0.110841 0.369613 0.647694 -0.378402
O20   O     O_R   0.109647 0.629242 0.663441 -0.368363
C47   C     C_3   0.742883 0.363782 0.235493 -0.417118
C48   C     C_3   0.681350 0.190783 0.230489 -0.698280
H21   H     H_    0.677743 0.129846 0.265836 0.295914
H22   H     H_    0.550246 0.179530 0.217257 0.265759
H23   H     H_    0.771700 0.132045 0.203748 0.255016
H24   H     H_    0.756082 0.415419 0.198622 0.195212
H25   H     H_    0.875567 0.373826 0.247574 0.270411
C49   C     C_3   0.210054 0.499918 0.766900 -0.394115
C50   C     C_3   0.178699 0.666011 0.785195 -0.749961
H26   H     H_    0.287859 0.715089 0.805338 0.274413
H27   H     H_    0.162891 0.743996 0.754291 0.301180
H28   H     H_    0.058687 0.662634 0.810296 0.235298
H29   H     H_    0.093598 0.450502 0.750033 0.229238
H30   H     H_    0.219945 0.423463 0.798457 0.222041
N9    N     N_R   0.929946 0.822939 0.025918 0.191923
O21   O     O_R   0.982759 0.964000 0.039103 -0.407622
O22   O     O_R   0.029868 0.744296 0.995535 -0.365944
N10   N     N_R   0.437609 0.090662 0.979108 0.190858
O23   O     O_R   0.343461 0.974015 0.961943 -0.352523
O24   O     O_R   0.524614 0.066493 0.016199 -0.411346

loop_
_geom_bond_atom_site_label_1
_geom_bond_atom_site_label_2
_geom_bond_distance
_ccdc_geom_bond_type
C42   H10   1.086629 S    
C13   C15   1.378918 A    
N9    O21   1.300801 A    
N1    C17   1.427682 S    
C8    O11   1.350146 S    
C47   C48   1.527265 S    
C43   C44   1.533560 S    
C19   C34   1.408244 A    
C30   C36   1.420404 A    
C50   H27   1.110071 S    
C20   C33   1.409834 A    
C19   C25   1.410835 A    
C31   C40   1.403031 A    
N6    O16   1.299902 A    
O1    C1    1.274264 A    
C32   C39   1.404170 A    
N1    C7    1.360665 A    
C10   C12   1.411069 A    
C49   H29   1.108175 S    
C44   H12   1.111135 S    
Zn1   N4    2.016448 S    
C43   H15   1.110158 S    
C36   N10   1.440573 S    
C14   C28   1.400028 A    
O4    Zn1   1.970350 S    
N3    N5    1.384043 S    
C4    C28   1.460780 S    
C5    N1    1.366847 A    
C9    C49   1.520768 S    
C31   C33   1.408230 A    
N4    N6    1.383957 S    
C32   C34   1.408802 A    
C16   C18   1.392931 A    
C47   H24   1.107887 S    
C6    N2    1.364673 A    
C29   C35   1.421445 A    
C24   C45   1.518501 S    
C35   N9    1.437263 S    
C46   H17   1.109089 S    
C11   N8    1.431706 S    
O2    C2    1.274206 A    
C45   H20   1.112042 S    
C5    C21   1.416485 A    
C49   C50   1.524996 S    
N10   O23   1.301451 A    
C29   C32   1.418622 A    
C35   C37   1.394378 A    
C50   H28   1.109876 S    
C36   C38   1.393481 A    
N6    O15   1.301105 A    
C10   C47   1.522879 S    
C45   C46   1.528899 S    
C1    C41   1.396962 S    
C11   C27   1.417851 A    
N7    O17   1.300874 A    
N5    O14   1.299845 A    
C44   H11   1.109639 S    
C29   C33   1.417524 A    
C41   H9    1.086707 S    
C12   N7    1.435743 S    
C46   H16   1.110890 S    
C23   C43   1.532696 S    
C14   H2    1.083677 S    
C15   H3    1.081469 S    
C9    C17   1.414838 A    
O5    C3    1.298900 A    
O7    Zn2   2.005136 S    
C10   C18   1.415985 A    
N7    O18   1.301377 A    
C13   C27   1.402519 A    
C25   C38   1.399183 A    
C7    C25   1.390806 A    
C30   C34   1.416457 A    
O6    C4    1.294792 A    
C26   C37   1.399422 A    
C8    C26   1.393819 A    
N8    O19   1.300873 A    
N9    O22   1.301652 A    
C47   H25   1.108858 S    
N8    O20   1.300504 A    
O7    C3    1.298730 A    
C23   C39   1.403875 A    
O3    Zn2   1.970350 S    
O8    C4    1.296433 A    
C24   C40   1.397411 A    
O4    C2    1.286044 A    
C30   C31   1.412106 A    
N2    C8    1.361070 A    
C48   H21   1.109150 S    
C48   H22   1.109891 S    
Zn2   N3    2.016447 S    
C38   H6    1.083096 S    
O1    Zn1   1.945063 S    
C45   H19   1.107549 S    
C12   C28   1.414386 A    
N2    C18   1.425020 S    
C46   H18   1.109969 S    
C5    O9    1.347551 S    
O6    Zn2   1.995629 S    
C21   C23   1.429960 A    
C16   H4    1.083217 S    
O3    C1    1.286041 A    
O8    Zn1   2.005136 S    
N10   O24   1.301811 A    
C48   H23   1.110464 S    
C50   H26   1.108954 S    
C39   H7    1.074172 S    
C40   H8    1.082208 S    
C14   C16   1.382336 A    
C7    O12   1.350741 S    
C15   C17   1.390897 A    
C6    C22   1.411693 A    
C49   H30   1.107121 S    
C44   H13   1.110868 S    
C43   H14   1.109971 S    
C37   H5    1.083219 S    
C22   C24   1.425197 A    
C19   C21   1.421298 A    
C3    C27   1.472945 S    
C20   C22   1.421563 A    
C9    C11   1.412993 A    
N3    N4    1.280156 D    
O2    Zn2   1.945063 S    
C13   H1    1.082251 S    
O5    Zn1   1.995629 S    
N5    O13   1.301138 A    
C6    O10   1.346907 S    
C41   C42   1.336660 D    
C20   C26   1.409891 A    
C2    C42   1.396818 S    
