data_mof_unit_38247.cif
_audit_creation_date              2013-03-05T16:32:34-0500
_audit_creation_method            fapswitch 2.2
_symmetry_space_group_name_H-M    P1
_symmetry_Int_Tables_number       1
_space_group_crystal_system       triclinic
_cell_length_a                    15.839984
_cell_length_b                    10.840556
_cell_length_c                    9.637911
_cell_angle_alpha                 91.552107
_cell_angle_beta                  90.344195
_cell_angle_gamma                 90.800109
_cell_volume                      1654.16424134

loop_
_atom_site_label
_atom_site_type_symbol
_atom_site_description
_atom_site_fract_x
_atom_site_fract_y
_atom_site_fract_z
_atom_type_partial_charge
O1    O     O_R   0.500000 0.319640 0.618810 -0.531078
O2    O     O_R   0.500010 0.319680 0.381230 -0.537966
C1    C     C_R   0.498569 0.262607 0.498051 0.896707
O3    O     O_R   0.379070 0.499970 0.618770 -0.556565
O4    O     O_R   0.379080 0.500010 0.381190 -0.526509
C2    C     C_R   0.340103 0.499911 0.499647 0.844695
Cu1   Cu    Cu3+1 0.500000 0.499980 0.640670 1.083438
Cu2   Cu    Cu3+1 0.500000 0.500020 0.359330 1.105985
O5    O     O_R   0.499990 0.680320 0.618770 -0.589424
O6    O     O_R   0.500000 0.680360 0.381190 -0.569037
O7    O     O_R   0.620920 0.499990 0.618810 -0.547664
O8    O     O_R   0.620930 0.500030 0.381230 -0.557522
C3    C     C_R   0.497348 0.737141 0.501629 0.840569
C4    C     C_R   0.659877 0.501205 0.500426 0.852132
C5    C     C_3   0.971936 0.444341 0.611996 -0.176213
C6    C     C_3   0.027084 0.386325 0.495071 -0.095203
H1    H     H_    0.050012 0.290010 0.489888 0.195202
H2    H     H_    0.947657 0.395278 0.703513 0.212338
C7    C     C_1   0.250438 0.500926 0.499112 -0.001512
C8    C     C_1   0.749525 0.502327 0.501214 0.050541
C9    C     C_3   0.030045 0.561337 0.617378 -0.179380
C10   C     C_3   0.083280 0.503517 0.499835 0.042633
C11   C     C_3   0.974501 0.618413 0.505321 0.331136
C12   C     C_3   0.916780 0.504360 0.500685 0.030250
C13   C     C_3   0.029092 0.564026 0.387818 -0.170871
C14   C     C_3   0.971376 0.447640 0.385194 0.078328
C15   C     C_1   0.174881 0.502090 0.499324 0.073884
C16   C     C_1   0.825076 0.503285 0.501237 0.127340
H3    H     H_    0.052873 0.613818 0.296450 0.202246
H4    H     H_    0.055011 0.609689 0.712328 0.203265
C17   C     C_R   0.527545 0.066990 0.607100 0.016057
C18   C     C_R   0.494664 0.128777 0.494835 -0.235542
C19   C     C_R   0.448461 0.060010 0.392277 0.227267
C20   C     C_R   0.444187 0.930141 0.397944 0.241059
C21   C     C_R   0.487299 0.869939 0.505412 -0.202772
C22   C     C_R   0.521817 0.940819 0.615040 -0.012032
C23   C     C_3   0.604665 0.932422 0.689248 -0.456678
C24   C     C_3   0.612752 0.072408 0.676659 0.540423
H5    H     H_    0.596652 0.904184 0.797947 0.221363
H6    H     H_    0.650933 0.877300 0.628442 0.232221
C25   C     C_R   0.572557 0.524113 0.075064 0.142429
N1    N     N_R   0.500530 0.500930 0.147930 -0.282432
C26   C     C_R   0.429968 0.465577 0.070592 0.356124
C27   C     C_R   0.432123 0.457540 0.923461 0.350289
N2    N     N_R   0.500530 0.500890 0.852020 -0.289826
C28   C     C_R   0.572078 0.525873 0.928248 0.148416
C29   C     C_3   0.623807 0.641790 0.926857 0.045326
C30   C     C_3   0.625433 0.639812 0.085574 0.051456
H7    H     H_    0.588037 0.719636 0.885148 0.097192
H8    H     H_    0.591997 0.717943 0.137139 0.128055
N3    N     N_R   0.612441 0.140841 0.810224 0.136750
O9    O     O_R   0.672434 0.220191 0.841542 -0.249315
O10   O     O_R   0.551243 0.124930 0.897833 -0.283307
N4    N     N_R   0.682290 0.110085 0.586040 0.125456
O11   O     O_R   0.753474 0.051626 0.588750 -0.252798
O12   O     O_R   0.679904 0.215585 0.525285 -0.377397
N5    N     N_R   0.350048 0.446085 0.134132 0.160627
O13   O     O_R   0.319757 0.334585 0.142256 -0.236258
O14   O     O_R   0.298216 0.538071 0.142873 -0.282311
N6    N     N_R   0.362254 0.399703 0.851667 0.169018
O15   O     O_R   0.369111 0.287009 0.803816 -0.275978
O16   O     O_R   0.288019 0.449580 0.856539 -0.301142
N7    N     N_R   0.706348 0.624750 0.861474 0.186431
O17   O     O_R   0.741890 0.716326 0.798594 -0.310647
O18   O     O_R   0.743637 0.518416 0.861206 -0.267678
N8    N     N_R   0.709626 0.620405 0.144388 0.180195
O19   O     O_R   0.757583 0.715399 0.176468 -0.278304
O20   O     O_R   0.738661 0.509844 0.160239 -0.313638
C31   C     C_3   0.938378 0.382769 0.253621 -0.646704
H9    H     H_    0.992149 0.346461 0.192389 0.244918
H10   H     H_    0.895729 0.305181 0.280993 0.259785
H11   H     H_    0.903224 0.449124 0.190377 0.274322
N9    N     N_R   0.947192 0.746255 0.511318 0.161058
O21   O     O_R   0.003181 0.835157 0.515260 -0.279954
O22   O     O_R   0.867330 0.772451 0.512505 -0.267416
N10   N     N_R   0.404416 0.120309 0.284112 0.165382
O23   O     O_R   0.445819 0.154459 0.175146 -0.231782
O24   O     O_R   0.322465 0.111707 0.278219 -0.248712
N11   N     N_R   0.396637 0.860556 0.294475 0.166823
O25   O     O_R   0.338728 0.782020 0.331626 -0.310565
O26   O     O_R   0.409745 0.877221 0.163118 -0.266996

loop_
_geom_bond_atom_site_label_1
_geom_bond_atom_site_label_2
_geom_bond_distance
_ccdc_geom_bond_type
C5    H2    1.110198 S    
N8    O20   1.302242 A    
N7    O18   1.302511 A    
C25   N1    1.367183 A    
C21   C22   1.393940 A    
Cu2   N1    2.037814 S    
Cu1   Cu2   2.711541 S    
C29   H7    1.106247 S    
N2    C28   1.366808 A    
Cu1   O7    1.928178 S    
C2    C7    1.420458 S    
Cu1   N2    2.036696 S    
C22   C23   1.495852 S    
C12   C14   1.534373 S    
C3    C21   1.450082 S    
C23   H6    1.111777 S    
C29   N7    1.466609 S    
O4    C2    1.301204 A    
O7    C4    1.300705 A    
N5    O14   1.301811 A    
C5    C6    1.554771 S    
N6    O16   1.301661 A    
C20   C21   1.416215 A    
N9    O21   1.300210 A    
C31   H10   1.109831 S    
O5    C3    1.301395 A    
N4    O11   1.301602 A    
C17   C18   1.390270 A    
C6    H1    1.110204 S    
C10   C13   1.541282 S    
C25   C28   1.415630 A    
C7    C15   1.197086 T    
C30   H8    1.112551 S    
N8    O19   1.300465 A    
C9    C10   1.541138 S    
C13   H3    1.110294 S    
N9    O22   1.300401 A    
C1    C18   1.450736 S    
C11   N9    1.457333 S    
O3    Cu1   1.925860 S    
C6    C14   1.544406 S    
N4    O12   1.299809 A    
N3    O9    1.301440 A    
C4    C8    1.419884 S    
N10   O23   1.301020 A    
O3    C2    1.300211 A    
N3    O10   1.302092 A    
N11   O26   1.301163 A    
C24   N3    1.468310 S    
C8    C16   1.196619 T    
C13   C14   1.547277 S    
N7    O17   1.300323 A    
N6    O15   1.300283 A    
O1    C1    1.302942 A    
C31   H11   1.109007 S    
C26   C27   1.418995 A    
C23   C24   1.529299 S    
C20   N11   1.437061 S    
C19   N10   1.428878 S    
C29   C30   1.530496 S    
C24   N4    1.470100 S    
Cu2   O8    1.925859 S    
C19   C20   1.411085 A    
C5    C12   1.542717 S    
O8    C4    1.300369 A    
C10   C15   1.451288 S    
C9    C11   1.537293 S    
N1    C26   1.383574 A    
C27   N2    1.371608 A    
Cu1   O5    1.972026 S    
C28   C29   1.490946 S    
C6    C10   1.540520 S    
O1    Cu1   1.960624 S    
O2    Cu2   1.972024 S    
C12   C16   1.452515 S    
N10   O24   1.300934 A    
O6    C3    1.300255 A    
O4    Cu2   1.928181 S    
C9    H4    1.110158 S    
C17   C24   1.503098 S    
C18   C19   1.415812 A    
O2    C1    1.299474 A    
C23   H5    1.106908 S    
N5    O13   1.298740 A    
C27   N6    1.429920 S    
C25   C30   1.499212 S    
C11   C13   1.538731 S    
C31   H9    1.109704 S    
C26   N5    1.425162 S    
C11   C12   1.526950 S    
N11   O25   1.301180 A    
C5    C9    1.556193 S    
Cu2   O6    1.960624 S    
C14   C31   1.519620 S    
C17   C22   1.373738 A    
C30   N8    1.466054 S    
