data_mof_unit_59465.cif
_audit_creation_date              2012-12-11T14:24:47-0500
_audit_creation_method            fapswitch 2.2
_symmetry_space_group_name_H-M    P1
_symmetry_Int_Tables_number       1
_space_group_crystal_system       triclinic
_cell_length_a                    18.86894
_cell_length_b                    11.114635
_cell_length_c                    18.645635
_cell_angle_alpha                 89.85452
_cell_angle_beta                  91.659369
_cell_angle_gamma                 89.757959
_cell_volume                      3908.69975335

loop_
_atom_site_label
_atom_site_type_symbol
_atom_type_description
_atom_site_fract_x
_atom_site_fract_y
_atom_site_fract_z
_atom_type_partial_charge
C1    C     C_R   0.729357 0.373741 0.144994 0.554910
C2    C     C_R   0.242746 0.898838 0.069162 0.002391
C3    C     C_R   0.708724 0.634449 0.384276 0.022918
C4    C     C_R   0.914995 0.089748 0.571770 -0.116742
C5    C     C_R   0.155395 0.211921 0.404493 -0.105015
C6    C     C_R   0.414995 0.589747 0.571770 -0.116742
C7    C     C_R   0.655396 0.711921 0.404493 -0.105015
C8    C     C_R   0.925657 0.047576 0.502556 -0.163016
C9    C     C_R   0.137902 0.217616 0.475855 -0.160245
C10   C     C_R   0.425657 0.547576 0.502556 -0.163016
C11   C     C_R   0.637902 0.717616 0.475855 -0.160246
C12   C     C_R   0.867704 0.018825 0.457751 -0.103886
C13   C     C_R   0.250599 0.408926 0.926906 -0.006544
C14   C     C_R   0.177125 0.156580 0.528618 -0.112021
C15   C     C_R   0.367704 0.518825 0.457751 -0.103886
C16   C     C_R   0.677125 0.656580 0.528618 -0.112021
C17   C     C_R   0.734574 0.000988 0.443070 -0.000685
C18   C     C_R   0.266561 0.997408 0.559432 0.005982
C19   C     C_R   0.234574 0.500988 0.443070 -0.000685
C20   C     C_R   0.766561 0.497408 0.559432 0.005982
C21   C     C_R   0.733222 0.382025 0.351710 0.551387
C22   C     C_R   0.265236 0.391370 0.651964 0.544225
C23   C     C_R   0.233222 0.882025 0.351710 0.551387
C24   C     C_R   0.742746 0.398838 0.069162 0.002391
C25   C     C_R   0.765236 0.891370 0.651964 0.544225
C26   C     C_R   0.529998 0.158633 0.351096 0.529560
C27   C     C_R   0.465653 0.155997 0.645282 0.532632
C28   C     C_R   0.029998 0.658633 0.351096 0.529559
C29   C     C_R   0.965653 0.655997 0.645282 0.532632
C30   C     C_R   0.729713 0.020118 0.364595 0.564525
C31   C     C_R   0.271314 0.023347 0.636033 0.566864
C32   C     C_R   0.229713 0.520118 0.364595 0.564525
C33   C     C_R   0.771314 0.523347 0.636033 0.566864
C34   C     C_3   0.512480 0.273963 0.973646 -0.121727
C35   C     C_R   0.698195 0.846583 0.966260 0.017407
C36   C     C_3   0.456780 0.242591 0.030225 -0.131977
C37   C     C_3   0.012480 0.773963 0.973646 -0.121727
C38   C     C_3   0.956780 0.742591 0.030226 -0.131977
C39   C     C_3   0.567946 0.193430 0.013619 -0.116833
C40   C     C_3   0.433400 0.131906 0.985548 -0.099991
C41   C     C_3   0.067946 0.693431 0.013619 -0.116833
C42   C     C_3   0.933400 0.631905 0.985548 -0.099991
C43   C     C_3   0.511701 0.162213 0.068726 0.048146
C44   C     C_3   0.489702 0.162953 0.930300 0.055818
C45   C     C_3   0.011701 0.662213 0.068726 0.048146
C46   C     C_R   0.303245 0.854661 0.033719 0.019785
C47   C     C_3   0.989702 0.662953 0.930300 0.055818
C48   C     C_1   0.835552 0.153818 0.666077 0.198918
C49   C     C_1   0.233239 0.141199 0.311548 0.209397
C50   C     C_1   0.335552 0.653818 0.666077 0.198918
C51   C     C_1   0.733239 0.641200 0.311548 0.209397
C52   C     C_R   0.198195 0.346583 0.966260 0.017407
C53   C     C_R   0.803245 0.354661 0.033719 0.019785
C54   C     C_R   0.703460 0.846379 0.042326 0.023775
C55   C     C_R   0.301225 0.849249 0.957707 0.019174
C56   C     C_R   0.203459 0.346379 0.042326 0.023775
C57   C     C_R   0.269205 0.375719 0.853660 0.542165
C58   C     C_R   0.801225 0.349249 0.957707 0.019174
C59   C     C_R   0.802973 0.983678 0.036876 -0.160444
C60   C     C_R   0.184954 0.941966 0.954322 -0.154609
C61   C     C_R   0.302974 0.483678 0.036876 -0.160443
C62   C     C_R   0.684954 0.441966 0.954322 -0.154609
C63   C     C_R   0.800936 0.978661 0.963673 -0.153446
C64   C     C_R   0.183642 0.937855 0.027779 -0.153983
C65   C     C_R   0.300937 0.478661 0.963673 -0.153446
C66   C     C_R   0.683642 0.437854 0.027779 -0.153983
C67   C     C_R   0.641558 0.782649 0.933061 -0.084847
C68   C     C_R   0.229357 0.873741 0.144994 0.554910
C69   C     C_R   0.364786 0.812420 0.070899 -0.102733
C70   C     C_R   0.141558 0.282649 0.933061 -0.084847
C71   C     C_R   0.864786 0.312420 0.070899 -0.102733
C72   C     C_R   0.098784 0.207939 0.972991 -0.128136
C73   C     C_R   0.916840 0.249547 0.034922 -0.150302
C74   C     C_R   0.598784 0.707938 0.972991 -0.128136
C75   C     C_R   0.416840 0.749547 0.034922 -0.150302
C76   C     C_R   0.608129 0.700483 0.046933 -0.131325
C77   C     C_R   0.410308 0.732679 0.961236 -0.136374
C78   C     C_R   0.108129 0.200483 0.046933 -0.131325
C79   C     C_R   0.769205 0.875719 0.853660 0.542165
C80   C     C_R   0.910308 0.232680 0.961236 -0.136375
C81   C     C_R   0.659836 0.768976 0.081573 -0.076295
C82   C     C_R   0.353829 0.783501 0.922643 -0.085657
C83   C     C_R   0.159836 0.268976 0.081573 -0.076295
C84   C     C_R   0.853829 0.283501 0.922643 -0.085657
C85   C     C_R   0.532683 0.155380 0.144283 0.548126
C86   C     C_R   0.468241 0.155315 0.855070 0.544232
C87   C     C_R   0.032683 0.655380 0.144283 0.548126
C88   C     C_R   0.968241 0.655315 0.855070 0.544232
C89   C     C_R   0.752890 0.922787 0.077027 -0.003492
C90   C     C_3   0.488863 0.051900 0.024992 -0.100641
C91   C     C_R   0.245628 0.907727 0.918955 -0.006684
C92   C     C_R   0.252890 0.422787 0.077027 -0.003492
C93   C     C_R   0.745629 0.407727 0.918955 -0.006684
C94   C     C_R   0.487585 0.158723 0.569674 0.000968
C95   C     C_R   0.493280 0.171305 0.419236 -0.006829
C96   C     C_R   0.987585 0.658723 0.569674 0.000968
C97   C     C_R   0.993280 0.671305 0.419236 -0.006829
C98   C     C_R   0.480214 0.053609 0.526222 0.034941
C99   C     C_R   0.468642 0.066717 0.451807 0.025407
C100  C     C_R   0.980214 0.553609 0.526222 0.034941
C101  C     C_3   0.544514 0.083016 0.969061 -0.118791
C102  C     C_R   0.968642 0.566716 0.451807 0.025407
C103  C     C_R   0.505817 0.274218 0.461458 -0.150937
C104  C     C_R   0.498875 0.269339 0.535761 -0.145252
C105  C     C_R   0.005817 0.774218 0.461458 -0.150937
C106  C     C_R   0.998876 0.769339 0.535761 -0.145252
C107  C     C_R   0.488154 0.935242 0.552743 -0.103039
C108  C     C_R   0.445149 0.967621 0.410461 -0.073405
C109  C     C_R   0.988154 0.435242 0.552743 -0.103039
C110  C     C_R   0.945149 0.467621 0.410461 -0.073405
C111  C     C_R   0.975297 0.337424 0.508527 -0.159667
C112  C     C_3   0.988864 0.551900 0.024992 -0.100641
C113  C     C_R   0.952180 0.352352 0.437981 -0.122676
C114  C     C_R   0.475297 0.837424 0.508527 -0.159667
C115  C     C_R   0.452180 0.852352 0.437981 -0.122676
C116  C     C_R   0.739854 0.970781 0.591792 0.005249
C117  C     C_R   0.262475 0.938293 0.415073 -0.002617
C118  C     C_R   0.239855 0.470781 0.591792 0.005249
C119  C     C_R   0.762475 0.438293 0.415073 -0.002617
C120  C     C_R   0.791271 0.041960 0.557892 0.027639
C121  C     C_R   0.236816 0.050908 0.435385 0.014832
C122  C     C_R   0.291271 0.541960 0.557892 0.027639
C123  C     C_3   0.044514 0.583017 0.969061 -0.118791
C124  C     C_R   0.736816 0.550908 0.435385 0.014832
C125  C     C_R   0.797987 0.023006 0.484101 0.011296
C126  C     C_R   0.228014 0.070863 0.509271 0.007996
C127  C     C_R   0.297988 0.523005 0.484101 0.011296
C128  C     C_R   0.728014 0.570863 0.509271 0.007996
C129  C     C_R   0.671872 0.979801 0.480607 -0.152570
C130  C     C_R   0.303679 0.897190 0.534997 -0.129091
C131  C     C_R   0.171872 0.479801 0.480607 -0.152570
C132  C     C_R   0.803679 0.397190 0.534997 -0.129092
C133  C     C_R   0.742574 0.968245 0.149381 0.559861
C134  C     C_R   0.750599 0.908926 0.926906 -0.006544
C135  C     C_R   0.257186 0.965343 0.849578 0.560151
C136  C     C_R   0.242574 0.468245 0.149381 0.559861
C137  C     C_R   0.757186 0.465343 0.849578 0.560151
C138  C     C_R   0.676159 0.952272 0.554282 -0.158423
C139  C     C_R   0.296894 0.863057 0.464692 -0.152534
C140  C     C_R   0.176159 0.452272 0.554282 -0.158423
C141  C     C_R   0.796894 0.363057 0.464692 -0.152534
C142  C     C_R   0.846661 0.100189 0.596579 0.021102
C143  C     C_R   0.208724 0.134449 0.384276 0.022918
C144  C     C_R   0.346661 0.600189 0.596579 0.021102
Cr1   Cr    Cr6+3 0.772820 0.169820 0.252640 0.995822
Cr2   Cr    Cr6+3 0.383280 0.011130 0.749340 1.023802
Cr3   Cr    Cr6+3 0.116720 0.511130 0.250660 0.997282
Cr4   Cr    Cr6+3 0.883280 0.511130 0.749340 1.023802
Cr5   Cr    Cr6+3 0.227180 0.169820 0.747360 0.989638
Cr6   Cr    Cr6+3 0.272820 0.669820 0.252640 0.995822
Cr7   Cr    Cr6+3 0.727180 0.669820 0.747360 0.989638
Cr8   Cr    Cr6+3 0.615040 0.323610 0.249150 1.012576
Cr9   Cr    Cr6+3 0.384960 0.323610 0.750850 1.021847
Cr10  Cr    Cr6+3 0.115040 0.823610 0.249150 1.012576
Cr11  Cr    Cr6+3 0.884960 0.823610 0.750850 1.021847
Cr12  Cr    Cr6+3 0.616720 0.011130 0.250660 0.997282
H1    H     H_    0.623913 0.215601 0.027375 0.128207
H2    H     H_    0.428146 0.978390 0.354795 0.131452
H3    H     H_    0.011045 0.415149 0.605115 0.136840
H4    H     H_    0.928146 0.478390 0.354795 0.131452
H5    H     H_    0.989790 0.250548 0.527787 0.108873
H6    H     H_    0.941838 0.274968 0.404191 0.116238
H7    H     H_    0.489790 0.750548 0.527787 0.108873
H8    H     H_    0.441838 0.774968 0.404191 0.116238
H9    H     H_    0.621492 0.971909 0.451850 0.150853
H10   H     H_    0.333724 0.839187 0.570987 0.157594
H11   H     H_    0.121492 0.471909 0.451850 0.150853
H12   H     H_    0.377744 0.105971 0.972335 0.130100
H13   H     H_    0.833724 0.339188 0.570987 0.157594
H14   H     H_    0.632377 0.910923 0.580740 0.106626
H15   H     H_    0.315981 0.774849 0.449876 0.147672
H16   H     H_    0.132377 0.410923 0.580740 0.106626
H17   H     H_    0.815981 0.274849 0.449876 0.147672
H18   H     H_    0.959907 0.114043 0.606191 0.096480
H19   H     H_    0.127099 0.267469 0.365396 0.141323
H20   H     H_    0.459907 0.614043 0.606191 0.096480
H21   H     H_    0.627099 0.767469 0.365396 0.141323
H22   H     H_    0.978920 0.040771 0.482958 0.106724
H23   H     H_    0.123913 0.715602 0.027375 0.128207
H24   H     H_    0.097449 0.277652 0.491025 0.118589
H25   H     H_    0.478920 0.540771 0.482958 0.106724
H26   H     H_    0.597449 0.777651 0.491025 0.118589
H27   H     H_    0.879856 0.983957 0.405651 0.160001
H28   H     H_    0.162933 0.173578 0.582964 0.164669
H29   H     H_    0.379856 0.483957 0.405651 0.160001
H30   H     H_    0.662933 0.673578 0.582964 0.164669
H31   H     H_    0.522568 0.364453 0.950900 0.105892
H32   H     H_    0.420881 0.306617 0.056964 0.120634
H33   H     H_    0.022568 0.864453 0.950900 0.105892
H34   H     H_    0.877744 0.605970 0.972335 0.130100
H35   H     H_    0.920881 0.806616 0.056964 0.120634
H36   H     H_    0.480354 0.961826 0.048280 0.145775
H37   H     H_    0.580468 0.019310 0.942271 0.122992
H38   H     H_    0.980354 0.461826 0.048280 0.145775
H39   H     H_    0.080469 0.519311 0.942271 0.122992
H40   H     H_    0.843137 0.040101 0.061833 0.158157
H41   H     H_    0.139103 0.977851 0.925195 0.136941
H42   H     H_    0.343137 0.540101 0.061833 0.158157
H43   H     H_    0.639103 0.477850 0.925195 0.136941
H44   H     H_    0.628031 0.790643 0.876676 0.138788
H45   H     H_    0.524396 0.356610 0.437486 0.139365
H46   H     H_    0.374136 0.827680 0.127508 0.137852
H47   H     H_    0.128031 0.290643 0.876676 0.138788
H48   H     H_    0.874136 0.327680 0.127508 0.137852
H49   H     H_    0.842066 0.025406 0.935878 0.152802
H50   H     H_    0.134009 0.960942 0.051771 0.146042
H51   H     H_    0.342066 0.525405 0.935878 0.152802
H52   H     H_    0.634009 0.460942 0.051771 0.146042
H53   H     H_    0.060058 0.152144 0.945906 0.092230
H54   H     H_    0.961484 0.212181 0.064826 0.109598
H55   H     H_    0.560058 0.652144 0.945906 0.092230
H56   H     H_    0.505307 0.350699 0.567032 0.142293
H57   H     H_    0.461484 0.712181 0.064826 0.109598
H58   H     H_    0.075872 0.140238 0.077678 0.099415
H59   H     H_    0.947733 0.178041 0.933380 0.102246
H60   H     H_    0.575872 0.640238 0.077678 0.099415
H61   H     H_    0.447733 0.678041 0.933380 0.102246
H62   H     H_    0.666980 0.757044 0.138880 0.152306
H63   H     H_    0.349736 0.764966 0.865810 0.157090
H64   H     H_    0.166980 0.257044 0.138880 0.152306
H65   H     H_    0.849736 0.264966 0.865810 0.157090
H66   H     H_    0.024396 0.856610 0.437486 0.139365
H67   H     H_    0.005307 0.850699 0.567032 0.142293
H68   H     H_    0.511045 0.915149 0.605115 0.136840
N1    N     N_1   0.826594 0.196290 0.721690 -0.307001
N2    N     N_1   0.252982 0.146799 0.253448 -0.321809
N3    N     N_1   0.326594 0.696289 0.721690 -0.307001
N4    N     N_1   0.752982 0.646799 0.253448 -0.321809
O1    O     O_R   0.788190 0.043000 0.172520 -0.522094
O2    O     O_R   0.454170 0.051610 0.669840 -0.541143
O3    O     O_R   0.045830 0.551610 0.330160 -0.539166
O4    O     O_R   0.954170 0.551610 0.669840 -0.541143
O5    O     O_R   0.681920 0.959720 0.327070 -0.507899
O6    O     O_R   0.318080 0.959720 0.672930 -0.487618
O7    O     O_R   0.181920 0.459720 0.327070 -0.507899
O8    O     O_R   0.818080 0.459720 0.672930 -0.487618
O9    O     O_3   0.668190 0.168190 0.250820 -0.264991
O10   O     O_3   0.331810 0.168190 0.749180 -0.268256
O11   O     O_3   0.168190 0.668190 0.250820 -0.264991
O12   O     O_R   0.211810 0.043000 0.827480 -0.518656
O13   O     O_3   0.831810 0.668190 0.749180 -0.268256
O14   O     O_R   0.766240 0.292300 0.176860 -0.513328
O15   O     O_R   0.233760 0.292300 0.823140 -0.517940
O16   O     O_R   0.266240 0.792300 0.176860 -0.513327
O17   O     O_R   0.733760 0.792300 0.823140 -0.517940
O18   O     O_R   0.670310 0.409160 0.168720 -0.517265
O19   O     O_R   0.329690 0.409160 0.831280 -0.516319
O20   O     O_R   0.170310 0.909160 0.168720 -0.517265
O21   O     O_R   0.829690 0.909160 0.831280 -0.516319
O22   O     O_R   0.556160 0.251900 0.173380 -0.505885
O23   O     O_R   0.288190 0.543000 0.172520 -0.522094
O24   O     O_R   0.443840 0.251900 0.826620 -0.502581
O25   O     O_R   0.056160 0.751900 0.173380 -0.505884
O26   O     O_R   0.943840 0.751900 0.826620 -0.502581
O27   O     O_R   0.545410 0.050140 0.168240 -0.524058
O28   O     O_R   0.454590 0.050140 0.831760 -0.517718
O29   O     O_R   0.045410 0.550140 0.168240 -0.524058
O30   O     O_R   0.954590 0.550140 0.831760 -0.517718
O31   O     O_R   0.681530 0.958350 0.176970 -0.499477
O32   O     O_R   0.318470 0.958350 0.823030 -0.493624
O33   O     O_R   0.181530 0.458350 0.176970 -0.499478
O34   O     O_R   0.711810 0.543000 0.827480 -0.518656
O35   O     O_R   0.818470 0.458350 0.823030 -0.493624
O36   O     O_R   0.788610 0.044480 0.334450 -0.534404
O37   O     O_R   0.211390 0.044480 0.665550 -0.532146
O38   O     O_R   0.288610 0.544480 0.334450 -0.534404
O39   O     O_R   0.711390 0.544480 0.665550 -0.532146
O40   O     O_R   0.766630 0.293670 0.326970 -0.529012
O41   O     O_R   0.233370 0.293670 0.673030 -0.536317
O42   O     O_R   0.266630 0.793670 0.326970 -0.529012
O43   O     O_R   0.733370 0.793670 0.673030 -0.536317
O44   O     O_R   0.670730 0.410640 0.330640 -0.509948
O45   O     O_R   0.556550 0.253260 0.323480 -0.503678
O46   O     O_R   0.329270 0.410640 0.669360 -0.503618
O47   O     O_R   0.170730 0.910640 0.330640 -0.509948
O48   O     O_R   0.829270 0.910640 0.669360 -0.503618
O49   O     O_R   0.443450 0.253260 0.676520 -0.495976
O50   O     O_R   0.056550 0.753260 0.323480 -0.503678
O51   O     O_R   0.943450 0.753260 0.676520 -0.495976
O52   O     O_R   0.545830 0.051610 0.330160 -0.539166

loop_
_geom_bond_atom_site_label_1
_geom_bond_atom_site_label_2
_ccdc_geom_bond_type
Cr2   O6    S    
C52   C70   A    
C111  H5    S    
Cr5   O37   S    
C57   O19   A    
C78   H58   S    
C26   O52   A    
C114  C115  A    
C27   O49   A    
C15   H29   S    
C135  O32   A    
C45   C87   S    
C84   H65   S    
C4    C142  A    
C95   C99   A    
C5    C143  A    
C105  H66   S    
C7    H21   S    
C38   C45   S    
C131  C140  A    
Cr3   O3    S    
C50   C144  S    
C46   C55   A    
C139  H15   S    
C97   C105  A    
C137  O34   A    
C94   C104  A    
C100  C109  A    
C15   C127  A    
C17   C30   S    
C117  C139  A    
C20   C132  A    
C118  C140  A    
C19   C32   S    
C35   C134  A    
C31   O6    A    
C85   O27   A    
C43   C85   S    
C67   H44   S    
C71   C73   A    
C120  C125  A    
C36   H32   S    
C103  H45   S    
Cr7   O17   S    
C37   C38   S    
C42   H34   S    
C47   C123  S    
Cr10  O50   S    
Cr5   O15   S    
Cr1   O36   S    
C120  C142  A    
C111  C113  A    
C67   C74   A    
C33   O8    A    
C20   C33   S    
C119  C141  A    
C18   C130  A    
C53   C71   A    
C56   C83   A    
C22   C118  S    
C136  O33   A    
C29   O4    A    
Cr11  O48   S    
C53   C58   A    
Cr12  O9    S    
C29   O51   A    
C59   C63   A    
C14   C126  A    
C74   H55   S    
C60   C64   A    
C21   C119  S    
C77   H61   S    
C77   C82   A    
Cr1   O40   S    
C30   O5    A    
C61   C65   A    
Cr6   O11   S    
C62   C93   A    
C51   N4    T    
C41   C45   S    
C18   C31   S    
C54   C81   A    
C21   O44   A    
Cr10  O25   S    
C28   C97   S    
C23   O42   A    
Cr2   O32   S    
C87   O29   A    
Cr8   O22   S    
Cr11  O21   S    
C90   H36   S    
C68   O20   A    
C99   C108  A    
C74   C76   A    
C108  C115  A    
C62   H43   S    
C25   O48   A    
C2    C68   S    
C109  C111  A    
C12   H27   S    
C13   C57   S    
C86   O28   A    
Cr9   O19   S    
C118  C122  A    
C122  C127  A    
C42   C112  S    
C72   C78   A    
C130  H10   S    
Cr7   O34   S    
C82   H63   S    
Cr2   O10   S    
C37   C47   S    
C131  H11   S    
C69   H46   S    
C23   O47   A    
C95   C103  A    
C71   H48   S    
C89   C133  S    
C62   C66   A    
C34   C39   S    
C25   C116  S    
C75   H57   S    
C116  C120  A    
C5    C9    A    
Cr7   O13   S    
C72   H53   S    
C110  C113  A    
C35   C67   A    
C8    C12   A    
C75   C77   A    
C112  H38   S    
C25   O43   A    
C22   O41   A    
C98   C99   A    
C104  H56   S    
C6    C144  A    
C109  H3    S    
C110  H4    S    
C107  H68   S    
C132  C141  A    
C79   C134  S    
Cr1   O1    S    
C41   H23   S    
C27   C94   S    
C23   C117  S    
C29   C96   S    
C61   C92   A    
C65   H51   S    
Cr3   O11   S    
C18   C126  A    
C96   C100  A    
Cr1   O14   S    
C34   C36   S    
C37   C41   S    
C34   H31   S    
C1    O14   A    
C40   C44   S    
C24   C66   A    
C1    C24   S    
C38   H35   S    
C31   O37   A    
C80   C84   A    
Cr9   O10   S    
C79   O17   A    
C58   C93   A    
Cr12  O52   S    
C3    C7    A    
Cr8   O45   S    
Cr11  O26   S    
C94   C98   A    
C135  O12   A    
Cr9   O49   S    
C55   C91   A    
C21   O40   A    
C78   C83   A    
Cr4   O4    S    
Cr6   O38   S    
Cr8   O18   S    
C97   C102  A    
Cr12  O27   S    
C88   O30   A    
C124  C128  A    
Cr12  O31   S    
Cr6   O16   S    
C4    H18   S    
C35   C54   A    
C5    H19   S    
C123  H39   S    
C50   N3    T    
C92   C136  S    
C11   H26   S    
C130  C139  A    
C101  H37   S    
C80   H59   S    
C86   O24   A    
Cr9   O24   S    
C43   C90   S    
C63   C134  A    
C112  C123  S    
C3    C51   S    
C88   O26   A    
C12   C125  A    
C24   C53   A    
C64   H50   S    
C98   C107  A    
Cr3   O29   S    
C9    C14   A    
C107  C114  A    
C26   O45   A    
C13   C52   A    
C66   H52   S    
C11   C16   A    
C76   H60   S    
C27   O2    A    
Cr5   O10   S    
C60   H41   S    
C137  O35   A    
Cr7   O39   S    
C102  C110  A    
C132  H13   S    
C3    C124  A    
C70   H47   S    
C61   H42   S    
C6    C10   A    
C38   C42   S    
C59   H40   S    
C105  C106  A    
C129  H9    S    
C1    O18   A    
Cr5   O41   S    
C57   O15   A    
C48   N1    T    
C49   C143  S    
C69   C75   A    
C133  O1    A    
C133  O31   A    
C91   C135  S    
C63   H49   S    
C103  C104  A    
C10   H25   S    
C36   C43   S    
C40   C90   S    
C22   O46   A    
C32   O7    A    
Cr3   O7    S    
C37   H33   S    
C138  H14   S    
C121  C143  A    
C122  C144  A    
C4    C8    A    
C17   C125  A    
C45   C112  S    
Cr6   O23   S    
C13   C65   A    
C119  C124  A    
C2    C46   A    
C7    C11   A    
C33   O39   A    
Cr8   O44   S    
C20   C128  A    
C10   C15   A    
C59   C89   A    
C108  H2    S    
Cr5   O12   S    
C115  H8    S    
C117  C121  A    
C46   C69   A    
C113  H6    S    
C129  C138  A    
Cr1   O9    S    
Cr11  O51   S    
C136  O23   A    
C32   O38   A    
Cr9   O46   S    
C44   C101  S    
C85   O22   A    
C140  H16   S    
C39   H1    S    
C141  H17   S    
C79   O21   A    
C44   C86   S    
C2    C64   A    
C39   C101  S    
C116  C138  A    
C19   C131  A    
Cr8   O9    S    
C17   C129  A    
C73   H54   S    
C36   C40   S    
C34   C44   S    
C54   C89   A    
C87   O25   A    
C39   C43   S    
Cr10  O11   S    
Cr4   O8    S    
C90   C101  S    
C58   C84   A    
Cr12  O5    S    
C100  C102  A    
C48   C142  S    
C55   C82   A    
C16   C128  A    
C28   O3    A    
C9    H24   S    
Cr6   O42   S    
Cr10  O20   S    
Cr4   O13   S    
Cr3   O33   S    
Cr11  O13   S    
Cr2   O2    S    
C60   C91   A    
C26   C95   S    
C96   C106  A    
Cr2   O28   S    
C106  H67   S    
Cr4   O30   S    
C76   C81   A    
C14   H28   S    
C28   O50   A    
C47   C88   S    
C41   C123  S    
C121  C126  A    
C16   H30   S    
C83   H64   S    
Cr7   O43   S    
C114  H7    S    
C6    H20   S    
C68   O16   A    
C81   H62   S    
C19   C127  A    
C73   C80   A    
C30   O36   A    
C42   C47   S    
Cr4   O35   S    
Cr10  O47   S    
C40   H12   S    
C93   C137  S    
C8    H22   S    
C56   C92   A    
C70   C72   A    
C49   N2    T    
C52   C56   A    
