data_mof_unit_19109.cif
_audit_creation_date              2013-03-05T16:32:41-0500
_audit_creation_method            fapswitch 2.2
_symmetry_space_group_name_H-M    P1
_symmetry_Int_Tables_number       1
_space_group_crystal_system       triclinic
_cell_length_a                    9.541723
_cell_length_b                    10.816513
_cell_length_c                    17.309696
_cell_angle_alpha                 89.933538
_cell_angle_beta                  85.521748
_cell_angle_gamma                 89.858618
_cell_volume                      1781.04168774

loop_
_atom_site_label
_atom_site_type_symbol
_atom_site_description
_atom_site_fract_x
_atom_site_fract_y
_atom_site_fract_z
_atom_type_partial_charge
O1    O     O_R   0.381190 0.680360 0.500000 -0.588693
O2    O     O_R   0.618770 0.680320 0.499990 -0.590513
C1    C     C_R   0.499966 0.737553 0.498465 0.787975
O3    O     O_R   0.367430 0.500040 0.613600 -0.537714
O4    O     O_R   0.605020 0.500000 0.613590 -0.585147
C2    C     C_R   0.480905 0.499566 0.650090 0.844770
Cu1   Cu    Cu3+1 0.359330 0.500020 0.500000 0.969528
Cu2   Cu    Cu3+1 0.640670 0.499980 0.500000 0.949642
O5    O     O_R   0.381230 0.319680 0.500010 -0.577254
O6    O     O_R   0.618810 0.319640 0.500000 -0.580719
O7    O     O_R   0.394980 0.500000 0.386410 -0.594337
O8    O     O_R   0.632570 0.499960 0.386400 -0.584996
C3    C     C_R   0.500106 0.262236 0.498983 0.809245
C4    C     C_R   0.518958 0.502396 0.350231 0.774492
C5    C     C_R   0.469446 0.508170 0.734853 -0.158065
C6    C     C_R   0.580661 0.563708 0.770305 -0.233212
C7    C     C_R   0.572757 0.581072 0.849819 -0.128707
C8    C     C_R   0.453814 0.541755 0.895770 0.119131
C9    C     C_R   0.340648 0.489533 0.860874 -0.224807
C10   C     C_R   0.347515 0.470402 0.780787 0.335432
C11   C     C_R   0.437440 0.593091 0.150149 -0.149463
C12   C     C_R   0.426822 0.579325 0.230067 -0.203013
C13   C     C_R   0.648343 0.467635 0.222257 -0.205750
C14   C     C_R   0.658403 0.480382 0.141997 -0.164393
C15   C     C_R   0.551594 0.540753 0.105362 0.182644
C16   C     C_2   0.445856 0.550785 0.980590 -0.197609
C17   C     C_2   0.560869 0.545681 0.020384 -0.220069
C18   C     C_R   0.530949 0.514960 0.266317 -0.020940
H1    H     H_    0.673438 0.596235 0.736265 0.172454
H2    H     H_    0.338080 0.620342 0.263650 0.141839
H3    H     H_    0.730714 0.419177 0.249724 0.137188
H4    H     H_    0.663932 0.533029 0.990156 0.152521
H5    H     H_    0.248886 0.458681 0.896516 0.163116
H6    H     H_    0.356583 0.645143 0.123927 0.126994
H7    H     H_    0.341947 0.549390 0.010988 0.142904
H8    H     H_    0.659428 0.626420 0.874850 0.143252
H9    H     H_    0.748021 0.440840 0.108367 0.129692
C19   C     C_R   0.374877 0.936070 0.509442 0.124908
C20   C     C_R   0.499108 0.870527 0.491494 -0.082829
C21   C     C_R   0.620599 0.934996 0.464148 -0.210925
H10   H     H_    0.716480 0.886225 0.445270 0.161163
C22   C     C_R   0.620348 0.063994 0.464292 -0.218226
H11   H     H_    0.715399 0.112156 0.444489 0.152820
C23   C     C_R   0.499394 0.128871 0.492711 -0.092600
C24   C     C_R   0.375130 0.063428 0.510595 0.078084
C25   C     C_3   0.277593 0.067515 0.582517 -0.389857
C26   C     C_3   0.275799 0.927457 0.580307 -0.489019
H12   H     H_    0.328911 0.104630 0.633053 0.237667
H13   H     H_    0.174041 0.109271 0.572782 0.201697
H14   H     H_    0.324146 0.883638 0.630003 0.199407
H15   H     H_    0.172302 0.888837 0.567427 0.196655
C27   C     C_R   0.934322 0.437907 0.443951 0.221513
N1    N     N_R   0.852130 0.499070 0.499500 -0.186239
C28   C     C_R   0.918184 0.570256 0.550955 -0.054547
H16   H     H_    0.856227 0.625372 0.593137 0.137794
C29   C     C_R   0.067078 0.570028 0.551090 -0.031923
H17   H     H_    0.116839 0.624786 0.593434 0.144979
N2    N     N_R   0.148040 0.499110 0.499500 -0.199449
C30   C     C_R   0.082101 0.439104 0.443269 0.232395
C31   C     C_3   0.090619 0.303643 0.426055 -0.152348
C32   C     C_3   0.930960 0.302469 0.428407 -0.518937
H18   H     H_    0.129780 0.249878 0.474587 0.177516
H19   H     H_    0.886077 0.280421 0.372805 0.183308
H20   H     H_    0.883534 0.250246 0.479145 0.202952
C33   C     C_3   0.168249 0.269262 0.347249 -0.346000
C34   C     C_3   0.137003 0.353576 0.278818 -0.338678
C35   C     C_3   0.221029 0.312896 0.204490 -0.833044
H21   H     H_    0.335577 0.315674 0.212037 0.263939
H22   H     H_    0.191348 0.217382 0.188801 0.249902
H23   H     H_    0.198525 0.376183 0.156367 0.242306
H24   H     H_    0.023580 0.350878 0.268802 0.206388
H25   H     H_    0.165314 0.450551 0.291413 0.222738
H26   H     H_    0.283033 0.271314 0.354205 0.210154
H27   H     H_    0.140818 0.172335 0.333491 0.193085
N3    N     N_R   0.232886 0.408540 0.748202 0.126279
O9    O     O_R   0.257322 0.314735 0.702134 -0.383767
O10   O     O_R   0.104100 0.431692 0.774666 -0.376677

loop_
_geom_bond_atom_site_label_1
_geom_bond_atom_site_label_2
_geom_bond_distance
_ccdc_geom_bond_type
C9    C10   1.398313 A    
C8    C16   1.467592 S    
Cu1   Cu2   2.684467 S    
N1    C28   1.369323 A    
C23   C24   1.396093 A    
Cu1   O7    1.969071 S    
C25   H13   1.110076 S    
C16   C17   1.341458 D    
C27   C32   1.490661 S    
C19   C20   1.393957 A    
O7    C4    1.294872 A    
C5    C6    1.403303 A    
C33   H26   1.111417 S    
C29   H17   1.081757 S    
C31   H18   1.109221 S    
C8    C9    1.398419 A    
C32   H19   1.109953 S    
O5    C3    1.290878 A    
C19   C24   1.377749 A    
C2    C5    1.465809 S    
C28   H16   1.081618 S    
C34   H25   1.109897 S    
C6    C7    1.385518 A    
C13   C14   1.391789 A    
C7    H8    1.081992 S    
Cu1   N2    2.016812 S    
C21   C22   1.395315 A    
C34   C35   1.526509 S    
C1    C20   1.443279 S    
C30   C31   1.496291 S    
C12   C18   1.399456 A    
C11   C12   1.387026 A    
C22   C23   1.405183 A    
O3    Cu1   1.973919 S    
C14   H9    1.083532 S    
C26   H14   1.112386 S    
C25   H12   1.111225 S    
C5    C10   1.417669 A    
C28   C29   1.420889 A    
C35   H21   1.111332 S    
C14   C15   1.401395 A    
O3    C2    1.295410 A    
C9    H5    1.084073 S    
C20   C21   1.404164 A    
C26   H15   1.111789 S    
C11   H6    1.081755 S    
C6    H1    1.083626 S    
C24   C25   1.495653 S    
C33   H27   1.111779 S    
C10   N3    1.436318 S    
C31   C32   1.520877 S    
C35   H22   1.111492 S    
C13   H3    1.083637 S    
C32   H20   1.110516 S    
N3    O9    1.300551 A    
C27   C30   1.409283 A    
C34   H24   1.109804 S    
Cu2   O8    1.973923 S    
C7    C8    1.400775 A    
C13   C18   1.401097 A    
N3    O10   1.301319 A    
C19   C26   1.492035 S    
C21   H10   1.083229 S    
O8    C4    1.293691 A    
C31   C33   1.545884 S    
C22   H11   1.079263 S    
C27   N1    1.363239 A    
Cu1   O5    1.961300 S    
C11   C15   1.404997 A    
C25   C26   1.515639 S    
C12   H2    1.083328 S    
C17   H4    1.085693 S    
O1    Cu1   1.962282 S    
O2    Cu2   1.961299 S    
O6    C3    1.294344 A    
Cu2   N1    2.017035 S    
O4    Cu2   1.969071 S    
C15   C17   1.467605 S    
C35   H23   1.111076 S    
C4    C18   1.454332 S    
O2    C1    1.292338 A    
N2    C30   1.365156 A    
O4    C2    1.298026 A    
C29   N2    1.368802 A    
C16   H7    1.085671 S    
Cu2   O6    1.962282 S    
C33   C34   1.541101 S    
O1    C1    1.290958 A    
C3    C23   1.446827 S    
