data_mof_unit_50411.cif
_audit_creation_date              2012-12-11T16:08:35-0500
_audit_creation_method            fapswitch 2.2
_symmetry_space_group_name_H-M    P1
_symmetry_Int_Tables_number       1
_space_group_crystal_system       triclinic
_cell_length_a                    7.230191
_cell_length_b                    21.402832
_cell_length_c                    23.446742
_cell_angle_alpha                 90.0
_cell_angle_beta                  90.00002
_cell_angle_gamma                 90.083235
_cell_volume                      3628.2989165

loop_
_atom_site_label
_atom_site_type_symbol
_atom_type_description
_atom_site_fract_x
_atom_site_fract_y
_atom_site_fract_z
_atom_type_partial_charge
O1    O     O_R   0.365470 0.806380 0.442440 -0.532427
O2    O     O_R   0.134530 0.193620 0.942440 -0.532427
O3    O     O_R   0.865470 0.693620 0.557560 -0.531663
O4    O     O_R   0.634530 0.306380 0.057560 -0.531663
O5    O     O_R   0.035730 0.813790 0.557160 -0.535374
O6    O     O_R   0.464270 0.186210 0.057160 -0.535374
O7    O     O_R   0.535730 0.686210 0.442840 -0.535685
O8    O     O_R   0.964270 0.313790 0.942840 -0.535685
C1    C     C_R   0.204255 0.828698 0.575856 0.718964
C2    C     C_R   0.295745 0.171301 0.075856 0.718963
C3    C     C_R   0.704081 0.671387 0.424072 0.719710
C4    C     C_R   0.795919 0.328613 0.924072 0.719710
O9    O     O_R   0.035760 0.813790 0.442850 -0.535594
O10   O     O_R   0.464240 0.186210 0.942850 -0.535594
O11   O     O_R   0.535760 0.686210 0.557150 -0.535857
O12   O     O_R   0.964240 0.313790 0.057150 -0.535856
O13   O     O_R   0.865450 0.693620 0.442430 -0.534222
O14   O     O_R   0.634550 0.306380 0.942430 -0.534221
O15   O     O_R   0.365450 0.806380 0.557570 -0.532146
O16   O     O_R   0.134550 0.193620 0.057570 -0.532146
C5    C     C_R   0.204277 0.828700 0.424139 0.714311
C6    C     C_R   0.295723 0.171300 0.924139 0.714311
C7    C     C_R   0.704091 0.671286 0.575871 0.716611
C8    C     C_R   0.795909 0.328714 0.075871 0.716610
O17   O     O_3   0.198970 0.710570 0.500000 -0.374096
O18   O     O_3   0.301030 0.289430 0.000000 -0.374096
O19   O     O_3   0.698970 0.789430 0.500000 -0.373369
O20   O     O_3   0.801030 0.210570 0.000000 -0.373369
V1    V     V_3+5 0.924120 0.757310 0.500000 1.406078
V2    V     V_3+5 0.575880 0.242690 0.000000 1.406079
V3    V     V_3+5 0.424120 0.742690 0.500000 1.404579
V4    V     V_3+5 0.075880 0.257310 0.000000 1.404579
C9    C     C_3   0.911258 0.551629 0.742434 -0.331988
C10   C     C_3   0.588743 0.448371 0.242434 -0.331988
C11   C     C_3   0.412143 0.947604 0.256909 -0.338165
C12   C     C_3   0.087858 0.052396 0.756909 -0.338166
C13   C     C_3   0.565882 0.546820 0.748205 -0.367223
C14   C     C_3   0.934119 0.453180 0.248205 -0.367222
C15   C     C_3   0.064936 0.954440 0.253015 -0.350017
C16   C     C_3   0.435065 0.045559 0.753016 -0.350017
C17   C     C_3   0.571561 0.495175 0.795696 -0.057403
C18   C     C_3   0.928441 0.504825 0.295696 -0.057404
C19   C     C_3   0.078835 0.002669 0.202816 -0.056884
C20   C     C_3   0.421165 0.997331 0.702816 -0.056884
H1    H     H_    0.923654 0.531775 0.833850 0.134021
H2    H     H_    0.576349 0.468224 0.333850 0.134021
H3    H     H_    0.430645 0.969300 0.165689 0.137773
H4    H     H_    0.069356 0.030700 0.665689 0.137773
H5    H     H_    0.913561 0.600303 0.759138 0.139383
H6    H     H_    0.586440 0.399696 0.259138 0.139382
H7    H     H_    0.409755 0.899288 0.239378 0.139751
H8    H     H_    0.090247 0.100712 0.739378 0.139752
H9    H     H_    0.434210 0.542662 0.723851 0.126280
H10   H     H_    0.065791 0.457338 0.223851 0.126280
H11   H     H_    0.936096 0.963433 0.277680 0.120528
H12   H     H_    0.563905 0.036566 0.777681 0.120528
H13   H     H_    0.567986 0.594575 0.766948 0.143275
H14   H     H_    0.932016 0.405425 0.266948 0.143275
H15   H     H_    0.054364 0.905669 0.236853 0.148991
H16   H     H_    0.445639 0.094331 0.736854 0.148991
H17   H     H_    0.457776 0.461923 0.785121 0.120568
H18   H     H_    0.042224 0.538077 0.285121 0.120569
H19   H     H_    0.962264 0.036355 0.207343 0.118367
H20   H     H_    0.537736 0.963645 0.707343 0.118367
C21   C     C_1   0.786948 0.374125 0.878290 -0.199369
C22   C     C_1   0.713051 0.625875 0.378290 -0.199371
C23   C     C_1   0.286703 0.125574 0.121485 -0.190378
C24   C     C_1   0.213298 0.874426 0.621485 -0.190378
C25   C     C_3   0.732787 0.540771 0.707088 0.247362
C26   C     C_3   0.767213 0.459229 0.207088 0.247363
C27   C     C_3   0.234986 0.959176 0.292975 0.245241
C28   C     C_3   0.265014 0.040824 0.792975 0.245242
C29   C     C_3   0.922885 0.505144 0.793238 -0.327647
C30   C     C_3   0.577116 0.494855 0.293238 -0.327646
C31   C     C_3   0.427589 0.995028 0.206833 -0.337564
C32   C     C_3   0.072412 0.004972 0.706833 -0.337564
C33   C     C_3   0.759764 0.457811 0.791891 0.238239
C34   C     C_3   0.740237 0.542189 0.291892 0.238240
C35   C     C_3   0.263653 0.041542 0.207805 0.233007
C36   C     C_3   0.236347 0.958458 0.707805 0.233006
C37   C     C_3   0.760716 0.424064 0.732099 -0.045572
C38   C     C_3   0.739283 0.575936 0.232099 -0.045572
C39   C     C_3   0.261131 0.075485 0.267555 -0.037430
C40   C     C_3   0.238868 0.924515 0.767555 -0.037429
C41   C     C_3   0.736130 0.473235 0.682990 -0.334209
C42   C     C_3   0.763869 0.526765 0.182990 -0.334208
C43   C     C_3   0.242223 0.026534 0.317023 -0.334920
C44   C     C_3   0.257775 0.973466 0.817023 -0.334919
C45   C     C_1   0.775902 0.411857 0.839669 -0.105283
C46   C     C_1   0.724098 0.588143 0.339669 -0.105282
C47   C     C_1   0.277588 0.087725 0.160061 -0.121157
C48   C     C_1   0.222412 0.912274 0.660061 -0.121157
C49   C     C_1   0.720446 0.587337 0.659875 -0.083590
C50   C     C_1   0.779555 0.412663 0.159875 -0.083590
C51   C     C_1   0.222028 0.912667 0.340202 -0.085193
C52   C     C_1   0.277972 0.087332 0.840202 -0.085193
C53   C     C_1   0.712437 0.625422 0.621455 -0.186098
C54   C     C_1   0.787564 0.374577 0.121455 -0.186098
C55   C     C_1   0.213266 0.874578 0.378595 -0.185242
C56   C     C_1   0.286734 0.125422 0.878595 -0.185242
H21   H     H_    0.844973 0.470039 0.650005 0.142084
H22   H     H_    0.655026 0.529961 0.150005 0.142084
H23   H     H_    0.355656 0.029419 0.348550 0.142340
H24   H     H_    0.144342 0.970582 0.848550 0.142339
H25   H     H_    0.603610 0.463867 0.660339 0.121729
H26   H     H_    0.896389 0.536133 0.160339 0.121728
H27   H     H_    0.113186 0.036187 0.341390 0.121274
H28   H     H_    0.386812 0.963812 0.841390 0.121274
H29   H     H_    0.034917 0.546469 0.714655 0.133626
H30   H     H_    0.465084 0.453531 0.214656 0.133627
H31   H     H_    0.536884 0.951297 0.284474 0.134224
H32   H     H_    0.963116 0.048703 0.784474 0.134224
H33   H     H_    0.056558 0.479952 0.792141 0.139133
H34   H     H_    0.443443 0.520047 0.292141 0.139132
H35   H     H_    0.560746 0.020612 0.208951 0.142504
H36   H     H_    0.939254 0.979388 0.708951 0.142504
H37   H     H_    0.633166 0.394925 0.731756 0.096366
H38   H     H_    0.866833 0.605075 0.231756 0.096367
H39   H     H_    0.130406 0.102859 0.267734 0.097174
H40   H     H_    0.369592 0.897141 0.767735 0.097174
C57   C     C_3   0.526767 0.522614 0.855886 -0.350763
C58   C     C_3   0.397757 0.480094 0.890945 -0.313734
C59   C     C_3   0.370725 0.505160 0.951295 -0.768426
H41   H     H_    0.505119 0.506707 0.974221 0.223961
H42   H     H_    0.310237 0.552817 0.949970 0.221420
H43   H     H_    0.275046 0.473988 0.975085 0.220448
H44   H     H_    0.260694 0.477275 0.869839 0.184184
H45   H     H_    0.453647 0.432049 0.893779 0.212114
H46   H     H_    0.655437 0.531349 0.880363 0.184037
H47   H     H_    0.455367 0.568357 0.851770 0.172465
C60   C     C_3   0.973237 0.477386 0.355886 -0.350765
C61   C     C_3   0.102244 0.519907 0.390945 -0.313731
C62   C     C_3   0.129282 0.494840 0.451294 -0.768424
H48   H     H_    0.994887 0.493290 0.474221 0.223961
H49   H     H_    0.189777 0.447184 0.449969 0.221419
H50   H     H_    0.224956 0.526014 0.475085 0.220448
H51   H     H_    0.239306 0.522729 0.369838 0.184184
H52   H     H_    0.046348 0.567951 0.393780 0.212114
H53   H     H_    0.844567 0.468650 0.380362 0.184036
H54   H     H_    0.044641 0.431643 0.351770 0.172466
C63   C     C_3   0.054093 0.969467 0.144247 -0.342877
C64   C     C_3   0.851765 0.950959 0.133543 -0.330619
C65   C     C_3   0.831253 0.914227 0.078137 -0.777415
H55   H     H_    0.880056 0.942600 0.041410 0.228213
H56   H     H_    0.912309 0.870240 0.080294 0.225891
H57   H     H_    0.683381 0.902256 0.071349 0.214059
H58   H     H_    0.798645 0.921968 0.169300 0.197040
H59   H     H_    0.766240 0.993910 0.130470 0.192931
H60   H     H_    0.097328 0.000662 0.108846 0.183443
H61   H     H_    0.142766 0.927123 0.142246 0.180460
C66   C     C_3   0.445908 0.030533 0.644247 -0.342878
C67   C     C_3   0.648236 0.049039 0.633543 -0.330618
C68   C     C_3   0.668748 0.085773 0.578138 -0.777407
H62   H     H_    0.619938 0.057402 0.541411 0.228211
H63   H     H_    0.587699 0.129762 0.580297 0.225888
H64   H     H_    0.816622 0.097741 0.571349 0.214058
H65   H     H_    0.701360 0.078030 0.669300 0.197039
H66   H     H_    0.733759 0.006088 0.630469 0.192931
H67   H     H_    0.402670 0.999339 0.608846 0.183442
H68   H     H_    0.357237 0.072877 0.642247 0.180460
C69   C     C_3   0.919135 0.375250 0.722307 -0.332150
C70   C     C_3   0.096638 0.397894 0.692119 -0.290096
C71   C     C_3   0.253854 0.351127 0.699768 -0.818795
H69   H     H_    0.296549 0.349049 0.745251 0.223857
H70   H     H_    0.209926 0.303878 0.685514 0.233294
H71   H     H_    0.374202 0.365866 0.673621 0.212967
H72   H     H_    0.070904 0.402247 0.645592 0.184601
H73   H     H_    0.143449 0.443722 0.708305 0.192155
H74   H     H_    0.957419 0.353244 0.763473 0.185206
H75   H     H_    0.861861 0.336612 0.695861 0.155754
C72   C     C_3   0.580864 0.624749 0.222307 -0.332150
C73   C     C_3   0.403360 0.602105 0.192120 -0.290098
C74   C     C_3   0.246146 0.648873 0.199768 -0.818799
H76   H     H_    0.203451 0.650952 0.245251 0.223858
H77   H     H_    0.290074 0.696121 0.185512 0.233295
H78   H     H_    0.125797 0.634133 0.173621 0.212967
H79   H     H_    0.429092 0.597751 0.145593 0.184602
H80   H     H_    0.356548 0.556278 0.208307 0.192155
H81   H     H_    0.542581 0.646756 0.263473 0.185206
H82   H     H_    0.638136 0.663388 0.195860 0.155755
C75   C     C_3   0.414993 0.126100 0.277230 -0.332097
C76   C     C_3   0.594948 0.105134 0.307011 -0.289914
C77   C     C_3   0.750980 0.152008 0.297150 -0.815107
H83   H     H_    0.791495 0.152418 0.251440 0.225759
H84   H     H_    0.706867 0.199651 0.310072 0.232157
H85   H     H_    0.872834 0.138611 0.323190 0.212199
H86   H     H_    0.571499 0.102322 0.353774 0.183012
H87   H     H_    0.641496 0.058753 0.292130 0.192291
H88   H     H_    0.450302 0.148848 0.236140 0.187436
H89   H     H_    0.354730 0.163899 0.303976 0.152910
C78   C     C_3   0.085005 0.873900 0.777230 -0.332099
C79   C     C_3   0.905051 0.894866 0.807011 -0.289913
C80   C     C_3   0.749018 0.847992 0.797150 -0.815106
H90   H     H_    0.708503 0.847582 0.751440 0.225759
H91   H     H_    0.793132 0.800349 0.810072 0.232157
H92   H     H_    0.627165 0.861389 0.823190 0.212199
H93   H     H_    0.928499 0.897679 0.853774 0.183012
H94   H     H_    0.858502 0.941247 0.792129 0.192291
H95   H     H_    0.049697 0.851152 0.736140 0.187437
H96   H     H_    0.145267 0.836101 0.803976 0.152910

loop_
_geom_bond_atom_site_label_1
_geom_bond_atom_site_label_2
_ccdc_geom_bond_type
C73   H79   S    
O17   V3    S    
C65   H57   S    
C39   C43   S    
C72   C73   S    
C14   C26   S    
O1    C5    A    
C12   H32   S    
C16   H16   S    
C13   C25   S    
O19   V1    S    
O13   V1    S    
H4    C32   S    
O3    C7    A    
C71   H69   S    
C17   H17   S    
C57   H47   S    
C36   C40   S    
H1    C29   S    
O15   V3    S    
C69   C70   S    
C63   H60   S    
C59   H41   S    
C22   C46   T    
C2    C23   S    
C34   C46   S    
O7    C3    A    
C11   C31   S    
C70   C71   S    
C8    C54   S    
O9    V1    S    
C71   H70   S    
C78   H95   S    
C14   C18   S    
C25   C49   S    
C77   H84   S    
C17   C33   S    
O4    C8    A    
C51   C55   T    
C59   H42   S    
C27   C51   S    
C50   C54   T    
C19   C35   S    
C65   H55   S    
C30   H34   S    
C37   H37   S    
O1    V3    S    
C29   H33   S    
C40   H40   S    
C39   C75   S    
C40   C78   S    
O2    V4    S    
C39   H39   S    
C58   H44   S    
O3    V1    S    
C76   C77   S    
C41   H21   S    
C60   H54   S    
C12   C32   S    
C44   H24   S    
C14   H14   S    
C75   H88   S    
C1    O15   A    
C15   H11   S    
C24   C48   T    
C2    O16   A    
C61   C62   S    
C80   H91   S    
O2    C6    A    
C62   H50   S    
C66   C67   S    
C18   C60   S    
O14   V2    S    
C79   H94   S    
C68   H63   S    
C10   C26   S    
C35   C47   S    
C12   H8    S    
C3    C22   S    
C9    C25   S    
C69   H74   S    
O11   C7    A    
C11   C27   S    
O12   C8    A    
C74   H76   S    
C13   H9    S    
C72   H81   S    
C42   H26   S    
O10   V2    S    
C41   H25   S    
C28   C44   S    
C63   H61   S    
O5    V1    S    
C74   H77   S    
C67   H66   S    
C10   H6    S    
C20   C66   S    
C6    C56   S    
C19   H19   S    
C78   C79   S    
O8    V4    S    
C64   H59   S    
C20   C36   S    
C71   H71   S    
O7    V3    S    
C78   H96   S    
C77   H85   S    
O18   V4    S    
C59   H43   S    
C15   C19   S    
C16   H12   S    
C61   H51   S    
C75   C76   S    
C20   H20   S    
C66   H67   S    
C36   C48   S    
C21   C45   T    
C77   H83   S    
O5    C1    A    
C25   C41   S    
C75   H89   S    
C34   C38   S    
C14   H10   S    
C33   C37   S    
O8    C4    A    
C80   H92   S    
C15   H15   S    
C23   C47   T    
O9    C5    A    
C76   H87   S    
C79   H93   S    
C68   H64   S    
C57   C58   S    
C10   C30   S    
C27   C43   S    
C69   H75   S    
O4    V2    S    
C9    C29   S    
O6    V2    S    
C18   C34   S    
C11   H7    S    
C62   H48   S    
C10   H30   S    
C43   H23   S    
C72   H82   S    
C19   C63   S    
C31   H35   S    
C38   H38   S    
C60   C61   S    
C26   C42   S    
C49   C53   T    
H2    C30   S    
C11   H31   S    
C73   C74   S    
C17   C57   S    
O16   V4    S    
C74   H78   S    
C73   H80   S    
C65   H56   S    
C18   H18   S    
C67   H65   S    
C3    O13   A    
C15   C27   S    
C16   C28   S    
C26   C50   S    
C37   C69   S    
C64   H58   S    
C40   C44   S    
C57   H46   S    
C43   H27   S    
O6    C2    A    
C32   C36   S    
C58   H45   S    
O11   V3    S    
C33   C45   S    
O12   V4    S    
C4    C21   S    
C79   C80   S    
O10   C6    A    
O20   V2    S    
C58   C59   S    
C1    C24   S    
C7    C53   S    
C38   C42   S    
C63   C64   S    
C66   H68   S    
C35   C39   S    
C31   C35   S    
C5    C55   S    
C52   C56   T    
C32   H36   S    
C38   C72   S    
C76   H86   S    
C13   C17   S    
C37   C41   S    
C60   H53   S    
C70   H73   S    
H3    C31   S    
C70   H72   S    
C28   C52   S    
C44   H28   S    
C16   C20   S    
C9    H29   S    
C67   C68   S    
C80   H90   S    
C30   C34   S    
C9    H5    S    
C4    O14   A    
C62   H49   S    
C29   C33   S    
C64   C65   S    
C68   H62   S    
C61   H52   S    
C13   H13   S    
C12   C28   S    
C42   H22   S    
