data_mof_unit_54192.cif
_audit_creation_date              2013-03-05T16:40:44-0500
_audit_creation_method            fapswitch 2.2
_symmetry_space_group_name_H-M    P1
_symmetry_Int_Tables_number       1
_space_group_crystal_system       triclinic
_cell_length_a                    17.827627
_cell_length_b                    16.521857
_cell_length_c                    10.893051
_cell_angle_alpha                 90.03979
_cell_angle_beta                  96.97433
_cell_angle_gamma                 90.037208
_cell_volume                      3184.75675821

loop_
_atom_site_label
_atom_site_type_symbol
_atom_site_description
_atom_site_fract_x
_atom_site_fract_y
_atom_site_fract_z
_atom_type_partial_charge
O1    O     O_R   0.391260 0.567930 0.500000 -0.554921
O2    O     O_R   0.608740 0.432070 0.500000 -0.554800
O3    O     O_R   0.608740 0.567930 0.500000 -0.555219
O4    O     O_R   0.391260 0.432070 0.500000 -0.555132
C1    C     C_R   0.355770 0.499974 0.509337 0.878682
C2    C     C_R   0.644227 0.500025 0.490658 0.878681
O5    O     O_R   0.500000 0.567910 0.319660 -0.556326
O6    O     O_R   0.500000 0.432090 0.680340 -0.556493
O7    O     O_R   0.500000 0.567910 0.680340 -0.556257
O8    O     O_R   0.500000 0.432090 0.319660 -0.556388
C3    C     C_R   0.508869 0.499971 0.263634 0.819068
C4    C     C_R   0.491125 0.500027 0.736363 0.819059
Cu1   Cu    Cu3+1 0.500000 0.580420 0.500000 1.057458
Cu2   Cu    Cu3+1 0.500000 0.419580 0.500000 1.057482
C5    C     C_R   0.540441 0.647970 0.117710 -0.225617
C6    C     C_R   0.459534 0.352022 0.882272 -0.225689
C7    C     C_R   0.460897 0.648381 0.883008 -0.224920
C8    C     C_R   0.539043 0.351597 0.116985 -0.224993
C9    C     C_R   0.523861 0.722320 0.058294 0.349114
C10   C     C_R   0.476085 0.277670 0.941692 0.349158
C11   C     C_R   0.478059 0.722552 0.942887 0.349431
C12   C     C_R   0.521876 0.277429 0.057103 0.349464
C13   C     C_R   0.485969 0.574038 0.937214 0.048831
C14   C     C_R   0.513996 0.425949 0.062778 0.048834
C15   C     C_R   0.514718 0.573884 0.063100 0.048884
C16   C     C_R   0.485257 0.426105 0.936888 0.048895
C17   C     C_R   0.481278 0.500093 0.870395 -0.152723
C18   C     C_R   0.518702 0.499897 0.129596 -0.152720
H1    H     H_    0.574053 0.648739 0.207001 0.171122
H2    H     H_    0.425950 0.351253 0.792966 0.171054
H3    H     H_    0.427232 0.649500 0.793778 0.171627
H4    H     H_    0.572692 0.350463 0.206218 0.171600
C19   C     C_R   0.846183 0.573725 0.469905 0.314811
C20   C     C_R   0.153881 0.426155 0.530426 0.314769
C21   C     C_R   0.154008 0.573581 0.531266 0.314787
C22   C     C_R   0.845933 0.426295 0.468668 0.314717
C23   C     C_R   0.766692 0.574478 0.463305 0.006709
C24   C     C_R   0.233372 0.425485 0.536976 0.006652
C25   C     C_R   0.233497 0.574268 0.537787 0.007266
C26   C     C_R   0.766435 0.425699 0.462008 0.007339
C27   C     C_R   0.726594 0.500073 0.472832 -0.149213
C28   C     C_R   0.273406 0.499908 0.527187 -0.149199
C29   C     C_R   0.885031 0.499971 0.475803 -0.177793
C30   C     C_R   0.114972 0.499870 0.524388 -0.177750
C31   C     C_1   0.966139 0.499896 0.492850 0.198032
C32   C     C_1   0.033863 0.499875 0.507383 0.198059
C33   C     C_R   0.542669 0.831082 0.592180 -0.196656
C34   C     C_R   0.457336 0.168910 0.407849 -0.196612
C35   C     C_R   0.457259 0.830885 0.407705 -0.196598
C36   C     C_R   0.542760 0.169128 0.592313 -0.196560
H5    H     H_    0.576651 0.864831 0.663994 0.225722
H6    H     H_    0.423351 0.135154 0.336048 0.225722
H7    H     H_    0.423269 0.864435 0.335798 0.225512
H8    H     H_    0.576760 0.135593 0.664228 0.225489
C37   C     C_R   0.542648 0.745307 0.593972 0.415702
C38   C     C_R   0.457345 0.254684 0.406049 0.415711
C39   C     C_R   0.457376 0.745109 0.405987 0.416386
C40   C     C_R   0.542635 0.254903 0.594008 0.416459
N1    N     N_R   0.500000 0.701220 0.500000 -0.288212
N2    N     N_R   0.500000 0.298780 0.500000 -0.288287
C41   C     C_R   0.499948 0.874274 0.499947 -0.004366
C42   C     C_R   0.500070 0.125728 0.500084 -0.004367
C43   C     C_1   0.499981 0.963035 0.499977 0.112878
C44   C     C_1   0.500043 0.036967 0.500067 0.112905
N3    N     N_R   0.547473 0.203625 0.118839 0.161817
O9    O     O_R   0.611473 0.202510 0.190406 -0.327640
O10   O     O_R   0.502782 0.141363 0.119214 -0.235396
N4    N     N_R   0.452452 0.796351 0.881147 0.161828
O11   O     O_R   0.388446 0.797457 0.809596 -0.327591
O12   O     O_R   0.497141 0.858613 0.880743 -0.235423
N5    N     N_R   0.450053 0.204143 0.879335 0.161739
O13   O     O_R   0.385879 0.203414 0.808223 -0.327473
O14   O     O_R   0.494585 0.141894 0.877663 -0.236891
N6    N     N_R   0.549890 0.795852 0.120638 0.161727
O15   O     O_R   0.614063 0.796590 0.191748 -0.327448
O16   O     O_R   0.505359 0.858103 0.122293 -0.236862
N7    N     N_R   0.888024 0.648304 0.473958 0.143074
O17   O     O_R   0.933833 0.662916 0.392319 -0.260084
O18   O     O_R   0.880587 0.701576 0.559749 -0.249341
N8    N     N_R   0.112114 0.351524 0.526589 0.143323
O19   O     O_R   0.066030 0.337131 0.607907 -0.260264
O20   O     O_R   0.119838 0.298020 0.441280 -0.249497
N9    N     N_R   0.112366 0.648199 0.528270 0.143136
O21   O     O_R   0.066558 0.662396 0.610086 -0.260153
O22   O     O_R   0.119964 0.701907 0.443292 -0.249437
N10   N     N_R   0.887493 0.351618 0.471483 0.143432
O23   O     O_R   0.933702 0.337690 0.390165 -0.260315
O24   O     O_R   0.879433 0.297594 0.555773 -0.249667
C45   C     C_3   0.725995 0.654045 0.434096 -0.590480
H9    H     H_    0.762014 0.699953 0.395575 0.263805
H10   H     H_    0.677908 0.645119 0.360859 0.197878
H11   H     H_    0.706564 0.679940 0.518484 0.272804
C46   C     C_3   0.274160 0.346006 0.566485 -0.590265
H12   H     H_    0.238223 0.300177 0.605364 0.263805
H13   H     H_    0.293538 0.319944 0.482162 0.272788
H14   H     H_    0.322286 0.355115 0.639578 0.197576
C47   C     C_3   0.274431 0.653659 0.568105 -0.591396
H15   H     H_    0.238563 0.699366 0.607403 0.263714
H16   H     H_    0.322556 0.644293 0.641093 0.197215
H17   H     H_    0.293872 0.679999 0.484051 0.272632
C48   C     C_3   0.725410 0.346429 0.431147 -0.591122
H18   H     H_    0.761201 0.300877 0.391341 0.263660
H19   H     H_    0.706013 0.319807 0.515048 0.272623
H20   H     H_    0.677247 0.356060 0.358331 0.196791
N11   N     N_R   0.586958 0.708292 0.699563 0.123767
O25   O     O_R   0.602773 0.750015 0.800715 -0.336045
O26   O     O_R   0.627485 0.644369 0.688863 -0.309303
N12   N     N_R   0.413013 0.291693 0.300478 0.123825
O27   O     O_R   0.397201 0.249974 0.199321 -0.336035
O28   O     O_R   0.372444 0.355579 0.311223 -0.309159
N13   N     N_R   0.413299 0.707823 0.300335 0.124934
O29   O     O_R   0.398459 0.749015 0.198579 -0.336821
O30   O     O_R   0.371814 0.644629 0.311466 -0.309199
N14   N     N_R   0.586713 0.292209 0.699631 0.125113
O31   O     O_R   0.601452 0.251077 0.801464 -0.336924
O32   O     O_R   0.628349 0.355270 0.688388 -0.309032

loop_
_geom_bond_atom_site_label_1
_geom_bond_atom_site_label_2
_geom_bond_distance
_ccdc_geom_bond_type
C1    C28   1.504407 S    
C46   H12   1.108529 S    
C37   N1    1.402046 A    
N13   O29   1.300717 A    
O3    C2    1.298336 A    
N14   O31   1.300702 A    
N7    O17   1.300951 A    
C15   C18   1.418741 A    
O5    C3    1.296201 A    
N11   O26   1.293157 A    
C16   C17   1.418740 A    
C36   H8    1.083413 S    
N6    O16   1.301111 A    
C37   N11   1.449810 S    
O1    C1    1.298505 A    
C9    C11   1.413459 A    
C14   C16   1.404431 A    
C24   C28   1.431844 A    
N10   O24   1.301309 A    
C5    C15   1.412255 A    
C40   N2    1.401643 A    
C47   H15   1.108621 S    
C35   C39   1.417302 A    
N12   O27   1.300772 A    
C41   C43   1.466501 S    
O7    Cu1   1.975438 S    
C46   H13   1.106873 S    
C38   N12   1.449786 S    
C42   C44   1.466498 S    
C20   N8    1.437974 S    
C26   C48   1.517110 S    
C5    C9    1.403685 A    
N4    O11   1.301505 A    
N3    O10   1.301046 A    
C2    C27   1.504378 S    
C10   N5    1.440160 S    
C13   C17   1.418873 A    
C45   H10   1.107560 S    
O3    Cu1   1.949660 S    
C6    C10   1.403659 A    
C48   H19   1.106999 S    
C8    C12   1.403804 A    
Cu1   Cu2   2.657377 S    
O4    Cu2   1.949664 S    
O2    C2    1.298475 A    
C47   H16   1.107633 S    
C7    H3    1.078739 S    
C30   C32   1.435309 S    
C5    H1    1.078759 S    
C25   C28   1.431720 A    
N7    O18   1.301813 A    
C6    C16   1.412238 A    
C35   C41   1.383929 A    
N6    O15   1.301465 A    
C4    C17   1.491545 S    
C36   C40   1.417283 A    
C48   H18   1.108563 S    
C22   C26   1.410315 A    
C20   C30   1.399618 A    
N8    O20   1.301547 A    
O8    Cu2   1.975440 S    
N5    O14   1.301109 A    
C21   N9    1.437854 S    
N10   O23   1.301314 A    
N8    O19   1.301136 A    
C33   H5    1.083388 S    
C25   C47   1.517148 S    
C22   N10   1.438018 S    
C31   C32   1.198482 T    
C19   C23   1.410274 A    
C38   N2    1.402021 A    
C19   C29   1.399660 A    
C21   C25   1.410275 A    
C12   N3    1.440380 S    
C34   C42   1.383717 A    
N9    O21   1.301119 A    
O5    Cu1   1.975155 S    
O6    C4    1.296177 A    
N13   O30   1.293341 A    
C7    C13   1.412348 A    
C45   H11   1.106807 S    
C21   C30   1.399707 A    
C29   C31   1.435303 S    
C26   C27   1.431649 A    
N9    O22   1.301564 A    
C10   C12   1.413409 A    
C46   H14   1.107469 S    
C11   N4    1.440387 S    
C36   C42   1.383951 A    
C8    C14   1.412368 A    
C8    H4    1.078638 S    
C47   H17   1.106921 S    
C33   C37   1.417307 A    
C34   C38   1.417304 A    
O6    Cu2   1.975152 S    
C20   C24   1.410304 A    
C9    N6    1.440159 S    
C14   C18   1.418916 A    
O4    C1    1.298337 A    
C33   C41   1.383697 A    
N14   O32   1.293338 A    
Cu1   N1    1.995839 S    
C48   H20   1.107566 S    
Cu2   N2    1.995839 S    
N11   O25   1.300774 A    
C23   C45   1.517095 S    
N5    O13   1.301473 A    
C19   N7    1.437824 S    
C39   N13   1.449215 S    
C3    C18   1.491544 S    
C35   H7    1.083406 S    
C24   C46   1.517063 S    
N12   O28   1.293157 A    
C13   C15   1.404434 A    
C23   C27   1.431795 A    
O2    Cu2   1.949394 S    
O7    C4    1.295950 A    
C7    C11   1.403821 A    
C39   N1    1.401695 A    
O8    C3    1.295923 A    
C43   C44   1.221482 T    
C34   H6    1.083384 S    
O1    Cu1   1.949397 S    
N4    O12   1.301051 A    
N3    O9    1.301520 A    
C40   N14   1.449141 S    
C22   C29   1.399727 A    
C45   H9    1.108584 S    
C6    H2    1.078664 S    
