data_mof_unit_26319.cif
_audit_creation_date              2012-12-10T17:03:54-0500
_audit_creation_method            fapswitch 2.2
_symmetry_space_group_name_H-M    P1
_symmetry_Int_Tables_number       1
_space_group_crystal_system       triclinic
_cell_length_a                    9.764827
_cell_length_b                    10.786339
_cell_length_c                    15.877091
_cell_angle_alpha                 93.854118
_cell_angle_beta                  79.651259
_cell_angle_gamma                 109.82175
_cell_volume                      1547.57512475

loop_
_atom_site_label
_atom_site_type_symbol
_atom_type_description
_atom_site_fract_x
_atom_site_fract_y
_atom_site_fract_z
_atom_type_partial_charge
C1    C     C_R   0.552116 0.746452 0.509249 0.846322
C2    C     C_R   0.443864 0.252979 0.497551 0.842515
C3    C     C_R   0.328209 0.501142 0.076926 -0.199185
C4    C     C_R   0.683022 0.565995 0.925115 -0.195867
C5    C     C_R   0.228471 0.486600 0.021756 -0.216854
C6    C     C_R   0.783476 0.584750 0.980419 -0.216273
C7    C     C_2   0.570149 0.887734 0.520876 -0.256565
C8    C     C_2   0.414950 0.110177 0.504345 -0.261343
C9    C     C_2   0.458320 0.925097 0.567318 -0.074586
C10   C     C_2   0.462377 0.063896 0.567738 -0.085681
C11   C     C_2   0.923452 0.489433 0.492791 -0.055503
C12   C     C_2   0.076054 0.509728 0.507659 -0.059464
C13   C     C_R   0.411808 0.487477 0.662676 0.755463
C14   C     C_R   0.588455 0.513877 0.337346 0.828981
C15   C     C_R   0.361012 0.485158 0.755663 -0.055166
C16   C     C_R   0.641511 0.528326 0.244640 -0.057459
C17   C     C_R   0.170705 0.470499 0.878923 -0.179118
C18   C     C_R   0.838438 0.583592 0.122652 -0.186542
C19   C     C_R   0.214171 0.470351 0.790408 -0.169858
C20   C     C_R   0.792055 0.565544 0.210569 -0.166899
C21   C     C_R   0.463739 0.501293 0.810235 -0.225962
C22   C     C_R   0.538333 0.509104 0.189940 -0.224563
C23   C     C_R   0.424390 0.507648 0.899545 0.091568
C24   C     C_R   0.582426 0.532027 0.101561 0.089470
C25   C     C_R   0.274180 0.488229 0.933581 0.161945
C26   C     C_R   0.735109 0.566685 0.068023 0.160562
C27   C     C_R   0.529339 0.530190 0.955741 0.067756
C28   C     C_R   0.479151 0.519883 0.045727 0.069193
Cu1   Cu    Cu3+1 0.362980 0.479380 0.485080 0.973833
Cu2   Cu    Cu3+1 0.637020 0.520620 0.514920 0.973166
H1    H     H_    0.114089 0.472678 0.048477 0.141117
H2    H     H_    0.900175 0.613080 0.954209 0.147011
H3    H     H_    0.423383 0.473892 0.217872 0.158216
H4    H     H_    0.573714 0.505857 0.781418 0.157995
H5    H     H_    0.873737 0.581109 0.251722 0.162800
H6    H     H_    0.133010 0.458014 0.749357 0.162332
H7    H     H_    0.056064 0.456931 0.904740 0.136982
H8    H     H_    0.955393 0.611984 0.097359 0.135475
H9    H     H_    0.283513 0.501264 0.144036 0.145025
H10   H     H_    0.730659 0.584868 0.858667 0.150567
H11   H     H_    0.120330 0.577559 0.557413 0.161061
H12   H     H_    0.878738 0.420936 0.443400 0.157140
H13   H     H_    0.112686 0.384464 0.415725 0.209014
H14   H     H_    0.887689 0.616142 0.583915 0.215400
N1    N     N_2   0.842890 0.551600 0.537350 -0.278409
N2    N     N_2   0.157110 0.448400 0.462650 -0.281711
O1    O     O_R   0.426810 0.668300 0.492040 -0.605818
O2    O     O_R   0.573190 0.331700 0.507960 -0.609605
O3    O     O_R   0.658240 0.703130 0.517240 -0.514148
O4    O     O_R   0.341760 0.296870 0.482760 -0.512135
O5    O     O_R   0.319390 0.472820 0.610170 -0.589888
O6    O     O_R   0.680610 0.527180 0.389830 -0.573723
O7    O     O_R   0.550820 0.507640 0.635370 -0.587484
O8    O     O_R   0.449180 0.492360 0.364630 -0.570684
C29   C     C_2   0.513327 0.146585 0.642566 0.454497
H15   H     H_    0.494280 0.239713 0.656280 0.066620
O9    O     O_2   0.575205 0.109429 0.691061 -0.532898
C30   C     C_2   0.331045 0.831822 0.623342 0.422247
H16   H     H_    0.333240 0.736559 0.639506 0.057666
O10   O     O_2   0.222552 0.862199 0.653540 -0.544226
C31   C     C_2   0.341089 0.020605 0.438241 0.423222
H17   H     H_    0.312991 0.914637 0.442392 0.094869
O11   O     O_2   0.310651 0.064752 0.377943 -0.517232
C32   C     C_2   0.708180 0.986106 0.477074 0.411070
H18   H     H_    0.728229 0.091016 0.486016 0.086739
O12   O     O_2   0.801696 0.950549 0.430123 -0.512989

loop_
_geom_bond_atom_site_label_1
_geom_bond_atom_site_label_2
_ccdc_geom_bond_type
C6    H2    S    
C11   C12   S    
C4    H10   S    
C12   H11   S    
C23   C27   A    
C9    C10   S    
C8    C31   S    
Cu2   N1    S    
C18   C20   A    
C18   C26   A    
C13   C15   S    
Cu1   N2    S    
C16   C20   A    
C17   C25   A    
C32   H18   S    
C29   H15   S    
C29   O9    D    
C18   H8    S    
C3    H9    S    
C6    C26   A    
Cu2   O7    S    
C15   C19   A    
C10   C29   S    
C20   H5    S    
Cu1   Cu2   S    
C5    H1    S    
Cu1   O1    S    
C5    C25   A    
C22   C24   A    
C4    C6    A    
C3    C28   A    
C14   O8    A    
Cu2   O3    S    
C24   C26   A    
C13   O7    A    
Cu1   O4    S    
C23   C25   A    
C21   C23   A    
C13   O5    A    
C31   H17   S    
H13   N2    S    
C14   C16   S    
C7    C32   S    
C11   N1    D    
Cu1   O8    S    
C30   O10   D    
C17   C19   A    
C7    C9    D    
C15   C21   A    
C4    C27   A    
H14   N1    S    
C11   H12   S    
C8    C10   D    
C9    C30   S    
Cu1   O5    S    
Cu2   O2    S    
C27   C28   A    
C31   O11   D    
C22   H3    S    
Cu2   O6    S    
C1    O1    A    
C2    C8    S    
C17   H7    S    
C21   H4    S    
C2    O4    A    
C2    O2    A    
C19   H6    S    
C1    C7    S    
C30   H16   S    
C1    O3    A    
C14   O6    A    
C24   C28   A    
C16   C22   A    
C3    C5    A    
C12   N2    D    
C32   O12   D    
