data_mof_unit_56772.cif
_audit_creation_date              2012-12-11T14:03:57-0500
_audit_creation_method            fapswitch 2.2
_symmetry_space_group_name_H-M    P1
_symmetry_Int_Tables_number       1
_space_group_crystal_system       triclinic
_cell_length_a                    19.004152
_cell_length_b                    11.006789
_cell_length_c                    18.830367
_cell_angle_alpha                 90.102222
_cell_angle_beta                  90.040946
_cell_angle_gamma                 90.151354
_cell_volume                      3938.81517137

loop_
_atom_site_label
_atom_site_type_symbol
_atom_type_description
_atom_site_fract_x
_atom_site_fract_y
_atom_site_fract_z
_atom_type_partial_charge
C1    C     C_R   0.240045 0.466493 0.647178 0.560151
C2    C     C_R   0.760303 0.467204 0.353223 0.567879
C3    C     C_R   0.740045 0.966494 0.647178 0.560150
C4    C     C_R   0.260302 0.967203 0.353223 0.567883
C5    C     C_2   0.279387 0.828678 0.534379 -0.076146
C6    C     C_2   0.723759 0.823931 0.466742 -0.087189
C7    C     C_2   0.779400 0.328699 0.534384 -0.076100
C8    C     C_2   0.223769 0.323920 0.466745 -0.087219
C9    C     C_R   0.006417 0.669920 0.425203 -0.002218
C10   C     C_R   0.993522 0.659094 0.574568 0.002898
C11   C     C_R   0.506409 0.169910 0.425209 -0.002225
C12   C     C_R   0.493511 0.159100 0.574574 0.002886
C13   C     C_R   0.994415 0.894608 0.433061 -0.066577
C14   C     C_R   0.965998 0.876109 0.577920 -0.078237
C15   C     C_R   0.494422 0.394603 0.433061 -0.066577
C16   C     C_R   0.465995 0.376116 0.577920 -0.078239
C17   C     C_R   0.974811 0.997207 0.471797 -0.109360
C18   C     C_R   0.958756 0.987159 0.543640 -0.116846
C19   C     C_R   0.474812 0.497206 0.471791 -0.109355
C20   C     C_R   0.458751 0.487161 0.543633 -0.116847
C21   C     C_R   0.986285 0.771564 0.539885 -0.006574
C22   C     C_R   0.995812 0.778615 0.465194 -0.011471
C23   C     C_R   0.486283 0.271567 0.539889 -0.006574
C24   C     C_R   0.495813 0.278611 0.465198 -0.011471
C25   C     C_R   0.996287 0.551877 0.532709 0.027439
C26   C     C_R   0.019344 0.560860 0.462056 0.020200
C27   C     C_R   0.496259 0.051880 0.532721 0.027421
C28   C     C_R   0.519319 0.060846 0.462066 0.020201
C29   C     C_R   0.979300 0.435496 0.559795 0.305039
C30   C     C_R   0.047600 0.456984 0.428067 0.297056
C31   C     C_R   0.479260 0.935512 0.559814 0.305042
C32   C     C_R   0.547560 0.956954 0.428083 0.297068
C33   C     C_R   0.001734 0.331805 0.522910 -0.122856
C34   C     C_R   0.038031 0.342534 0.459115 -0.120209
C35   C     C_R   0.501670 0.831808 0.522929 -0.122833
C36   C     C_R   0.537969 0.842513 0.459132 -0.120200
C37   C     C_2   0.258243 0.933867 0.914123 0.237705
C38   C     C_2   0.759014 0.908358 0.074642 0.253327
C39   C     C_2   0.758242 0.433864 0.914124 0.237704
C40   C     C_2   0.259014 0.408358 0.074642 0.253327
C41   C     C_2   0.254455 0.937189 0.073472 -0.084093
C42   C     C_2   0.752116 0.893975 0.913452 -0.105409
C43   C     C_2   0.754454 0.437186 0.073474 -0.084095
C44   C     C_2   0.252116 0.393975 0.913452 -0.105408
C45   C     C_R   0.227529 0.874356 0.647815 0.548866
C46   C     C_R   0.772701 0.874005 0.352504 0.557137
C47   C     C_R   0.727530 0.374358 0.647816 0.548867
C48   C     C_R   0.272701 0.374004 0.352504 0.557126
C49   C     C_2   0.228443 0.022845 0.029694 -0.171362
C50   C     C_2   0.808535 0.917537 0.952908 -0.181647
C51   C     C_2   0.728441 0.522841 0.029695 -0.171362
C52   C     C_2   0.308535 0.417535 0.952908 -0.181648
C53   C     C_2   0.215333 0.000711 0.954983 -0.166727
C54   C     C_2   0.810262 0.881765 0.026916 -0.153706
C55   C     C_2   0.715332 0.500705 0.954984 -0.166726
C56   C     C_2   0.310262 0.381762 0.026916 -0.153706
C57   C     C_2   0.008346 0.654867 0.924213 -0.056839
C58   C     C_2   0.006613 0.657074 0.082207 -0.055627
C59   C     C_2   0.508344 0.154867 0.924212 -0.056840
C60   C     C_2   0.506612 0.157074 0.082206 -0.055628
C61   C     C_2   0.005484 0.560144 0.038718 0.211926
C62   C     C_2   0.035469 0.571856 0.968802 0.208477
C63   C     C_2   0.505479 0.060145 0.038717 0.211921
C64   C     C_2   0.535466 0.071855 0.968802 0.208476
C65   C     C_R   0.026981 0.654212 0.646139 0.558872
C66   C     C_R   0.972741 0.656457 0.354006 0.580198
C67   C     C_R   0.526978 0.154213 0.646141 0.558898
C68   C     C_R   0.472740 0.156455 0.354007 0.580176
C69   C     C_R   0.239418 0.463015 0.849328 0.565554
C70   C     C_R   0.761940 0.470022 0.147545 0.546555
C71   C     C_R   0.739418 0.963015 0.849328 0.565549
C72   C     C_R   0.261940 0.970022 0.147545 0.546561
C73   C     C_R   0.228694 0.875802 0.851547 0.606260
C74   C     C_R   0.773192 0.872904 0.146816 0.617935
C75   C     C_R   0.728694 0.375802 0.851548 0.606258
C76   C     C_R   0.273192 0.372904 0.146816 0.617939
C77   C     C_R   0.030994 0.651729 0.851485 0.588431
C78   C     C_R   0.970325 0.651669 0.149276 0.576424
C79   C     C_R   0.530994 0.151729 0.851485 0.588431
C80   C     C_R   0.470325 0.151669 0.149276 0.576423
C81   C     C_2   0.250802 0.913707 0.577514 0.229169
C82   C     C_2   0.750466 0.911237 0.423630 0.226396
C83   C     C_2   0.750803 0.413718 0.577517 0.229192
C84   C     C_2   0.250467 0.411232 0.423631 0.226369
C85   C     C_2   0.244508 0.907593 0.420143 -0.000757
C86   C     C_2   0.757039 0.907446 0.580470 -0.000783
C87   C     C_2   0.744512 0.407594 0.420145 -0.000773
C88   C     C_2   0.257042 0.407448 0.580471 -0.000781
C89   C     C_2   0.293405 0.850198 0.458686 0.243605
C90   C     C_2   0.710521 0.842848 0.543050 0.240399
C91   C     C_2   0.793417 0.350222 0.458691 0.243617
C92   C     C_2   0.210529 0.342837 0.543052 0.240397
Cr1   Cr    Cr6+3 0.113970 0.508630 0.747920 1.112128
Cr2   Cr    Cr6+3 0.886030 0.508630 0.252080 1.115998
Cr3   Cr    Cr6+3 0.613970 0.008630 0.747920 1.112145
Cr4   Cr    Cr6+3 0.386030 0.008630 0.252080 1.115994
Cr5   Cr    Cr6+3 0.269200 0.666740 0.749850 1.046590
Cr6   Cr    Cr6+3 0.730800 0.666740 0.250150 1.028933
Cr7   Cr    Cr6+3 0.769200 0.166740 0.749850 1.046603
Cr8   Cr    Cr6+3 0.230800 0.166740 0.250150 1.028926
Cr9   Cr    Cr6+3 0.112300 0.820070 0.749800 1.027178
Cr10  Cr    Cr6+3 0.887700 0.820070 0.250200 1.024749
Cr11  Cr    Cr6+3 0.612300 0.320070 0.749800 1.027176
Cr12  Cr    Cr6+3 0.387700 0.320070 0.250200 1.024751
H1    H     H_    0.164230 0.029946 0.935667 0.136411
H2    H     H_    0.858213 0.836626 0.044109 0.115930
H3    H     H_    0.664229 0.529939 0.935668 0.136412
H4    H     H_    0.358212 0.336619 0.044109 0.115929
H5    H     H_    0.273185 0.849947 0.054358 0.152665
H6    H     H_    0.709988 0.837080 0.934153 0.141704
H7    H     H_    0.773183 0.349943 0.054360 0.152662
H8    H     H_    0.209988 0.337080 0.934153 0.141700
H9    H     H_    0.029288 0.743054 0.065158 0.049258
H10   H     H_    0.970320 0.722349 0.941524 0.023483
H11   H     H_    0.529289 0.243052 0.065158 0.049258
H12   H     H_    0.470319 0.222351 0.941523 0.023485
H13   H     H_    0.291474 0.738376 0.554185 0.118437
H14   H     H_    0.712708 0.733502 0.446203 0.120542
H15   H     H_    0.791498 0.238401 0.554190 0.118431
H16   H     H_    0.212727 0.233486 0.446207 0.120548
H17   H     H_    0.193305 0.926809 0.443388 0.103480
H18   H     H_    0.807023 0.932606 0.556509 0.112920
H19   H     H_    0.693306 0.426792 0.443388 0.103474
H20   H     H_    0.307023 0.432619 0.556509 0.112918
H21   H     H_    0.971389 0.084412 0.445678 0.113681
H22   H     H_    0.940641 0.065185 0.573288 0.104479
H23   H     H_    0.471386 0.584407 0.445666 0.113672
H24   H     H_    0.440628 0.565187 0.573276 0.104475
H25   H     H_    0.009421 0.907652 0.378240 0.137235
H26   H     H_    0.952524 0.871299 0.633702 0.126248
H27   H     H_    0.509432 0.407640 0.378241 0.137229
H28   H     H_    0.452518 0.371310 0.633702 0.126242
H29   H     H_    0.992557 0.242672 0.544519 0.086376
H30   H     H_    0.057454 0.261371 0.433223 0.086887
H31   H     H_    0.492485 0.742685 0.544545 0.086365
H32   H     H_    0.557377 0.761337 0.433244 0.086868
H33   H     H_    0.209946 0.109532 0.050126 0.164737
H34   H     H_    0.852657 0.969857 0.932557 0.169865
H35   H     H_    0.709945 0.609529 0.050126 0.164737
H36   H     H_    0.352657 0.469855 0.932558 0.169865
O1    O     O_R   0.043230 0.549300 0.667990 -0.452368
O2    O     O_R   0.956770 0.549300 0.332010 -0.453551
O3    O     O_R   0.543230 0.049300 0.667990 -0.452327
O4    O     O_R   0.456770 0.049300 0.332010 -0.453558
O5    O     O_R   0.262920 0.788600 0.824420 -0.448299
O6    O     O_R   0.737080 0.788600 0.175580 -0.491242
O7    O     O_R   0.762920 0.288600 0.824420 -0.448300
O8    O     O_R   0.237080 0.288600 0.175580 -0.491245
O9    O     O_R   0.167530 0.905110 0.830340 -0.549077
O10   O     O_R   0.832470 0.905110 0.169660 -0.530750
O11   O     O_R   0.667530 0.405110 0.830340 -0.549078
O12   O     O_R   0.332470 0.405110 0.169660 -0.530747
O13   O     O_R   0.054010 0.748440 0.822860 -0.514720
O14   O     O_R   0.945990 0.748440 0.177140 -0.527151
O15   O     O_R   0.554010 0.248440 0.822860 -0.514723
O16   O     O_R   0.445990 0.248440 0.177140 -0.527151
O17   O     O_3   0.165160 0.665150 0.749190 -0.274722
O18   O     O_3   0.834840 0.665150 0.250810 -0.281764
O19   O     O_3   0.665160 0.165150 0.749190 -0.274726
O20   O     O_3   0.334840 0.165150 0.250810 -0.281763
O21   O     O_R   0.178620 0.457600 0.674100 -0.439665
O22   O     O_R   0.821380 0.457600 0.325900 -0.434325
O23   O     O_R   0.678620 0.957600 0.674100 -0.439658
O24   O     O_R   0.321380 0.957600 0.325900 -0.434330
O25   O     O_R   0.284680 0.542100 0.669460 -0.554693
O26   O     O_R   0.715320 0.542100 0.330540 -0.544945
O27   O     O_R   0.784680 0.042100 0.669460 -0.554685
O28   O     O_R   0.215320 0.042100 0.330540 -0.544950
O29   O     O_R   0.262860 0.790390 0.676650 -0.520422
O30   O     O_R   0.737140 0.790390 0.323350 -0.526120
O31   O     O_R   0.762860 0.290390 0.676650 -0.520406
O32   O     O_R   0.237140 0.290390 0.323350 -0.526143
O33   O     O_R   0.167460 0.907030 0.670940 -0.508485
O34   O     O_R   0.832540 0.907030 0.329060 -0.507575
O35   O     O_R   0.667460 0.407030 0.670940 -0.508503
O36   O     O_R   0.332540 0.407030 0.329060 -0.507561
O37   O     O_R   0.053950 0.750220 0.675100 -0.518028
O38   O     O_R   0.946050 0.750220 0.324900 -0.525161
O39   O     O_R   0.553950 0.250220 0.675100 -0.518030
O40   O     O_R   0.446050 0.250220 0.324900 -0.525157
O41   O     O_R   0.043300 0.547370 0.827390 -0.440504
O42   O     O_R   0.956700 0.547370 0.172610 -0.422949
O43   O     O_R   0.543300 0.047370 0.827390 -0.440499
O44   O     O_R   0.456700 0.047370 0.172610 -0.422950
O45   O     O_R   0.178690 0.455820 0.821860 -0.467357
O46   O     O_R   0.821310 0.455820 0.178140 -0.479916
O47   O     O_R   0.678690 0.955820 0.821860 -0.467360
O48   O     O_R   0.321310 0.955820 0.178140 -0.479910
O49   O     O_R   0.284750 0.540170 0.828860 -0.512144
O50   O     O_R   0.715250 0.540170 0.171140 -0.516245
O51   O     O_R   0.784750 0.040170 0.828860 -0.512145
O52   O     O_R   0.215250 0.040170 0.171140 -0.516243
O53   O     O_3   0.354489 0.808476 0.427425 -0.681639
H37   H     H_    0.379831 0.758675 0.462887 0.312261
O54   O     O_3   0.653719 0.789605 0.576534 -0.688432
H38   H     H_    0.632974 0.729367 0.543413 0.320932
O55   O     O_3   0.854510 0.308529 0.427436 -0.681619
H39   H     H_    0.879864 0.258758 0.462903 0.312262
O56   O     O_3   0.153739 0.289572 0.576539 -0.688453
H40   H     H_    0.132997 0.229326 0.543421 0.320945
O57   O     O_3   0.327083 0.907002 0.932485 -0.696176
H41   H     H_    0.344996 0.970919 0.965034 0.334617
O58   O     O_3   0.699879 0.977075 0.060861 -0.713551
H42   H     H_    0.708593 0.027950 0.018479 0.348128
O59   O     O_3   0.827082 0.406998 0.932486 -0.696176
H43   H     H_    0.844995 0.470914 0.965036 0.334616
O60   O     O_3   0.199881 0.477081 0.060862 -0.713548
H44   H     H_    0.208596 0.527954 0.018479 0.348128
O61   O     O_3   0.974362 0.450801 0.057776 -0.661908
H45   H     H_    0.974203 0.395443 0.016133 0.339648
O62   O     O_3   0.086247 0.489840 0.946844 -0.674129
H46   H     H_    0.093831 0.429298 0.984959 0.353387
O63   O     O_3   0.474354 0.950806 0.057774 -0.661912
H47   H     H_    0.474194 0.895448 0.016131 0.339651
O64   O     O_3   0.586243 0.989837 0.946844 -0.674129
H48   H     H_    0.593826 0.929295 0.984960 0.353388
O65   O     O_3   0.239502 0.030856 0.553965 -0.736442
H49   H     H_    0.221051 0.078836 0.594406 0.350519
O66   O     O_3   0.760766 0.028730 0.447674 -0.730980
H50   H     H_    0.779849 0.077606 0.407892 0.350000
O67   O     O_3   0.739487 0.530862 0.553964 -0.736442
H51   H     H_    0.721008 0.578829 0.594396 0.350521
O68   O     O_3   0.260756 0.528728 0.447673 -0.730982
H52   H     H_    0.279832 0.577607 0.407889 0.350011
O69   O     O_3   0.084444 0.470143 0.365250 -0.674849
H53   H     H_    0.099837 0.388966 0.348530 0.325656
O70   O     O_3   0.938384 0.425623 0.620227 -0.672545
H54   H     H_    0.930166 0.338414 0.630685 0.314488
O71   O     O_3   0.584416 0.970087 0.365270 -0.674844
H55   H     H_    0.599784 0.888898 0.348548 0.325645
O72   O     O_3   0.438380 0.925657 0.620270 -0.672541
H56   H     H_    0.430131 0.838455 0.630724 0.314500

loop_
_geom_bond_atom_site_label_1
_geom_bond_atom_site_label_2
_ccdc_geom_bond_type
C7    C83   D    
O58   H42   S    
Cr3   O3    S    
C48   C84   S    
C6    C82   D    
Cr7   O19   S    
Cr8   O32   S    
O57   H41   S    
C14   C18   A    
C64   O64   S    
Cr9   O33   S    
C35   C36   A    
Cr6   O50   S    
Cr3   O43   S    
Cr10  O18   S    
C3    O27   A    
C57   C62   D    
Cr12  O36   S    
O59   H43   S    
C15   C19   A    
C66   O38   A    
C12   C23   A    
C8    H16   S    
C59   C64   D    
C50   C54   S    
C60   C63   D    
Cr3   O19   S    
C32   C36   A    
C14   C21   A    
C16   C20   A    
Cr4   O44   S    
C20   H24   S    
C87   C91   D    
C38   C74   S    
C49   C53   S    
C9    C22   A    
Cr7   O31   S    
C4    O24   A    
C34   H30   S    
C29   C33   A    
C11   C24   A    
Cr6   O30   S    
C65   O1    A    
C41   H5    S    
Cr9   O9    S    
O70   H54   S    
Cr4   O48   S    
C9    C66   S    
C56   H4    S    
C37   C73   S    
C77   O13   A    
C46   C82   S    
Cr1   O41   S    
C39   C55   D    
C90   O54   S    
Cr6   O18   S    
C75   O11   A    
C59   H12   S    
C40   C56   D    
C31   O72   S    
C86   H18   S    
C58   H9    S    
C77   O41   A    
C23   C24   A    
C46   O34   A    
C85   H17   S    
C8    C92   S    
C39   C75   S    
C92   O56   S    
Cr10  O14   S    
Cr11  O39   S    
C61   C62   S    
Cr11  O11   S    
C37   C53   D    
C44   C52   D    
C58   C61   D    
Cr5   O49   S    
Cr8   O8    S    
C40   O60   S    
C67   O3    A    
O56   H40   S    
Cr2   O18   S    
C48   O32   A    
C21   C22   A    
C3    C86   S    
C30   O69   S    
C2    O22   A    
Cr8   O52   S    
C43   H7    S    
Cr12  O20   S    
C36   H32   S    
C41   C49   D    
C9    C26   A    
C33   C34   A    
Cr7   O27   S    
Cr11  O19   S    
C10   C21   A    
C25   C29   A    
C12   C67   S    
C30   C34   A    
C12   C27   A    
Cr3   O47   S    
O60   H44   S    
Cr2   O2    S    
C88   C92   D    
C28   C32   A    
O68   H52   S    
O61   H45   S    
C86   C90   D    
C59   C79   S    
O66   H50   S    
C54   H2    S    
C78   O14   A    
C4    C85   S    
Cr6   O6    S    
C75   O7    A    
C25   C26   A    
O63   H47   S    
C27   C31   A    
C68   O40   A    
Cr12  O16   S    
Cr4   O24   S    
C5    H13   S    
C78   O42   A    
Cr5   O17   S    
C87   H19   S    
O64   H48   S    
C17   H21   S    
O71   H55   S    
C7    H15   S    
Cr4   O4    S    
O67   H51   S    
C5    C81   D    
Cr8   O20   S    
O62   H46   S    
C38   C54   D    
Cr1   O21   S    
C62   O62   S    
C89   O53   S    
Cr11  O35   S    
C17   C18   A    
C2    C87   S    
C76   O12   A    
C61   O61   S    
C63   O63   S    
Cr1   O17   S    
C51   H35   S    
Cr6   O26   S    
C46   O30   A    
C73   O9    A    
C42   C50   D    
C41   C72   S    
C44   H8    S    
C10   C25   A    
Cr11  O15   S    
C15   C24   A    
Cr4   O20   S    
Cr10  O10   S    
C88   H20   S    
C16   C23   A    
C47   C83   S    
C38   O58   S    
C1    O21   A    
C72   O48   A    
Cr10  O38   S    
C31   C35   A    
Cr10  O34   S    
C29   O70   S    
C2    O26   A    
C35   H31   S    
C82   O66   S    
C69   O45   A    
C7    C91   S    
C27   C28   A    
C80   O16   A    
Cr1   O1    S    
C11   C68   S    
C70   O50   A    
C49   H33   S    
C14   H26   S    
C10   C65   S    
Cr7   O7    S    
C32   O71   S    
C60   C80   S    
C85   C89   D    
O69   H53   S    
C1    O25   A    
C8    C84   D    
C4    O28   A    
Cr5   O5    S    
C74   O6    A    
C33   H29   S    
C45   C81   S    
Cr2   O46   S    
C71   O47   A    
C69   O49   A    
C84   O68   S    
C45   O29   A    
C47   O31   A    
C83   O67   S    
C26   C30   A    
C81   O65   S    
C66   O2    A    
C13   H25   S    
C3    O23   A    
C43   C70   S    
C79   O15   A    
Cr2   O42   S    
C19   C20   A    
C13   C17   A    
Cr3   O23   S    
Cr8   O28   S    
Cr12  O12   S    
C57   C77   S    
O65   H49   S    
Cr5   O29   S    
C6    C90   S    
O54   H38   S    
C18   H22   S    
Cr7   O51   S    
C43   C51   D    
Cr12  O40   S    
C57   H10   S    
C65   O37   A    
C11   C28   A    
C1    C88   S    
Cr5   O25   S    
C39   O59   S    
C19   H23   S    
C42   C71   S    
C52   H36   S    
C79   O43   A    
C13   C22   A    
C68   O4    A    
C51   C55   S    
C80   O44   A    
C42   H6    S    
O55   H39   S    
C16   H28   S    
C5    C89   S    
Cr9   O37   S    
C58   C78   S    
Cr9   O17   S    
C63   C64   S    
C91   O55   S    
C53   H1    S    
C45   O33   A    
C15   H27   S    
C76   O8    A    
O53   H37   S    
C44   C69   S    
C40   C76   S    
C73   O5    A    
O72   H56   S    
C37   O57   S    
C50   H34   S    
C74   O10   A    
C60   H11   S    
C67   O39   A    
C55   H3    S    
C71   O51   A    
C70   O46   A    
Cr9   O13   S    
C72   O52   A    
C47   O35   A    
Cr2   O22   S    
C52   C56   S    
C6    H14   S    
C48   O36   A    
Cr1   O45   S    
