data_mof_unit_45516.cif
_audit_creation_date              2012-12-11T14:08:39-0500
_audit_creation_method            fapswitch 2.2
_symmetry_space_group_name_H-M    P1
_symmetry_Int_Tables_number       1
_space_group_crystal_system       triclinic
_cell_length_a                    28.264347
_cell_length_b                    7.19568
_cell_length_c                    17.182968
_cell_angle_alpha                 89.999959
_cell_angle_beta                  102.103793
_cell_angle_gamma                 90.000318
_cell_volume                      3417.00332927

loop_
_atom_site_label
_atom_site_type_symbol
_atom_type_description
_atom_site_fract_x
_atom_site_fract_y
_atom_site_fract_z
_atom_type_partial_charge
O1    O     O_R   0.000700 0.436510 0.857920 -0.538380
O2    O     O_R   0.999300 0.563490 0.142080 -0.538816
O3    O     O_R   0.999300 0.936510 0.642080 -0.538812
O4    O     O_R   0.000700 0.063490 0.357920 -0.538393
O5    O     O_R   0.930080 0.766380 0.721890 -0.537746
O6    O     O_R   0.069920 0.233620 0.278110 -0.537103
O7    O     O_R   0.069920 0.266380 0.778110 -0.537080
O8    O     O_R   0.930080 0.733620 0.221890 -0.537732
C1    C     C_R   0.910794 0.597618 0.708442 0.686512
C2    C     C_R   0.089301 0.402327 0.291419 0.686142
C3    C     C_R   0.089303 0.097675 0.791426 0.686132
C4    C     C_R   0.910793 0.902382 0.208453 0.686536
O9    O     O_R   0.996180 0.766230 0.862310 -0.537694
O10   O     O_R   0.003820 0.233770 0.137690 -0.537475
O11   O     O_R   0.003820 0.266230 0.637690 -0.537476
O12   O     O_R   0.996180 0.733770 0.362310 -0.537673
O13   O     O_R   0.065870 0.936460 0.783500 -0.533821
O14   O     O_R   0.934130 0.063540 0.216500 -0.534692
O15   O     O_R   0.934130 0.436460 0.716500 -0.534703
O16   O     O_R   0.065870 0.563540 0.283500 -0.533841
C5    C     C_R   0.998383 0.596425 0.894442 0.783764
C6    C     C_R   0.001587 0.403571 0.105547 0.778579
C7    C     C_R   0.001587 0.096428 0.605547 0.778566
C8    C     C_R   0.998384 0.903575 0.394443 0.783651
O17   O     O_3   0.022790 0.603020 0.723980 -0.374591
O18   O     O_3   0.977210 0.396980 0.276020 -0.375941
O19   O     O_3   0.977210 0.103020 0.776020 -0.375968
O20   O     O_3   0.022790 0.896980 0.223980 -0.374636
V1    V     V_3+5 0.995770 0.877900 0.754830 1.497172
V2    V     V_3+5 0.004230 0.122100 0.245170 1.498304
V3    V     V_3+5 0.004230 0.377900 0.745170 1.498407
V4    V     V_3+5 0.995770 0.622100 0.254830 1.497149
C9    C     C_2   0.001770 0.082611 0.519583 -0.288630
C10   C     C_2   0.998197 0.917381 0.480405 -0.290792
C11   C     C_2   0.998196 0.582618 0.980404 -0.290846
C12   C     C_2   0.001769 0.417388 0.019583 -0.288594
H1    H     H_    0.004637 0.211394 0.487918 0.155946
H2    H     H_    0.995325 0.788599 0.512067 0.155302
H3    H     H_    0.995323 0.711400 0.012067 0.155265
H4    H     H_    0.004636 0.288606 0.987918 0.155926
C13   C     C_R   0.682455 0.891557 0.026869 0.580133
C14   C     C_R   0.317770 0.096961 0.974721 0.579480
C15   C     C_R   0.317778 0.402991 0.474602 0.579466
C16   C     C_R   0.682470 0.608271 0.526713 0.580130
O21   O     O_2   0.710848 0.816714 0.981079 -0.507974
O22   O     O_2   0.288966 0.152014 0.023774 -0.506314
O23   O     O_2   0.288984 0.347793 0.523647 -0.506343
O24   O     O_2   0.710863 0.683101 0.480922 -0.507981
N1    N     N_R   0.703484 0.950994 0.101925 -0.554054
N2    N     N_R   0.297173 0.058589 0.896823 -0.554057
N3    N     N_R   0.297172 0.441481 0.396719 -0.554021
N4    N     N_R   0.703494 0.548928 0.601787 -0.554049
C17   C     C_R   0.676189 0.024761 0.151211 0.606889
C18   C     C_R   0.325073 0.008352 0.844185 0.605839
C19   C     C_R   0.325066 0.491820 0.344085 0.605898
C20   C     C_R   0.676196 0.475197 0.651075 0.606762
C21   C     C_R   0.775616 0.822036 0.192771 -0.101946
C22   C     C_R   0.224231 0.194916 0.810680 -0.103758
C23   C     C_R   0.224222 0.305367 0.310501 -0.103716
C24   C     C_R   0.775608 0.677913 0.692673 -0.101944
C25   C     C_R   0.825997 0.808666 0.218989 -0.099909
C26   C     C_R   0.173818 0.204996 0.784391 -0.099701
C27   C     C_R   0.173808 0.295266 0.284240 -0.099766
C28   C     C_R   0.825986 0.691292 0.718926 -0.099891
C29   C     C_R   0.836385 0.029369 0.116142 -0.090942
C30   C     C_R   0.164673 0.961298 0.878815 -0.089345
C31   C     C_R   0.164669 0.538488 0.378873 -0.089409
C32   C     C_R   0.836407 0.470678 0.616067 -0.090968
C33   C     C_R   0.786021 0.041286 0.091129 -0.108694
C34   C     C_R   0.215110 0.952299 0.903553 -0.111179
C35   C     C_R   0.215107 0.547530 0.403581 -0.111124
C36   C     C_R   0.786045 0.458745 0.591021 -0.108691
C37   C     C_R   0.755390 0.938182 0.128958 0.343643
C38   C     C_R   0.245162 0.068800 0.870124 0.343333
C39   C     C_R   0.245158 0.431272 0.370034 0.343215
C40   C     C_R   0.755398 0.561796 0.628839 0.343613
C41   C     C_R   0.602898 0.978863 0.049297 -0.050472
C42   C     C_R   0.397902 0.033693 0.948669 -0.050147
C43   C     C_R   0.397905 0.466337 0.448541 -0.050139
C44   C     C_R   0.602909 0.521013 0.549142 -0.050460
C45   C     C_R   0.631584 0.906533 0.997938 -0.075283
C46   C     C_R   0.368673 0.081960 0.003232 -0.075561
C47   C     C_R   0.368681 0.418008 0.503105 -0.075540
C48   C     C_R   0.631600 0.593238 0.497770 -0.075282
C49   C     C_R   0.608254 0.851205 0.920218 -0.049617
C50   C     C_R   0.391441 0.111523 0.083939 -0.050566
C51   C     C_R   0.391453 0.388403 0.583805 -0.050559
C52   C     C_R   0.608277 0.648398 0.420024 -0.049641
C53   C     C_R   0.625632 0.037794 0.126397 -0.026868
C54   C     C_R   0.375671 0.997451 0.868685 -0.025489
C55   C     C_R   0.375666 0.502680 0.368571 -0.025446
C56   C     C_R   0.625640 0.462148 0.626253 -0.026913
C57   C     C_R   0.857216 0.912957 0.180951 -0.128015
C58   C     C_R   0.143075 0.087939 0.818308 -0.128327
C59   C     C_R   0.143070 0.412071 0.318278 -0.128334
C60   C     C_R   0.857220 0.587043 0.680903 -0.128014
H5    H     H_    0.770336 0.130677 0.041619 0.145988
H6    H     H_    0.231304 0.854679 0.949553 0.145156
H7    H     H_    0.231302 0.644982 0.449651 0.145238
H8    H     H_    0.770374 0.369376 0.541494 0.146017
C61   C     C_R   0.477870 0.965496 0.918689 0.043542
C62   C     C_R   0.523218 0.059065 0.077493 0.042238
C63   C     C_R   0.523226 0.440883 0.577346 0.042248
C64   C     C_R   0.477873 0.534491 0.418543 0.043540
C65   C     C_R   0.471725 0.062022 0.053618 0.032080
C66   C     C_R   0.528907 0.942431 0.945129 0.031274
C67   C     C_R   0.528917 0.557437 0.444967 0.031278
C68   C     C_R   0.471733 0.437933 0.553474 0.032091
C69   C     C_R   0.449318 0.020504 0.973774 0.067217
C70   C     C_R   0.551524 0.993392 0.023837 0.066493
C71   C     C_R   0.551534 0.506507 0.523682 0.066488
C72   C     C_R   0.449323 0.479487 0.473635 0.067205
C73   C     C_R   0.454185 0.936371 0.838521 -0.191219
C74   C     C_R   0.547624 0.121990 0.153318 -0.190125
C75   C     C_R   0.547632 0.377987 0.653177 -0.190112
C76   C     C_R   0.454176 0.563755 0.338390 -0.191216
C77   C     C_R   0.404275 0.951008 0.814396 -0.123119
C78   C     C_R   0.597630 0.111226 0.177069 -0.121213
C79   C     C_R   0.597637 0.388756 0.676930 -0.121173
C80   C     C_R   0.404264 0.549190 0.314282 -0.123143
O25   O     O_2   0.303838 0.966767 0.768292 -0.504687
O26   O     O_2   0.698000 0.087171 0.223980 -0.505128
O27   O     O_2   0.698003 0.412840 0.723855 -0.505109
O28   O     O_2   0.303824 0.533540 0.268209 -0.504733
C81   C     C_R   0.558156 0.868405 0.895367 -0.219657
C82   C     C_R   0.441740 0.101533 0.107731 -0.222205
C83   C     C_R   0.441752 0.398402 0.607590 -0.222166
C84   C     C_R   0.558177 0.631268 0.395179 -0.219670
H9    H     H_    0.247489 0.285171 0.784724 0.157098
H10   H     H_    0.751866 0.742104 0.222026 0.155206
H11   H     H_    0.751848 0.757806 0.721921 0.155142
H12   H     H_    0.247477 0.215294 0.284455 0.157261
H13   H     H_    0.388157 0.926101 0.752296 0.171915
H14   H     H_    0.614308 0.161104 0.235939 0.174060
H15   H     H_    0.614312 0.338909 0.735806 0.174133
H16   H     H_    0.388139 0.574199 0.252193 0.171894
H17   H     H_    0.473170 0.905504 0.791920 0.121394
H18   H     H_    0.529245 0.185511 0.195437 0.123044
H19   H     H_    0.529254 0.314490 0.695302 0.123029
H20   H     H_    0.473148 0.594715 0.291783 0.121391
H21   H     H_    0.542833 0.818099 0.836394 0.117831
H22   H     H_    0.456493 0.119476 0.170438 0.117631
H23   H     H_    0.456505 0.380441 0.670296 0.117605
H24   H     H_    0.542867 0.681424 0.336178 0.117820
C85   C     C_1   0.865761 0.133538 0.072084 0.349865
N5    N     N_1   0.889157 0.216981 0.036577 -0.348569
C86   C     C_1   0.136130 0.842983 0.919056 0.351633
N6    N     N_1   0.113440 0.748058 0.951527 -0.351132
C87   C     C_1   0.136123 0.656486 0.419239 0.351509
N7    N     N_1   0.113430 0.751145 0.451813 -0.351056
C88   C     C_1   0.865799 0.366582 0.572014 0.349835
N8    N     N_1   0.889208 0.283199 0.536509 -0.348578
C89   C     C_1   0.634062 0.778338 0.862520 0.401758
N9    N     N_1   0.654535 0.720495 0.816061 -0.297546
C90   C     C_1   0.364830 0.146763 0.145781 0.408162
N10   N     N_1   0.343746 0.174353 0.195549 -0.299408
C91   C     C_1   0.364847 0.353136 0.645652 0.408079
N11   N     N_1   0.343768 0.325526 0.695424 -0.299259
C92   C     C_1   0.634099 0.720917 0.362278 0.401876
N12   N     N_1   0.654583 0.778466 0.315779 -0.297725
C93   C     C_1   0.154849 0.332988 0.720683 0.353386
N13   N     N_1   0.139695 0.435531 0.669636 -0.320255
C94   C     C_1   0.844608 0.691262 0.286699 0.350118
N14   N     N_1   0.859503 0.597239 0.340960 -0.319786
C95   C     C_1   0.844580 0.808661 0.786655 0.350113
N15   N     N_1   0.859462 0.902657 0.840932 -0.319792
C96   C     C_1   0.154828 0.167537 0.220433 0.353392
N16   N     N_1   0.139666 0.065208 0.169306 -0.320365

loop_
_geom_bond_atom_site_label_1
_geom_bond_atom_site_label_2
_ccdc_geom_bond_type
O17   V3    S    
C47   C51   A    
N1    C17   A    
C22   C26   A    
C95   N15   T    
C50   C82   A    
O13   V1    S    
O3    C7    A    
C86   N6    T    
C14   C46   A    
C44   C48   A    
C77   H13   S    
C51   C83   A    
C93   N13   T    
C42   C54   A    
O1    C5    A    
C66   C81   A    
C41   C53   A    
C32   C60   A    
C43   C72   A    
C63   C71   A    
C56   C79   A    
N3    C39   S    
C67   C84   A    
C18   C54   A    
C17   O26   S    
N2    C38   S    
C85   N5    T    
O4    C8    A    
C25   C57   A    
C26   C93   S    
C31   C87   S    
C22   H9    S    
C61   C69   A    
C27   C59   A    
C15   C47   A    
O1    V3    S    
C61   C73   A    
O19   V1    S    
C62   C65   A    
O2    V4    S    
C14   O22   S    
C52   C92   S    
C21   C37   A    
O3    V1    S    
C34   C38   A    
C19   C55   A    
C64   C76   A    
C49   C81   A    
C1    O15   A    
C91   N11   T    
C11   C12   D    
C2    O16   A    
C7    C9    S    
O2    C6    A    
C31   C35   A    
C88   N8    T    
C33   C37   A    
C63   C68   A    
O14   V2    S    
C76   C80   A    
C43   C55   A    
C78   H14   S    
C36   C40   A    
C30   C58   A    
C68   C72   A    
C16   N4    A    
O11   C7    A    
O15   V3    S    
O12   C8    A    
C10   H2    S    
C31   C59   A    
O10   V2    S    
C24   H11   S    
C13   N1    A    
C28   C95   S    
C45   C49   A    
O7    C3    A    
O5    V1    S    
C23   H12   S    
O7    V3    S    
O8    V4    S    
C20   O27   S    
C21   H10   S    
C12   H4    S    
C28   C60   A    
C81   H21   S    
C96   N16   T    
C64   C72   A    
O18   V4    S    
C83   H23   S    
N4    C40   S    
C46   C50   A    
C35   H7    S    
C24   C40   A    
C8    C10   S    
C51   C91   S    
C32   C36   A    
C80   H16   S    
C44   C56   A    
C11   H3    S    
C50   C90   S    
C54   C77   A    
O5    C1    A    
C63   C75   A    
C62   C74   A    
C42   C46   A    
C92   N12   T    
C41   C45   A    
O8    C4    A    
C13   C45   A    
C9    C10   D    
O9    C5    A    
C49   C89   S    
O11   V3    S    
C84   H24   S    
C1    C60   S    
C30   C86   S    
C74   C78   A    
C14   N2    A    
C73   C77   A    
C65   C82   A    
C3    C58   S    
O6    V2    S    
C18   O25   S    
C75   H19   S    
C75   C79   A    
C26   C58   A    
C17   C53   A    
N1    C37   S    
C4    C57   S    
C62   C70   A    
C29   C85   S    
C23   C39   A    
C22   C38   A    
C9    H1    S    
O16   V4    S    
O9    V1    S    
C61   C66   A    
C65   C69   A    
C19   O28   S    
C3    O13   A    
C25   C94   S    
C67   C71   A    
C48   C52   A    
C16   C48   A    
C36   H8    S    
C21   C25   A    
C5    C11   S    
O12   V4    S    
C6    C12   S    
C23   C27   A    
C24   C28   A    
C73   H17   S    
O10   C6    A    
O20   V2    S    
N2    C18   A    
C32   C88   S    
C87   N7    T    
C35   C39   A    
C15   N3    A    
C30   C34   A    
N4    C20   A    
C2    C59   S    
C29   C33   A    
C44   C71   A    
C27   C96   S    
C29   C57   A    
C82   H22   S    
C42   C69   A    
N3    C19   A    
C74   H18   S    
C68   C83   A    
C41   C70   A    
C79   H15   S    
C94   N14   T    
O6    C2    A    
C43   C47   A    
C16   O24   S    
C20   C56   A    
C53   C78   A    
C66   C70   A    
C4    O14   A    
C90   N10   T    
C13   O21   S    
C55   C80   A    
C89   N9    T    
C52   C84   A    
C15   O23   S    
C64   C67   A    
O4    V2    S    
C34   H6    S    
C76   H20   S    
C33   H5    S    
