data_mof_unit_28581.cif
_audit_creation_date              2012-12-10T17:29:22-0500
_audit_creation_method            fapswitch 2.2
_symmetry_space_group_name_H-M    P1
_symmetry_Int_Tables_number       1
_space_group_crystal_system       triclinic
_cell_length_a                    12.010123
_cell_length_b                    12.890408
_cell_length_c                    13.129339
_cell_angle_alpha                 87.217226
_cell_angle_beta                  112.202505
_cell_angle_gamma                 93.352068
_cell_volume                      1877.92343898

loop_
_atom_site_label
_atom_site_type_symbol
_atom_type_description
_atom_site_fract_x
_atom_site_fract_y
_atom_site_fract_z
_atom_type_partial_charge
C1    C     C_R   0.477682 0.299642 0.499350 0.867020
C2    C     C_R   0.597315 0.450791 0.822876 -0.199179
C3    C     C_R   0.540688 0.812221 0.510792 -0.118234
C4    C     C_R   0.562945 0.483451 0.706860 0.890118
C5    C     C_R   0.464175 0.188563 0.499790 -0.047949
C6    C     C_R   0.340318 0.031390 0.452328 -0.203493
C7    C     C_R   0.349907 0.138597 0.459322 -0.196519
C8    C     C_R   0.568391 0.132261 0.536934 -0.258315
C9    C     C_R   0.559713 0.025930 0.529299 0.169413
C10   C     C_R   0.445018 0.975192 0.485956 0.173742
C11   C     C_R   0.436619 0.869075 0.476600 -0.292088
C12   C     C_R   0.543725 0.438179 0.982376 0.019231
C13   C     C_R   0.656003 0.862949 0.554817 -0.010743
C14   C     C_R   0.664299 0.970157 0.563319 -0.252285
C15   C     C_R   0.021929 0.617323 0.424373 -0.436418
C16   C     C_R   0.523611 0.700588 0.503565 0.897666
C17   C     C_R   0.138186 0.603160 0.424242 0.647306
C18   C     C_R   0.149402 0.444234 0.526522 -0.161800
C19   C     C_R   0.031266 0.453473 0.524729 0.036065
C20   C     C_R   0.968208 0.542657 0.474346 0.024117
C21   C     C_R   0.851286 0.554457 0.473170 0.032797
C22   C     C_R   0.857626 0.393194 0.568645 -0.039151
C23   C     C_R   0.508968 0.430578 0.868597 0.075619
C24   C     C_R   0.973875 0.377229 0.571604 -0.077673
C25   C     C_R   0.434932 0.505432 0.291665 0.914753
C26   C     C_R   0.242505 0.436583 0.002121 -0.186085
C27   C     C_R   0.394836 0.494600 0.173261 -0.180124
C28   C     C_R   0.718979 0.439495 0.890277 -0.274935
C29   C     C_R   0.752157 0.419382 0.003072 0.506361
C30   C     C_R   0.665439 0.424313 0.049992 -0.223448
C31   C     C_1   0.766811 0.808223 0.595489 0.189591
C32   C     C_1   0.029899 0.281365 0.620394 0.094795
C33   C     C_3   0.112424 0.711586 0.270288 0.039974
C34   C     C_R   0.453932 0.452955 0.024138 -0.016804
C35   C     C_3   0.182764 0.745892 0.198536 -0.815008
C36   C     C_3   0.587140 0.651618 0.131561 0.111555
C37   C     C_3   0.707790 0.709482 0.186544 -0.851219
C38   C     C_3   0.936588 0.450379 0.139826 0.057383
C39   C     C_3   0.034357 0.390965 0.228947 -0.793102
C40   C     C_R   0.331640 0.428835 0.958787 0.113286
C41   C     C_R   0.300821 0.397789 0.851108 -0.214212
C42   C     C_R   0.388434 0.400025 0.805792 -0.151330
C43   C     C_R   0.481677 0.498424 0.125915 0.400539
C44   C     C_R   0.274664 0.466627 0.110191 -0.290584
H1    H     H_    0.206262 0.466726 0.144808 0.189038
H2    H     H_    0.199592 0.376533 0.564163 0.151837
H3    H     H_    0.148919 0.416855 0.953621 0.160531
H4    H     H_    0.787589 0.442399 0.855224 0.178055
H5    H     H_    0.691681 0.408824 0.137533 0.194505
H6    H     H_    0.362353 0.372772 0.723382 0.163453
H7    H     H_    0.348115 0.830881 0.442936 0.211513
H8    H     H_    0.067143 0.780035 0.282501 0.152424
H9    H     H_    0.043403 0.651242 0.225418 0.117361
H10   H     H_    0.229857 0.679167 0.185547 0.256537
H11   H     H_    0.120258 0.775339 0.117358 0.212275
H12   H     H_    0.251866 0.992761 0.419380 0.146208
H13   H     H_    0.250222 0.808821 0.238472 0.248318
H14   H     H_    0.516340 0.695551 0.144142 0.135608
H15   H     H_    0.568544 0.649751 0.041836 0.144320
H16   H     H_    0.781627 0.663841 0.182596 0.240928
H17   H     H_    0.707906 0.785964 0.143859 0.214805
H18   H     H_    0.723422 0.723092 0.273707 0.245855
H19   H     H_    0.887291 0.493040 0.180491 0.136256
H20   H     H_    0.979352 0.507564 0.098095 0.143245
H21   H     H_    0.995511 0.345522 0.282617 0.249733
H22   H     H_    0.075651 0.336836 0.191442 0.262497
H23   H     H_    0.752120 0.010085 0.597024 0.149621
H24   H     H_    0.105629 0.446042 0.279466 0.216085
H25   H     H_    0.268840 0.182331 0.430631 0.164363
H26   H     H_    0.656722 0.171286 0.570187 0.152956
H27   H     H_    0.801893 0.622297 0.434154 0.137796
H28   H     H_    0.813520 0.334828 0.604236 0.136261
H29   H     H_    0.973451 0.685920 0.385720 0.146862
H30   H     H_    0.208698 0.375557 0.801022 0.158198
N1    N     N_R   0.798200 0.480260 0.519790 -0.109125
N2    N     N_R   0.201820 0.519740 0.480210 -0.132567
N3    N     N_1   0.855731 0.764702 0.628244 -0.207893
N4    N     N_1   0.074717 0.204462 0.659389 -0.205607
O1    O     O_R   0.579910 0.341070 0.505280 -0.633134
O2    O     O_3   0.592080 0.549998 0.178164 -0.614675
O3    O     O_3   0.862830 0.378872 0.062313 -0.603166
O4    O     O_R   0.388440 0.353740 0.492580 -0.641972
O5    O     O_R   0.643280 0.490550 0.663120 -0.617100
O6    O     O_R   0.451810 0.503220 0.650420 -0.618607
O7    O     O_R   0.611560 0.646260 0.507420 -0.625403
O8    O     O_R   0.420090 0.658930 0.494720 -0.556153
O9    O     O_R   0.548190 0.496780 0.349580 -0.556940
O10   O     O_R   0.356720 0.509450 0.336880 -0.610478
O11   O     O_3   0.193205 0.674074 0.373095 -0.596529
Zn1   Zn    Zn3+2 0.627850 0.491540 0.508480 0.970353
Zn2   Zn    Zn3+2 0.372150 0.508460 0.491520 0.970920

loop_
_geom_bond_atom_site_label_1
_geom_bond_atom_site_label_2
_ccdc_geom_bond_type
C39   H24   S    
C19   C20   A    
C36   H15   S    
C37   H18   S    
C26   C44   A    
C33   H8    S    
C12   C23   A    
C23   C42   A    
C21   H27   S    
C1    C5    S    
C28   C29   A    
C36   H14   S    
O8    Zn2   S    
C38   C39   S    
C25   O9    A    
C18   C19   A    
C41   C42   A    
O1    Zn1   S    
N1    Zn1   S    
C41   H30   S    
C27   C44   A    
C28   H4    S    
C8    C9    A    
C17   N2    A    
C14   H23   S    
O6    Zn2   S    
C9    C10   A    
C3    C13   A    
C13   C14   A    
C35   H10   S    
C16   O8    A    
C39   H21   S    
C22   N1    A    
C18   H2    S    
C22   H28   S    
C31   N3    T    
C38   H20   S    
C33   H9    S    
C15   C20   A    
C35   H11   S    
C17   O11   S    
C36   O2    S    
C5    C7    A    
C1    O4    A    
C25   O10   A    
O4    Zn2   S    
C2    C4    S    
C9    C14   A    
C24   C32   S    
C29   O3    S    
C29   C30   A    
C33   O11   S    
C4    O6    A    
O10   Zn2   S    
C26   H3    S    
C42   H6    S    
C40   C41   A    
C15   H29   S    
C30   H5    S    
C10   C11   A    
C38   O3    S    
C16   O7    A    
C1    O1    A    
C39   H22   S    
C22   C24   A    
C12   C34   A    
C44   H1    S    
C38   H19   S    
C15   C17   A    
O5    Zn1   S    
C36   C37   S    
C18   N2    A    
C12   C30   A    
C13   C31   S    
C34   C43   A    
C6    H12   S    
C7    H25   S    
C5    C8    A    
C37   H17   S    
O7    Zn1   S    
C6    C7    A    
C25   C27   S    
C21   N1    A    
C8    H26   S    
C35   H13   S    
C19   C24   A    
C43   O2    S    
C26   C40   A    
C4    O5    A    
C33   C35   S    
C11   H7    S    
C37   H16   S    
C3    C11   A    
C6    C10   A    
N2    Zn2   S    
C32   N4    T    
C27   C43   A    
C20   C21   A    
O9    Zn1   S    
C2    C23   A    
C34   C40   A    
C2    C28   A    
C3    C16   S    
