data_mof_unit_48939.cif
_audit_creation_date              2012-12-10T16:53:08-0500
_audit_creation_method            fapswitch 2.2
_symmetry_space_group_name_H-M    P1
_symmetry_Int_Tables_number       1
_space_group_crystal_system       triclinic
_cell_length_a                    10.861294
_cell_length_b                    10.939689
_cell_length_c                    9.711425
_cell_angle_alpha                 90.668463
_cell_angle_beta                  91.489943
_cell_angle_gamma                 91.130523
_cell_volume                      1153.20323589

loop_
_atom_site_label
_atom_site_type_symbol
_atom_type_description
_atom_site_fract_x
_atom_site_fract_y
_atom_site_fract_z
_atom_type_partial_charge
C1    C     C_R   0.501719 0.265511 0.499664 0.882515
C2    C     C_R   0.070373 0.594676 0.597944 0.085894
C3    C     C_R   0.128750 0.529821 0.490640 -0.178906
C4    C     C_R   0.055989 0.483167 0.377435 -0.022767
C5    C     C_R   0.929982 0.472213 0.390976 -0.257048
C6    C     C_R   0.871403 0.520733 0.504235 -0.122777
C7    C     C_2   0.508580 0.931751 0.388622 -0.159627
C8    C     C_2   0.494887 0.866438 0.503474 -0.314463
C9    C     C_2   0.504774 0.065576 0.387121 -0.140755
C10   C     C_2   0.507415 0.133758 0.502421 -0.323234
C11   C     C_2   0.501202 0.402646 0.921877 -0.163013
C12   C     C_R   0.262549 0.509513 0.497573 0.803910
C13   C     C_2   0.471197 0.405308 0.071716 0.072439
C14   C     C_R   0.499236 0.734545 0.500649 0.821615
C15   C     C_R   0.737434 0.507779 0.501974 0.792696
C16   C     C_R   0.138113 0.672257 0.691388 -0.183258
C17   C     C_R   0.079243 0.739435 0.792042 -0.149387
C18   C     C_R   0.952003 0.733215 0.800504 -0.133212
C19   C     C_R   0.882494 0.661372 0.706902 -0.172513
C20   C     C_R   0.939899 0.590286 0.604901 0.103548
Cu1   Cu    Cu3+1 0.500020 0.500020 0.638630 0.923535
Cu2   Cu    Cu3+1 0.499980 0.499980 0.361370 0.971067
H1    H     H_    0.516202 0.094476 0.603745 0.137931
H2    H     H_    0.512022 0.314411 0.872264 0.157155
H3    H     H_    0.476131 0.579399 0.894702 0.189292
H4    H     H_    0.548687 0.568746 0.110192 0.181015
H5    H     H_    0.236232 0.687373 0.684050 0.151549
H6    H     H_    0.132561 0.798643 0.862092 0.124147
H7    H     H_    0.906542 0.787353 0.877363 0.128560
H8    H     H_    0.783923 0.667538 0.713134 0.159436
H9    H     H_    0.875573 0.429791 0.307520 0.164057
H10   H     H_    0.521668 0.886027 0.290326 0.159941
H11   H     H_    0.478286 0.907819 0.602717 0.140346
H12   H     H_    0.501499 0.108504 0.287066 0.159803
N1    N     N_2   0.498640 0.498660 0.846910 -0.284214
N2    N     N_2   0.498610 0.498630 0.153040 -0.292738
O1    O     O_R   0.500020 0.321960 0.617040 -0.589646
O2    O     O_R   0.499980 0.321920 0.382900 -0.539660
O3    O     O_R   0.319670 0.500020 0.617100 -0.589531
O4    O     O_R   0.319630 0.499980 0.382950 -0.527238
O5    O     O_R   0.500020 0.678080 0.617100 -0.604933
O6    O     O_R   0.499980 0.678040 0.382960 -0.586613
O7    O     O_R   0.680370 0.500020 0.617050 -0.578880
O8    O     O_R   0.680330 0.499980 0.382900 -0.586295
C21   C     C_R   0.101682 0.459698 0.236500 0.186103
C22   C     C_R   0.067955 0.351007 0.164544 -0.095821
C23   C     C_R   0.095988 0.336469 0.025553 -0.132863
C24   C     C_R   0.158164 0.429762 0.957116 -0.097627
C25   C     C_R   0.191280 0.538195 0.027137 -0.121580
C26   C     C_R   0.160784 0.554379 0.164975 -0.078520
H13   H     H_    0.019224 0.277983 0.215859 0.114084
H14   H     H_    0.069984 0.252618 0.971133 0.123090
H15   H     H_    0.180877 0.417955 0.850004 0.153770
H16   H     H_    0.240031 0.610167 0.974438 0.117794
H17   H     H_    0.182689 0.641007 0.215926 0.112574
C27   C     C_2   0.404980 0.295006 0.118720 0.448655
H18   H     H_    0.419334 0.207760 0.067863 -0.024820
O9    O     O_2   0.327472 0.300769 0.206713 -0.514583

loop_
_geom_bond_atom_site_label_1
_geom_bond_atom_site_label_2
_ccdc_geom_bond_type
C13   N2    D    
C12   O4    A    
C23   H14   S    
Cu1   N1    S    
C10   H1    S    
C2    C16   A    
C9    C10   D    
C19   C20   A    
Cu1   O3    S    
C1    O1    A    
C14   O6    A    
C13   C27   S    
Cu2   O4    S    
C17   H6    S    
C12   O3    A    
C11   N1    D    
C17   C18   A    
C15   O7    A    
C7    C8    D    
C18   H7    S    
Cu2   O6    S    
Cu1   Cu2   S    
C11   C13   S    
C24   H15   S    
C1    O2    A    
H3    N1    S    
C14   O5    A    
Cu1   O5    S    
C21   C26   A    
H4    N2    S    
C24   C25   A    
C27   O9    D    
C15   O8    A    
C2    C3    A    
C4    C21   S    
C5    C6    A    
C7    H10   S    
Cu2   O8    S    
C16   C17   A    
C1    C10   S    
C2    C20   A    
C25   H16   S    
Cu2   O2    S    
C23   C24   A    
C21   C22   A    
C11   H2    S    
C4    C5    A    
C6    C20   A    
C27   H18   S    
Cu1   O1    S    
C25   C26   A    
C16   H5    S    
C7    C9    S    
C22   C23   A    
C18   C19   A    
C8    C14   S    
C3    C12   S    
C6    C15   S    
Cu1   O7    S    
C19   H8    S    
C22   H13   S    
Cu2   N2    S    
C3    C4    A    
C26   H17   S    
C9    H12   S    
C8    H11   S    
C5    H9    S    
