data_mof_unit_46123.cif
_audit_creation_date              2012-12-10T19:00:12-0500
_audit_creation_method            fapswitch 2.2
_symmetry_space_group_name_H-M    P1
_symmetry_Int_Tables_number       1
_space_group_crystal_system       triclinic
_cell_length_a                    9.60056
_cell_length_b                    10.863614
_cell_length_c                    13.426514
_cell_angle_alpha                 90.790662
_cell_angle_beta                  73.104996
_cell_angle_gamma                 90.081489
_cell_volume                      1339.769404

loop_
_atom_site_label
_atom_site_type_symbol
_atom_type_description
_atom_site_fract_x
_atom_site_fract_y
_atom_site_fract_z
_atom_type_partial_charge
C1    C     C_R   0.499236 0.737346 0.502658 0.782875
C2    C     C_R   0.455984 0.536624 0.971976 0.041442
C3    C     C_R   0.473639 0.476805 0.873736 -0.043822
C4    C     C_R   0.562341 0.517354 0.025482 0.087891
C5    C     C_R   0.689038 0.447522 0.976337 0.069476
C6    C     C_R   0.701899 0.387583 0.882293 -0.308036
C7    C     C_R   0.587756 0.389119 0.838279 0.410035
C8    C     C_R   0.541438 0.554942 0.129754 -0.111299
C9    C     C_R   0.761995 0.450879 0.133546 -0.172373
C10   C     C_R   0.377301 0.507925 0.814930 -0.064916
C11   C     C_R   0.368162 0.935709 0.523902 0.171183
C12   C     C_R   0.422272 0.498886 0.700138 0.868190
C13   C     C_R   0.496599 0.870301 0.513150 -0.107438
C14   C     C_R   0.622826 0.935404 0.514074 -0.222902
C15   C     C_R   0.623609 0.063611 0.511365 -0.120885
C16   C     C_R   0.497962 0.128545 0.508950 -0.065586
C17   C     C_R   0.369105 0.062813 0.521505 0.151790
C18   C     C_3   0.267555 0.064410 0.456219 -0.546095
C19   C     C_3   0.264329 0.925592 0.460434 -0.418855
C20   C     C_R   0.935391 0.396481 0.473576 0.210758
C21   C     C_R   0.907337 0.593996 0.544176 -0.160184
C22   C     C_R   0.054947 0.591545 0.549868 0.589880
C23   C     C_R   0.500121 0.262167 0.500054 0.865806
C24   C     C_R   0.083783 0.398697 0.466895 0.048510
C25   C     C_3   0.114400 0.327782 0.364223 0.240520
C26   C     C_3   0.951823 0.319952 0.379633 -0.481359
C27   C     C_R   0.578824 0.506221 0.300390 0.798138
C28   C     C_R   0.793155 0.423670 0.028171 -0.149035
C29   C     C_R   0.630143 0.507955 0.186272 -0.041877
C30   C     C_R   0.249205 0.573437 0.862976 -0.203869
C31   C     C_R   0.225195 0.622326 0.962449 -0.110012
C32   C     C_R   0.329954 0.609492 0.014514 -0.039093
Cu1   Cu    Cu3+1 0.359330 0.500020 0.500010 1.047014
Cu2   Cu    Cu3+1 0.640670 0.499980 0.499990 0.993408
H1    H     H_    0.835787 0.418744 0.174924 0.185504
H2    H     H_    0.724493 0.110567 0.506195 0.180708
H3    H     H_    0.161307 0.107280 0.498335 0.202474
H4    H     H_    0.322016 0.098208 0.376615 0.201574
H5    H     H_    0.156406 0.889818 0.505489 0.237918
H6    H     H_    0.312783 0.880149 0.383369 0.198797
H7    H     H_    0.837263 0.671469 0.575464 0.143912
H8    H     H_    0.161473 0.236190 0.365392 0.065718
H9    H     H_    0.909918 0.367086 0.321588 0.240530
H10   H     H_    0.792056 0.324480 0.851108 0.166036
H11   H     H_    0.908545 0.225751 0.398638 0.143663
H12   H     H_    0.891494 0.372339 0.990264 0.164393
H13   H     H_    0.449415 0.609009 0.172264 0.167900
H14   H     H_    0.172079 0.594746 0.820806 0.159639
H15   H     H_    0.309028 0.658372 0.087638 0.147287
H16   H     H_    0.128365 0.676724 0.997117 0.145439
H17   H     H_    0.723109 0.887811 0.510945 0.164255
N1    N     N_R   0.852320 0.499070 0.499340 -0.179900
N2    N     N_R   0.148230 0.499110 0.499340 -0.197563
O1    O     O_R   0.381190 0.680360 0.500000 -0.529584
O2    O     O_R   0.618780 0.680320 0.499990 -0.604537
O3    O     O_R   0.323230 0.500000 0.650990 -0.564897
O4    O     O_R   0.560820 0.499960 0.650980 -0.560078
O5    O     O_R   0.381220 0.319680 0.500010 -0.591485
O6    O     O_R   0.618810 0.319640 0.500000 -0.535359
O7    O     O_R   0.439180 0.500040 0.349020 -0.498223
O8    O     O_R   0.676770 0.500000 0.349010 -0.607422
O9    O     O_3   0.109472 0.684019 0.600229 -0.564007
C33   C     C_3   0.008526 0.720768 0.695197 -0.401712
H18   H     H_    0.068812 0.768108 0.743591 0.204339
H19   H     H_    0.950892 0.641037 0.740389 0.158504
H20   H     H_    0.929959 0.788635 0.681435 0.171650
S1    S     S_3+6 0.202480 0.407082 0.247546 -0.005919
O10   O     O_2   0.124212 0.387455 0.166533 -0.316295
O11   O     O_2   0.206972 0.542549 0.270141 -0.303770
O12   O     O_3   0.370356 0.347120 0.201544 -0.532297
H21   H     H_    0.355515 0.261737 0.179952 0.347448
S2    S     S_3+6 0.575792 0.255204 0.764716 0.002085
O13   O     O_2   0.585299 0.144169 0.828112 -0.293001
O14   O     O_2   0.435834 0.247736 0.736307 -0.305652
O15   O     O_3   0.719245 0.253463 0.657454 -0.546272
H22   H     H_    0.801591 0.221091 0.679833 0.328920

loop_
_geom_bond_atom_site_label_1
_geom_bond_atom_site_label_2
_ccdc_geom_bond_type
C23   O5    A    
C33   H19   S    
Cu1   O5    S    
C27   C29   S    
C25   S1    S    
C4    C8    A    
C23   O6    A    
C11   C19   S    
C8    C29   A    
C19   H5    S    
C30   H14   S    
C18   H3    S    
C3    C7    A    
C27   O7    A    
C30   C31   A    
C15   C16   A    
C2    C32   A    
C18   C19   S    
C27   O8    A    
C26   H11   S    
C31   C32   A    
C16   C17   A    
Cu2   O4    S    
O12   H21   S    
C9    C29   A    
Cu1   O3    S    
C33   H20   S    
Cu2   O2    S    
C6    H10   S    
C13   C14   A    
S2    O15   S    
C26   H9    S    
Cu1   Cu2   S    
C22   N2    A    
Cu1   N2    S    
S1    O10   D    
C20   C24   A    
C24   C25   S    
C24   N2    A    
S2    O14   D    
C7    S2    S    
C4    C5    A    
C25   C26   S    
Cu2   O8    S    
S1    O11   D    
C2    C4    A    
O15   H22   S    
O9    C33   S    
C22   O9    S    
C5    C28   A    
C10   C30   A    
C14   H17   S    
C28   H12   S    
C17   C18   S    
C12   O3    A    
C10   C12   S    
C1    O1    A    
C21   H7    S    
C12   O4    A    
C16   C23   S    
Cu2   O6    S    
C1    C13   S    
C31   H16   S    
C15   H2    S    
Cu1   O1    S    
C11   C17   A    
S2    O13   D    
C25   H8    S    
C6    C7    A    
Cu1   O7    S    
Cu2   N1    S    
S1    O12   S    
C2    C3    A    
C1    O2    A    
C8    H13   S    
C20   N1    A    
C3    C10   A    
C11   C13   A    
C5    C6    A    
C20   C26   S    
C18   H4    S    
C32   H15   S    
C19   H6    S    
C33   H18   S    
C9    H1    S    
C14   C15   A    
C21   C22   A    
C21   N1    A    
C9    C28   A    
