data_mof_unit_13977.cif
_audit_creation_date              2012-12-11T15:21:36-0500
_audit_creation_method            fapswitch 2.2
_symmetry_space_group_name_H-M    P1
_symmetry_Int_Tables_number       1
_space_group_crystal_system       triclinic
_cell_length_a                    19.157805
_cell_length_b                    7.140839
_cell_length_c                    17.721726
_cell_angle_alpha                 89.99998
_cell_angle_beta                  109.144882
_cell_angle_gamma                 89.999974
_cell_volume                      2290.29477778

loop_
_atom_site_label
_atom_site_type_symbol
_atom_type_description
_atom_site_fract_x
_atom_site_fract_y
_atom_site_fract_z
_atom_type_partial_charge
O1    O     O_R   0.562310 0.505770 0.439670 -0.532718
O2    O     O_R   0.437690 0.005770 0.560330 -0.532718
O3    O     O_R   0.411650 0.169150 0.405330 -0.537470
O4    O     O_R   0.588350 0.669150 0.594670 -0.537471
C1    C     C_R   0.384833 0.345438 0.382770 0.640020
C2    C     C_R   0.615167 0.845437 0.617230 0.640021
O5    O     O_R   0.560140 0.175610 0.430010 -0.532130
O6    O     O_R   0.439860 0.675610 0.569990 -0.532129
O7    O     O_R   0.587240 0.012100 0.585200 -0.543048
O8    O     O_R   0.412760 0.512100 0.414800 -0.543048
C3    C     C_R   0.579336 0.344534 0.412850 0.719174
C4    C     C_R   0.420664 0.844534 0.587150 0.719173
O9    O     O_3   0.508720 0.341420 0.550890 -0.367024
O10   O     O_3   0.491280 0.841420 0.449110 -0.367024
V1    V     V_3+5 0.498380 0.063930 0.490560 1.440639
V2    V     V_3+5 0.501620 0.563930 0.509440 1.440640
C5    C     C_R   0.176874 0.756661 0.873248 -0.217477
C6    C     C_R   0.823125 0.256662 0.126752 -0.217477
C7    C     C_R   0.131831 0.915478 0.867173 -0.084201
C8    C     C_R   0.868169 0.415477 0.132827 -0.084201
C9    C     C_R   0.136221 0.062499 0.815959 -0.225686
C10   C     C_R   0.863780 0.562498 0.184042 -0.225687
C11   C     C_R   0.183954 0.049910 0.770405 0.091635
C12   C     C_R   0.816047 0.549909 0.229596 0.091636
C13   C     C_R   0.229077 0.889998 0.777167 0.066370
C14   C     C_R   0.770924 0.389998 0.222833 0.066369
C15   C     C_R   0.225787 0.744098 0.829422 0.093033
C16   C     C_R   0.774213 0.244098 0.170578 0.093033
C17   C     C_R   0.187410 0.194476 0.718192 -0.198680
C18   C     C_R   0.812591 0.694474 0.281809 -0.198679
C19   C     C_R   0.234654 0.180437 0.672753 -0.162709
C20   C     C_R   0.765347 0.680435 0.327249 -0.162709
C21   C     C_R   0.279897 0.022349 0.679173 0.100332
C22   C     C_R   0.720104 0.522348 0.320828 0.100332
C23   C     C_R   0.277743 0.876464 0.731960 0.034294
C24   C     C_R   0.722258 0.376464 0.268040 0.034293
C25   C     C_R   0.324607 0.718676 0.740494 0.018696
C26   C     C_R   0.675393 0.218676 0.259506 0.018697
C27   C     C_R   0.321303 0.576682 0.794818 -0.157773
C28   C     C_R   0.678697 0.076683 0.205181 -0.157771
C29   C     C_R   0.271995 0.588415 0.837709 -0.197375
C30   C     C_R   0.728004 0.088417 0.162290 -0.197374
C31   C     C_R   0.326847 0.008513 0.633266 -0.167210
C32   C     C_R   0.673153 0.508513 0.366735 -0.167208
C33   C     C_R   0.373964 0.853661 0.640229 -0.151873
C34   C     C_R   0.626036 0.353661 0.359772 -0.151872
C35   C     C_R   0.374397 0.709373 0.696013 -0.061675
C36   C     C_R   0.625603 0.209373 0.303987 -0.061676
H1    H     H_    0.174886 0.643499 0.913300 0.126319
H2    H     H_    0.825113 0.143501 0.086699 0.126319
H3    H     H_    0.101817 0.185583 0.810699 0.128955
H4    H     H_    0.898184 0.685581 0.189303 0.128955
H5    H     H_    0.153455 0.318516 0.712369 0.132361
H6    H     H_    0.846547 0.818514 0.287633 0.132361
H7    H     H_    0.236115 0.294157 0.632796 0.133205
H8    H     H_    0.763886 0.794156 0.367206 0.133204
H9    H     H_    0.326142 0.119111 0.591094 0.145677
H10   H     H_    0.673859 0.619111 0.408907 0.145675
H11   H     H_    0.356384 0.454438 0.804852 0.165209
H12   H     H_    0.643616 0.954440 0.195147 0.165210
H13   H     H_    0.270451 0.475522 0.878023 0.131500
H14   H     H_    0.729548 0.975523 0.121977 0.131499
C37   C     C_3   0.790028 0.698918 0.795194 -0.290266
C38   C     C_3   0.209971 0.198917 0.204807 -0.290266
H15   H     H_    0.835135 0.620630 0.782375 0.140449
H16   H     H_    0.164864 0.120632 0.217626 0.140448
H17   H     H_    0.782727 0.635206 0.849464 0.137870
H18   H     H_    0.217272 0.135203 0.150537 0.137871
C39   C     C_3   0.717764 0.672731 0.724187 -0.330273
C40   C     C_3   0.282236 0.172730 0.275813 -0.330273
H19   H     H_    0.676403 0.598077 0.744964 0.149002
H20   H     H_    0.323596 0.098075 0.255037 0.149001
H21   H     H_    0.728868 0.583580 0.677858 0.132657
H22   H     H_    0.271132 0.083581 0.322143 0.132657
H23   H     H_    0.866425 0.920640 0.720090 0.124169
H24   H     H_    0.133575 0.420644 0.279910 0.124168
H25   H     H_    0.759146 0.880473 0.614323 0.119498
H26   H     H_    0.240854 0.380477 0.385677 0.119498
C41   C     C_3   0.819998 0.991426 0.733302 -0.327576
C42   C     C_3   0.180002 0.491429 0.266697 -0.327575
C43   C     C_3   0.746581 0.011693 0.827087 -0.336756
C44   C     C_3   0.253419 0.511690 0.172912 -0.336756
C45   C     C_3   0.811979 0.910529 0.811145 0.114159
C46   C     C_3   0.188021 0.410529 0.188855 0.114159
H27   H     H_    0.758837 0.163883 0.836614 0.139436
H28   H     H_    0.241164 0.663881 0.163385 0.139436
H29   H     H_    0.739312 0.955906 0.882664 0.128876
H30   H     H_    0.260688 0.455902 0.117336 0.128877
C47   C     C_3   0.686675 0.864586 0.688071 0.117181
C48   C     C_3   0.313325 0.364586 0.311930 0.117181
C49   C     C_3   0.747360 0.964202 0.661717 -0.315668
C50   C     C_3   0.252640 0.464205 0.338283 -0.315668
C51   C     C_3   0.673681 0.984343 0.755803 -0.301831
C52   C     C_3   0.326319 0.484340 0.244197 -0.301831
H31   H     H_    0.631673 0.915199 0.777326 0.154855
H32   H     H_    0.368327 0.415196 0.222673 0.154855
H33   H     H_    0.651341 0.124281 0.732300 0.144972
H34   H     H_    0.348659 0.624279 0.267699 0.144973
H35   H     H_    0.833661 0.143191 0.741164 0.138177
H36   H     H_    0.166339 0.643193 0.258835 0.138177
H37   H     H_    0.727234 0.103627 0.635503 0.139855
H38   H     H_    0.272766 0.603630 0.364496 0.139855
O11   O     O_R   0.087220 0.271820 0.085230 -0.541052
O12   O     O_R   0.912780 0.771820 0.914770 -0.541052
O13   O     O_R   0.939860 0.595540 0.069990 -0.540733
O14   O     O_R   0.060140 0.095540 0.930010 -0.540733
C53   C     C_R   0.918734 0.426565 0.084818 0.701604
C54   C     C_R   0.081266 0.926565 0.915182 0.701605
O15   O     O_R   0.088340 0.601930 0.094680 -0.539233
O16   O     O_R   0.911660 0.101930 0.905320 -0.539233
O17   O     O_R   0.062310 0.765410 0.939660 -0.537216
O18   O     O_R   0.937690 0.265410 0.060340 -0.537216
C55   C     C_R   0.116154 0.431461 0.117939 0.643162
C56   C     C_R   0.883846 0.931461 0.882061 0.643162
O19   O     O_3   0.991270 0.429630 0.949130 -0.372347
O20   O     O_3   0.008730 0.929630 0.050870 -0.372348
V3    V     V_3+5 0.001620 0.707150 0.009440 1.377720
V4    V     V_3+5 0.998380 0.207150 0.990560 1.377720
C57   C     C_2   0.429842 0.556543 0.711194 0.762248
O21   O     O_2   0.409809 0.393702 0.698379 -0.574004
O22   O     O_R   0.505117 0.600617 0.738051 -0.671231
H39   H     H_    0.537639 0.485595 0.744865 0.281923
C58   C     C_2   0.570158 0.056544 0.288807 0.762250
O23   O     O_2   0.590191 0.893702 0.301620 -0.574004
O24   O     O_R   0.494882 0.100619 0.261947 -0.671232
H40   H     H_    0.462360 0.985599 0.255133 0.281923

loop_
_geom_bond_atom_site_label_1
_geom_bond_atom_site_label_2
_ccdc_geom_bond_type
O18   V4    S    
C37   H15   S    
O4    V2    S    
C46   C55   S    
C44   C52   S    
C51   H33   S    
C53   O18   A    
O1    C3    A    
C29   H13   S    
C42   C46   S    
O2    C4    A    
O16   V4    S    
C36   C58   S    
O15   V3    S    
C58   O23   D    
C27   C29   A    
O5    C3    A    
C18   H6    S    
C17   H5    S    
C28   H12   S    
C11   C17   A    
C41   H35   S    
C23   C25   A    
C12   C14   A    
C49   H37   S    
C58   O24   S    
C52   H34   S    
O20   V3    S    
C6    C8    A    
C16   C30   A    
C39   H19   S    
C38   C46   S    
C5    C7    A    
C37   C39   S    
C32   H10   S    
C41   C45   S    
C40   H22   S    
C19   C21   A    
C39   H21   S    
C38   C40   S    
C25   C35   A    
C30   H14   S    
C41   C49   S    
C1    C48   S    
C50   H38   S    
C8    C53   S    
C7    C54   S    
O13   C53   A    
C33   C35   A    
O6    V2    S    
C42   H36   S    
C28   C30   A    
C45   C56   S    
O13   V3    S    
C40   C48   S    
C2    O7    A    
C39   C47   S    
C43   C45   S    
C32   C34   A    
C43   H27   S    
C48   C52   S    
C34   C36   A    
C57   O22   S    
C37   H17   S    
C5    C15   A    
C6    C16   A    
O4    C2    A    
C5    H1    S    
O5    V1    S    
H26   C50   S    
C20   C22   A    
C44   H28   S    
C37   C45   S    
C21   C31   A    
C42   C50   S    
C18   C20   A    
C43   C51   S    
C15   C29   A    
C48   C50   S    
O6    C4    A    
O19   V4    S    
C27   H11   S    
C22   C32   A    
O1    V2    S    
C52   H32   S    
O2    V1    S    
C31   C33   A    
O22   H39   S    
C43   H29   S    
C13   C23   A    
O12   C56   A    
C14   C24   A    
C8    C10   A    
C44   C46   S    
C9    C11   A    
O24   H40   S    
C10   C12   A    
O11   V4    S    
C47   C49   S    
C38   H18   S    
C9    H3    S    
O3    V1    S    
C6    H2    S    
C10   H4    S    
O12   V3    S    
O16   C56   A    
H25   C49   S    
O11   C55   A    
C26   C36   A    
H24   C42   S    
C4    C33   S    
O3    C1    A    
C57   O21   D    
O15   C55   A    
C13   C15   A    
C2    C47   S    
C14   C16   A    
C54   O17   A    
O17   V3    S    
C24   C26   A    
O7    V1    S    
C1    O8    A    
C25   C27   A    
O8    V2    S    
C26   C28   A    
C51   H31   S    
O14   C54   A    
C44   H30   S    
C35   C57   S    
C21   C23   A    
C22   C24   A    
C11   C13   A    
C47   C51   S    
C12   C18   A    
C31   H9    S    
C17   C19   A    
O9    V2    S    
O10   V1    S    
C3    C34   S    
C40   H20   S    
C19   H7    S    
H23   C41   S    
C20   H8    S    
O14   V4    S    
C38   H16   S    
C7    C9    A    
