data_mof_unit_32884.cif
_audit_creation_date              2012-10-26T20:55:45-0400
_audit_creation_method            fapswitch 2.2
_symmetry_space_group_name_H-M    P1
_symmetry_Int_Tables_number       1
_space_group_crystal_system       triclinic
_cell_length_a                    10.860414
_cell_length_b                    16.089138
_cell_length_c                    17.180392
_cell_angle_alpha                 98.483313
_cell_angle_beta                  90.155076
_cell_angle_gamma                 92.575301
_cell_volume                      2966.03409761

loop_
_atom_site_label
_atom_site_type_symbol
_atom_type_description
_atom_site_fract_x
_atom_site_fract_y
_atom_site_fract_z
_atom_type_partial_charge
C1    C     C_R   0.497657 0.487712 0.348688 0.556044
C2    C     C_R   0.438112 0.541254 0.788449 -0.203329
C3    C     C_R   0.503588 0.545913 0.144234 -0.165102
C4    C     C_R   0.461887 0.544108 0.868285 -0.133144
C5    C     C_R   0.497411 0.467303 0.096348 0.062339
C6    C     C_R   0.578888 0.525997 0.894860 0.033141
C7    C     C_R   0.480193 0.393794 0.131096 0.124183
C8    C     C_R   0.676319 0.513315 0.840575 0.111060
C9    C     C_R   0.483327 0.398892 0.213665 0.260704
C10   C     C_R   0.651315 0.508921 0.759682 0.303756
C11   C     C_2   0.509248 0.462364 0.009866 0.281305
C12   C     C_R   0.504374 0.512178 0.650391 0.569435
C13   C     C_2   0.593854 0.512866 0.977772 0.247351
C14   C     C_R   0.435545 0.741957 0.461045 0.030637
C15   C     C_R   0.557849 0.254251 0.539855 0.007719
C16   C     C_R   0.262723 0.500763 0.502554 0.542512
C17   C     C_R   0.737566 0.499229 0.498078 0.563280
C18   C     C_R   0.438132 0.827441 0.453600 -0.150487
C19   C     C_R   0.548883 0.168154 0.544137 -0.158090
C20   C     C_R   0.524436 0.882868 0.497033 0.015699
C21   C     C_R   0.462862 0.116347 0.496565 0.040612
C22   C     C_R   0.603510 0.851700 0.548714 -0.114913
C23   C     C_R   0.871641 0.498041 0.498408 0.005470
C24   C     C_R   0.388704 0.152124 0.445008 -0.147524
C25   C     C_R   0.598813 0.765957 0.555147 0.237949
C26   C     C_R   0.400065 0.238934 0.442472 0.238077
C27   C     C_2   0.538958 0.973197 0.486227 0.279777
C28   C     C_2   0.444950 0.025068 0.503525 0.285717
C29   C     C_R   0.268930 0.718312 0.684744 -0.066492
C30   C     C_R   0.861143 0.257813 0.292396 -0.135766
C31   C     C_R   0.203875 0.646136 0.647935 -0.069187
C32   C     C_R   0.891956 0.336771 0.335294 -0.142335
C33   C     C_R   0.130087 0.649604 0.581446 0.044869
C34   C     C_R   0.128958 0.501890 0.504753 -0.006475
C35   C     C_R   0.877987 0.350855 0.417357 0.040766
C36   C     C_R   0.119475 0.726575 0.553431 -0.135754
C37   C     C_R   0.834535 0.284490 0.455917 -0.097449
C38   C     C_R   0.184070 0.798766 0.590366 -0.072860
C39   C     C_R   0.801002 0.206094 0.412778 -0.067937
C40   C     C_R   0.259845 0.795180 0.655846 0.140151
C41   C     C_R   0.814325 0.192351 0.330993 0.109460
C42   C     C_R   0.937709 0.569597 0.536167 -0.126397
C43   C     C_R   0.063259 0.430846 0.467304 -0.149337
C44   C     C_3   0.271465 0.044666 0.580642 -0.135902
C45   C     C_R   0.935756 0.427719 0.463110 -0.036384
C46   C     C_3   0.711634 0.955757 0.408516 -0.127062
C47   C     C_3   0.778237 0.412615 0.695090 -0.096742
C48   C     C_3   0.578105 0.292462 0.259250 -0.095777
C49   C     C_3   0.766582 0.507277 0.056365 -0.146459
C50   C     C_3   0.482761 0.346232 0.913833 -0.106565
C51   C     C_R   0.065859 0.572521 0.539935 -0.024763
C52   C     C_R   0.495136 0.478677 0.261643 -0.008268
C53   C     C_R   0.531227 0.521226 0.734191 0.004267
C54   C     C_R   0.503296 0.551501 0.225635 -0.205763
Cu1   Cu    Cu3+1 0.493640 0.415410 0.495980 0.987008
Cu2   Cu    Cu3+1 0.506360 0.584590 0.504020 0.944092
H1    H     H_    0.387191 0.556778 0.909388 0.152778
H2    H     H_    0.873098 0.247593 0.229212 0.103821
H3    H     H_    0.211961 0.587194 0.670362 0.093704
H4    H     H_    0.930446 0.386221 0.304938 0.111593
H5    H     H_    0.062812 0.730336 0.502195 0.101880
H6    H     H_    0.830359 0.292674 0.519462 0.087361
H7    H     H_    0.175932 0.857388 0.567478 0.151092
H8    H     H_    0.767540 0.155468 0.443202 0.171948
H9    H     H_    0.889368 0.623091 0.564481 0.134879
H10   H     H_    0.111814 0.377657 0.438649 0.146275
H11   H     H_    0.510374 0.613442 0.260396 0.146242
H12   H     H_    0.510459 0.603452 0.118492 0.160638
H13   H     H_    0.346144 0.551935 0.768970 0.110007
H14   H     H_    0.377216 0.857255 0.740563 0.226818
H15   H     H_    0.388414 0.888577 0.651963 0.251319
H16   H     H_    0.714213 0.119690 0.245799 0.220638
H17   H     H_    0.858812 0.088797 0.257466 0.227020
H18   H     H_    0.533001 0.276278 0.088323 0.210544
H19   H     H_    0.378667 0.284710 0.101008 0.262254
H20   H     H_    0.830097 0.555954 0.903800 0.273762
H21   H     H_    0.799787 0.449798 0.894672 0.208891
H22   H     H_    0.330834 0.244732 0.334908 0.242788
H23   H     H_    0.370586 0.699191 0.425812 0.137219
H24   H     H_    0.229893 0.262118 0.408361 0.190001
H25   H     H_    0.668369 0.675639 0.613790 0.299981
H26   H     H_    0.772151 0.745817 0.586789 0.203198
H27   H     H_    0.233122 0.098535 0.556539 0.124780
H28   H     H_    0.334502 0.067222 0.631374 0.121020
H29   H     H_    0.192869 0.009262 0.603334 0.147576
H30   H     H_    0.746726 0.899232 0.429728 0.117173
H31   H     H_    0.792616 0.991170 0.388634 0.167122
H32   H     H_    0.649035 0.937353 0.356786 0.127336
H33   H     H_    0.698135 0.367333 0.697645 0.080191
H34   H     H_    0.622374 0.294346 0.577645 0.112477
H35   H     H_    0.848686 0.403306 0.739482 0.149410
H36   H     H_    0.820736 0.397600 0.636439 0.130642
H37   H     H_    0.643267 0.339980 0.292710 0.142562
H38   H     H_    0.620805 0.265639 0.203126 0.082662
H39   H     H_    0.562892 0.240711 0.294707 0.158362
H40   H     H_    0.758911 0.439655 0.029765 0.082133
H41   H     H_    0.749533 0.512409 0.120483 0.137803
H42   H     H_    0.863229 0.529966 0.049092 0.144064
H43   H     H_    0.570951 0.328282 0.938857 0.100485
H44   H     H_    0.499456 0.364913 0.855012 0.111531
H45   H     H_    0.670401 0.893863 0.583288 0.130936
H46   H     H_    0.420294 0.289107 0.905018 0.153859
H47   H     H_    0.320806 0.113267 0.408175 0.108302
H48   H     H_    0.606543 0.142510 0.585427 0.114716
H49   H     H_    0.375907 0.849611 0.412633 0.123281
H50   H     H_    0.326510 0.714124 0.735437 0.107505
N1    N     N_R   0.515930 0.711660 0.510070 -0.216061
N2    N     N_R   0.484070 0.288340 0.489930 -0.192050
N3    N     N_3   0.325417 0.870134 0.692716 -0.634497
N4    N     N_3   0.780958 0.111622 0.287664 -0.652249
N5    N     N_3   0.458922 0.314005 0.082405 -0.596809
N6    N     N_3   0.799697 0.502353 0.865533 -0.610408
N7    N     N_3   0.320411 0.275726 0.392191 -0.530618
N8    N     N_3   0.683503 0.738569 0.609085 -0.619128
O1    O     O_R   0.494030 0.420280 0.382610 -0.434385
O2    O     O_3   0.653894 0.008101 0.469515 -0.613097
O3    O     O_3   0.744818 0.497301 0.704945 -0.548515
O4    O     O_3   0.463423 0.326151 0.246544 -0.567217
O5    O     O_3   0.687267 0.559854 0.022240 -0.593027
O6    O     O_3   0.423299 0.410421 0.963186 -0.561493
O7    O     O_R   0.505970 0.579720 0.617390 -0.507430
O8    O     O_R   0.504770 0.563150 0.389400 -0.528346
O9    O     O_R   0.495230 0.436850 0.610600 -0.508630
O10   O     O_R   0.314270 0.428570 0.496610 -0.481029
O11   O     O_R   0.685730 0.571430 0.503390 -0.522612
O12   O     O_R   0.325020 0.571440 0.503400 -0.505943
O13   O     O_R   0.674980 0.428560 0.496600 -0.507038
O14   O     O_3   0.330174 0.990591 0.521333 -0.613108

loop_
_geom_bond_atom_site_label_1
_geom_bond_atom_site_label_2
_ccdc_geom_bond_type
C30   C32   A    
Cu1   Cu2   S    
C23   C45   A    
C48   H39   S    
C47   H36   S    
C14   C18   A    
C3    H12   S    
C44   H27   S    
C37   H6    S    
H17   N4    S    
C39   C41   A    
C15   C19   A    
C39   H8    S    
C50   H43   S    
C17   C23   S    
C22   H45   S    
C48   H38   S    
C50   O6    S    
C35   C37   A    
C24   C26   A    
C46   H31   S    
C8    N6    S    
C3    C54   A    
C30   H2    S    
C33   C36   A    
C31   H3    S    
C10   C53   A    
C1    O8    A    
C36   H5    S    
C16   C34   S    
C49   H42   S    
C12   O7    A    
C22   C25   A    
C4    H1    S    
C42   H9    S    
C31   C33   A    
C30   C41   A    
Cu2   O12   S    
C2    H13   S    
C12   C53   S    
C42   C51   A    
C27   O2    S    
C9    O4    S    
C47   H33   S    
C9    C52   A    
C11   O6    S    
C13   O5    S    
C52   C54   A    
C46   H32   S    
Cu1   O9    S    
C48   H37   S    
C32   C35   A    
H26   N8    S    
C4    C6    A    
C26   N2    A    
H18   N5    S    
C5    C7    A    
C17   O13   A    
C48   O4    S    
C54   H11   S    
C44   H28   S    
Cu2   O11   S    
Cu2   O8    S    
C15   N2    A    
H25   N8    S    
H21   N6    S    
C2    C4    A    
Cu2   N1    S    
H14   N3    S    
C19   H48   S    
C23   C42   A    
H20   N6    S    
C34   C51   A    
C14   H23   S    
C43   C45   A    
C8    C10   A    
C14   N1    A    
C21   C28   S    
Cu1   O13   S    
C50   H46   S    
C41   N4    S    
C29   H50   S    
H22   N7    S    
C32   H4    S    
C44   H29   S    
C35   C45   S    
C25   N1    A    
C38   H7    S    
C7    C9    A    
Cu1   O10   S    
C44   O14   S    
C19   C21   A    
C47   H35   S    
C34   C43   A    
C20   C22   A    
C3    C5    A    
C2    C53   A    
C6    C8    A    
C5    C11   S    
C40   N3    S    
C20   C27   S    
C33   C51   S    
H19   N5    S    
C46   O2    S    
Cu1   N2    S    
C24   H47   S    
Cu2   O7    S    
C36   C38   A    
C16   O10   A    
C26   N7    S    
C29   C31   A    
C10   O3    S    
C25   N8    S    
C15   H34   S    
C38   C40   A    
C11   C13   D    
C17   O11   A    
C49   O5    S    
C12   O9    A    
Cu1   O1    S    
H16   N4    S    
C43   H10   S    
H15   N3    S    
C29   C40   A    
C7    N5    S    
C18   C20   A    
C49   H40   S    
C1    C52   S    
C50   H44   S    
C18   H49   S    
C49   H41   S    
C47   O3    S    
H24   N7    S    
C37   C39   A    
C21   C24   A    
C27   C28   D    
C1    O1    A    
C46   H30   S    
C16   O12   A    
C28   O14   S    
C6    C13   S    
