data_mof_unit_27207.cif
_audit_creation_date              2012-12-10T18:42:34-0500
_audit_creation_method            fapswitch 2.2
_symmetry_space_group_name_H-M    P1
_symmetry_Int_Tables_number       1
_space_group_crystal_system       triclinic
_cell_length_a                    8.620464
_cell_length_b                    10.713328
_cell_length_c                    9.844022
_cell_angle_alpha                 89.964755
_cell_angle_beta                  98.172325
_cell_angle_gamma                 90.143719
_cell_volume                      899.898309078

loop_
_atom_site_label
_atom_site_type_symbol
_atom_type_description
_atom_site_fract_x
_atom_site_fract_y
_atom_site_fract_z
_atom_type_partial_charge
C1    C     C_R   0.499883 0.259893 0.499955 0.894302
C2    C     C_R   0.467225 0.063809 0.616533 -0.188102
C3    C     C_R   0.500137 0.872551 0.500043 -0.000286
C4    C     C_R   0.499865 0.127449 0.499957 -0.000284
C5    C     C_R   0.600264 0.575394 0.084337 -0.049407
C6    C     C_R   0.399736 0.424606 0.915663 -0.049431
C7    C     C_R   0.600183 0.575393 0.940448 -0.040370
C8    C     C_R   0.399817 0.424607 0.059552 -0.040372
C9    C     C_2   0.978205 0.372346 0.355190 0.933081
C10   C     C_2   0.021790 0.627677 0.644801 0.933106
C11   C     C_R   0.500118 0.740107 0.500045 0.894321
C12   C     C_R   0.201656 0.497809 0.464944 0.950685
C13   C     C_R   0.798344 0.502196 0.535056 0.950677
C14   C     C_2   0.039338 0.475007 0.451712 -0.296509
C15   C     C_2   0.960661 0.525009 0.548286 -0.296529
C16   C     C_R   0.532562 0.064056 0.383399 -0.167444
C17   C     C_R   0.467440 0.935943 0.616601 -0.167440
C18   C     C_R   0.532777 0.936191 0.383467 -0.188111
H1    H     H_    0.558882 0.112873 0.292957 0.158080
H2    H     H_    0.147668 0.786908 0.675145 0.338228
H3    H     H_    0.441120 0.887127 0.707043 0.158078
H4    H     H_    0.559357 0.887563 0.293116 0.157006
H5    H     H_    0.440645 0.112437 0.706884 0.157007
H6    H     H_    0.680419 0.635677 0.148759 0.134853
H7    H     H_    0.319581 0.364323 0.851241 0.134852
H8    H     H_    0.680234 0.635712 0.895833 0.160665
H9    H     H_    0.319766 0.364289 0.104167 0.160647
H10   H     H_    0.852382 0.213086 0.324861 0.338224
N1    N     N_R   0.499960 0.499970 0.857200 -0.091957
N2    N     N_R   0.500040 0.500030 0.142800 -0.091956
O1    O     O_R   0.499990 0.316750 0.614620 -0.635625
O2    O     O_R   0.885756 0.277056 0.399206 -0.804784
O3    O     O_2   0.987566 0.630138 0.761176 -0.617872
O4    O     O_R   0.114304 0.722931 0.600808 -0.804777
O5    O     O_R   0.500010 0.683250 0.385380 -0.635630
O6    O     O_R   0.499990 0.316780 0.385290 -0.622018
O7    O     O_R   0.500010 0.683220 0.614710 -0.622002
O8    O     O_R   0.271750 0.499990 0.587840 -0.613959
O9    O     O_R   0.728250 0.500010 0.412160 -0.613978
O10   O     O_R   0.271750 0.500010 0.358510 -0.588835
O11   O     O_R   0.728250 0.499990 0.641490 -0.588812
O12   O     O_2   0.012360 0.369929 0.238784 -0.617844
Zn1   Zn    Zn3+2 0.500000 0.499980 0.653120 0.990268
Zn2   Zn    Zn3+2 0.500000 0.500020 0.346880 0.990257

loop_
_geom_bond_atom_site_label_1
_geom_bond_atom_site_label_2
_ccdc_geom_bond_type
C4    C16   A    
C2    C4    A    
C9    C14   S    
O7    Zn1   S    
O9    Zn2   S    
C7    N1    A    
H10   O2    S    
C1    C4    S    
H2    O4    S    
C5    H6    S    
C8    N2    A    
O8    Zn1   S    
C10   O4    S    
N1    Zn1   S    
C2    C17   A    
O5    Zn2   S    
O11   Zn1   S    
N2    Zn2   S    
C9    O12   D    
C7    H8    S    
O1    Zn1   S    
C16   H1    S    
C13   O11   A    
C12   C14   S    
C3    C17   A    
C10   O3    D    
C5    C7    A    
C10   C15   S    
C13   C15   S    
C1    O1    A    
C12   O8    A    
C13   O9    A    
C6    H7    S    
O6    Zn2   S    
O10   Zn2   S    
C6    N1    A    
C3    C11   S    
C3    C18   A    
C16   C18   A    
C5    N2    A    
C2    H5    S    
C11   O7    A    
C8    H9    S    
C14   C15   D    
C6    C8    A    
C12   O10   A    
C9    O2    S    
C18   H4    S    
C11   O5    A    
C17   H3    S    
C1    O6    A    
