data_mof_unit_15660.cif
_audit_creation_date              2012-12-10T19:49:40-0500
_audit_creation_method            fapswitch 2.2
_symmetry_space_group_name_H-M    P1
_symmetry_Int_Tables_number       1
_space_group_crystal_system       triclinic
_cell_length_a                    11.175916
_cell_length_b                    16.297271
_cell_length_c                    16.915625
_cell_angle_alpha                 92.286448
_cell_angle_beta                  91.117426
_cell_angle_gamma                 92.494168
_cell_volume                      3074.89464536

loop_
_atom_site_label
_atom_site_type_symbol
_atom_type_description
_atom_site_fract_x
_atom_site_fract_y
_atom_site_fract_z
_atom_type_partial_charge
C1    C     C_R   0.509833 0.491894 0.350192 0.796910
C2    C     C_R   0.502442 0.508118 0.650609 0.782593
C3    C     C_R   0.871721 0.496000 0.493731 -0.177160
C4    C     C_R   0.127775 0.495794 0.494706 -0.187444
C5    C     C_R   0.933412 0.429279 0.525866 -0.100587
C6    C     C_R   0.065815 0.559693 0.458390 -0.113483
C7    C     C_R   0.543520 0.494564 0.266718 -0.138173
C8    C     C_R   0.518840 0.506476 0.736863 -0.061569
C9    C     C_R   0.647120 0.456881 0.237220 0.020391
C10   C     C_R   0.438952 0.461266 0.784067 -0.122316
C11   C     C_R   0.680082 0.468798 0.157438 0.013424
C12   C     C_R   0.472918 0.445516 0.863009 0.011532
C13   C     C_R   0.615721 0.523908 0.112100 0.036377
C14   C     C_R   0.583309 0.479722 0.894215 0.123159
C15   C     C_R   0.520101 0.564490 0.144612 -0.058381
C16   C     C_R   0.655009 0.531124 0.848675 -0.064201
C17   C     C_R   0.483497 0.548822 0.220278 -0.084834
C18   C     C_R   0.623777 0.543508 0.770463 -0.059620
C19   C     C_2   0.634000 0.534047 0.027224 -0.259378
C20   C     C_2   0.618215 0.468834 0.977163 -0.202164
C21   C     C_R   0.559167 0.750395 0.443518 0.053221
C22   C     C_R   0.498555 0.256140 0.564506 -0.044955
C23   C     C_R   0.262578 0.499447 0.498802 0.892854
C24   C     C_R   0.737385 0.499165 0.499092 0.864052
C25   C     C_R   0.575616 0.836298 0.440895 0.292884
C26   C     C_R   0.466363 0.173436 0.578202 0.294121
C27   C     C_R   0.519564 0.884480 0.496768 -0.068524
C28   C     C_R   0.469201 0.117443 0.514218 -0.074628
C29   C     C_R   0.477075 0.848213 0.564213 -0.318953
C30   C     C_R   0.461693 0.147755 0.438093 -0.257700
C31   C     C_R   0.474489 0.762383 0.571245 0.495289
C32   C     C_R   0.455024 0.232825 0.427252 0.621716
C33   C     C_2   0.485126 0.968109 0.477097 -0.081214
C34   C     C_2   0.495468 0.030729 0.530048 -0.074937
C35   C     C_R   0.186614 0.779088 0.439391 -0.069065
C36   C     C_R   0.806017 0.216163 0.566883 -0.116202
C37   C     C_R   0.142263 0.705784 0.472932 -0.039445
C38   C     C_R   0.830409 0.288768 0.525310 -0.034698
C39   C     C_R   0.132346 0.631558 0.425329 -0.079134
C40   C     C_R   0.869125 0.362563 0.568441 -0.098755
C41   C     C_R   0.159247 0.631625 0.342955 0.363350
C42   C     C_R   0.873331 0.365277 0.652929 0.342829
C43   C     C_R   0.190981 0.708136 0.309476 0.393689
C44   C     C_R   0.848031 0.291550 0.693117 0.406614
C45   C     C_R   0.210620 0.778489 0.358772 -0.304869
C46   C     C_R   0.814116 0.219179 0.649455 -0.279093
C47   C     C_R   0.938763 0.558434 0.455196 0.380009
C48   C     C_R   0.059952 0.425544 0.521485 0.394194
Cu1   Cu    Cu3+1 0.493640 0.415410 0.495980 1.046375
Cu2   Cu    Cu3+1 0.506360 0.584590 0.504020 1.076276
H1    H     H_    0.240601 0.835447 0.333098 0.200957
H2    H     H_    0.796586 0.162979 0.680122 0.221616
H3    H     H_    0.470247 0.606111 0.109639 0.202725
H4    H     H_    0.737156 0.560211 0.873401 0.182475
H5    H     H_    0.532474 0.017911 0.587812 0.193939
H6    H     H_    0.453038 0.977159 0.417378 0.184826
H7    H     H_    0.437610 0.887077 0.609027 0.250068
H8    H     H_    0.458212 0.105823 0.386999 0.214295
H9    H     H_    0.683398 0.580504 0.735302 0.195922
H10   H     H_    0.409150 0.580830 0.244023 0.232899
H11   H     H_    0.609484 0.407792 0.000333 0.221447
H12   H     H_    0.630033 0.595533 0.004824 0.198483
N1    N     N_R   0.515930 0.711660 0.510070 -0.259917
N2    N     N_R   0.484070 0.288340 0.489930 -0.282957
O1    O     O_R   0.494030 0.420280 0.382610 -0.532471
O2    O     O_R   0.505970 0.579720 0.617390 -0.495621
O3    O     O_R   0.504770 0.563150 0.389400 -0.585630
O4    O     O_R   0.495230 0.436850 0.610600 -0.612003
O5    O     O_R   0.314270 0.428570 0.496610 -0.467755
O6    O     O_R   0.685730 0.571430 0.503390 -0.488047
O7    O     O_R   0.325020 0.571440 0.503400 -0.583666
O8    O     O_R   0.674980 0.428560 0.496600 -0.667614
C49   C     C_2   0.388847 0.400478 0.914680 0.492419
H13   H     H_    0.296621 0.418197 0.918628 0.122502
O9    O     O_2   0.420752 0.341856 0.951184 -0.474498
C50   C     C_2   0.779963 0.424968 0.120237 0.510524
H14   H     H_    0.834735 0.455078 0.076708 0.099699
O10   O     O_2   0.797871 0.353649 0.134590 -0.444390
C51   C     C_2   0.551022 0.711684 0.364329 0.568997
H15   H     H_    0.630120 0.696741 0.332431 0.180932
O11   O     O_2   0.454297 0.705772 0.329686 -0.583408
C52   C     C_2   0.575762 0.299681 0.625546 0.467720
H16   H     H_    0.644393 0.342229 0.607285 0.074178
O12   O     O_2   0.563649 0.291716 0.696345 -0.446457
S1    S     S_3+6 0.408160 0.259313 0.331091 0.102567
O13   O     O_2   0.515432 0.286351 0.285122 -0.280802
O14   O     O_2   0.348800 0.185351 0.288185 -0.233709
O15   O     O_3   0.308600 0.333485 0.334673 -0.446291
H17   H     H_    0.300874 0.350752 0.279375 0.387980
S2    S     S_3+6 0.403099 0.728708 0.658445 0.065814
O16   O     O_2   0.332976 0.796234 0.695718 -0.204559
O17   O     O_2   0.317549 0.656481 0.641358 -0.292015
O18   O     O_3   0.508049 0.703986 0.724824 -0.512488
H18   H     H_    0.561040 0.754091 0.732564 0.353540
S3    S     S_3+6 0.429124 0.138676 0.674220 0.074176
O19   O     O_2   0.346742 0.063206 0.666394 -0.224595
O20   O     O_2   0.542050 0.118067 0.717451 -0.255743
O21   O     O_3   0.359445 0.211287 0.727065 -0.433676
H19   H     H_    0.353457 0.190062 0.780968 0.419578
S4    S     S_3+6 0.652305 0.883335 0.361311 0.032420
O22   O     O_2   0.565678 0.890215 0.293041 -0.241065
O23   O     O_2   0.701720 0.967655 0.386976 -0.219180
O24   O     O_3   0.766282 0.826155 0.332052 -0.508980
H20   H     H_    0.799897 0.854100 0.285974 0.400685
C53   C     C_2   0.204571 0.859616 0.483652 0.479766
H21   H     H_    0.216692 0.915455 0.451239 0.074939
O25   O     O_2   0.210313 0.865315 0.555710 -0.440238
C54   C     C_2   0.785184 0.133379 0.527947 0.548064
H22   H     H_    0.736844 0.085717 0.558875 0.047314
O26   O     O_2   0.828691 0.115420 0.464303 -0.411232
C55   C     C_2   0.093323 0.705764 0.554399 0.556958
H23   H     H_    0.101838 0.652394 0.590018 0.090714
O27   O     O_2   0.034653 0.761955 0.580104 -0.470691
C56   C     C_2   0.825286 0.287426 0.437496 0.527281
H24   H     H_    0.889548 0.324243 0.405395 0.106912
O28   O     O_2   0.746589 0.247492 0.400234 -0.499993
S5    S     S_3+6 0.124152 0.541729 0.280629 0.064984
O29   O     O_2   0.997169 0.545424 0.250652 -0.179144
O30   O     O_2   0.204292 0.537026 0.210638 -0.260343
O31   O     O_3   0.136637 0.455052 0.329913 -0.547498
H25   H     H_    0.087051 0.412699 0.299171 0.410914
S6    S     S_3+6 0.921677 0.459181 0.704773 0.031757
O32   O     O_2   0.880372 0.463846 0.788508 -0.233775
O33   O     O_2   0.055921 0.465181 0.705412 -0.265791
O34   O     O_3   0.870296 0.540571 0.658903 -0.604102
H26   H     H_    0.919516 0.588470 0.680817 0.382103
S7    S     S_3+6 0.192037 0.723960 0.206018 0.126240
O35   O     O_2   0.305521 0.693685 0.171772 -0.227212
O36   O     O_2   0.086828 0.679492 0.164309 -0.186791
O37   O     O_3   0.185980 0.824710 0.188887 -0.457813
H27   H     H_    0.104222 0.839517 0.203982 0.360136
S8    S     S_3+6 0.864620 0.283407 0.797120 0.142933
O38   O     O_2   0.857935 0.194808 0.818940 -0.218876
O39   O     O_2   0.983780 0.321341 0.825119 -0.169715
O40   O     O_3   0.753394 0.331990 0.842156 -0.467050
H28   H     H_    0.772345 0.330020 0.899478 0.380631
S9    S     S_3+6 0.861221 0.634626 0.402253 0.025886
O41   O     O_2   0.933153 0.682039 0.344191 -0.268697
O42   O     O_2   0.760078 0.590991 0.356160 -0.334191
O43   O     O_3   0.807708 0.703025 0.468266 -0.517057
H29   H     H_    0.862894 0.752154 0.467421 0.394565
S10   S     S_3+6 0.131401 0.330185 0.544606 0.058657
O44   O     O_2   0.054906 0.264475 0.580396 -0.273012
O45   O     O_2   0.178464 0.293828 0.469010 -0.221640
O46   O     O_3   0.245397 0.348961 0.609202 -0.501533
H30   H     H_    0.278565 0.294616 0.616953 0.410791
C57   C     C_2   0.726294 0.413897 0.292294 0.524836
H31   H     H_    0.690169 0.385379 0.343475 0.099362
O47   O     O_2   0.834343 0.413554 0.283546 -0.501860
C58   C     C_2   0.318819 0.436088 0.750779 0.517972
H32   H     H_    0.282069 0.470570 0.703214 0.122970
O48   O     O_2   0.260840 0.377059 0.774332 -0.434654

loop_
_geom_bond_atom_site_label_1
_geom_bond_atom_site_label_2
_ccdc_geom_bond_type
C38   C40   A    
O18   H18   S    
Cu1   O4    S    
C36   C54   S    
C49   O9    D    
C49   H13   S    
C23   O5    A    
C53   H21   S    
S3    O19   D    
C56   H24   S    
S3    O21   S    
C24   O6    A    
O40   H28   S    
C39   C41   A    
S1    O13   D    
C27   C33   S    
C53   O25   D    
C24   O8    A    
Cu1   O1    S    
C15   H3    S    
C57   O47   D    
C50   O10   D    
C2    O4    A    
C11   C50   S    
S5    O30   D    
C38   C56   S    
C27   C29   A    
C45   H1    S    
C19   H12   S    
O21   H19   S    
C46   H2    S    
C54   H22   S    
C7    C9    A    
C20   H11   S    
C57   H31   S    
C55   H23   S    
S8    O38   D    
C7    C17   A    
Cu1   O8    S    
C1    O1    A    
C36   C46   A    
Cu2   O3    S    
C33   H6    S    
C40   C42   A    
C28   C34   S    
C34   H5    S    
Cu1   N2    S    
Cu1   O5    S    
C12   C49   S    
Cu2   N1    S    
C41   C43   A    
S10   O46   S    
C47   S9    S    
C3    C24   S    
C42   C44   A    
C5    C48   A    
C44   C46   A    
O46   H30   S    
S1    O14   D    
C37   C39   A    
S9    O43   S    
C37   C55   S    
C6    C47   A    
C13   C19   S    
C23   O7    A    
O43   H29   S    
C32   N2    A    
C4    C6    A    
S5    O31   S    
C43   S7    S    
C51   O11   D    
C4    C23   S    
C3    C5    A    
C9    C57   S    
S4    O24   S    
C8    C18   A    
Cu2   O7    S    
S7    O36   D    
C35   C53   S    
C14   C20   S    
S9    O42   D    
C25   S4    S    
S2    O17   D    
C29   C31   A    
C31   S2    S    
C21   C51   S    
S4    O23   D    
C33   C34   D    
C48   S10   S    
C55   O27   D    
C50   H14   S    
Cu2   O2    S    
C10   C12   A    
S8    O39   D    
C12   C14   A    
C52   H16   S    
C52   O12   D    
C9    C11   A    
O34   H26   S    
C58   O48   D    
C44   S8    S    
S6    O33   D    
S7    O35   D    
C35   C45   A    
C22   C52   S    
S10   O45   D    
O31   H25   S    
C42   S6    S    
S2    O18   S    
C4    C48   A    
S1    O15   S    
C26   S3    S    
C15   C17   A    
C21   C25   A    
C35   C37   A    
C1    C7    S    
C8    C10   A    
C2    C8    S    
C29   H7    S    
C2    O2    A    
C56   O28   D    
S3    O20   D    
C25   C27   A    
C31   N1    A    
S9    O41   D    
C26   C28   A    
C58   H32   S    
C19   C20   D    
C13   C15   A    
O37   H27   S    
Cu2   O6    S    
S7    O37   S    
C28   C30   A    
C43   C45   A    
S5    O29   D    
C10   C58   S    
C36   C38   A    
C30   C32   A    
C11   C13   A    
S2    O16   D    
S6    O34   S    
S8    O40   S    
C32   S1    S    
C30   H8    S    
C3    C47   A    
S4    O22   D    
C1    O3    A    
C54   O26   D    
C14   C16   A    
C16   H4    S    
C21   N1    A    
C17   H10   S    
C22   N2    A    
C51   H15   S    
C18   H9    S    
O15   H17   S    
C16   C18   A    
Cu1   Cu2   S    
C22   C26   A    
C5    C40   S    
O24   H20   S    
S10   O44   D    
C6    C39   S    
C41   S5    S    
S6    O32   D    
