data_mof_unit_45006.cif
_audit_creation_date              2012-12-10T19:00:01-0500
_audit_creation_method            fapswitch 2.2
_symmetry_space_group_name_H-M    P1
_symmetry_Int_Tables_number       1
_space_group_crystal_system       triclinic
_cell_length_a                    10.950509
_cell_length_b                    10.885463
_cell_length_c                    9.97359
_cell_angle_alpha                 88.702476
_cell_angle_beta                  91.995581
_cell_angle_gamma                 92.517618
_cell_volume                      1186.73216884

loop_
_atom_site_label
_atom_site_type_symbol
_atom_type_description
_atom_site_fract_x
_atom_site_fract_y
_atom_site_fract_z
_atom_type_partial_charge
C1    C     C_R   0.499742 0.259018 0.502088 0.893300
C2    C     C_R   0.447141 0.054892 0.619104 0.025493
C3    C     C_R   0.462222 0.868877 0.493895 -0.311145
C4    C     C_R   0.492237 0.123751 0.506051 -0.285240
C5    C     C_R   0.584889 0.568080 0.072864 -0.093968
C6    C     C_R   0.415221 0.432191 0.926694 -0.068087
C7    C     C_R   0.583664 0.569928 0.929771 -0.033708
C8    C     C_R   0.415634 0.431221 0.070011 -0.041510
C9    C     C_R   0.259960 0.500337 0.497502 0.846843
C10   C     C_R   0.739783 0.497882 0.502657 0.864418
C11   C     C_R   0.163052 0.547806 0.031878 0.445195
C12   C     C_R   0.486821 0.738248 0.497921 0.905990
C13   C     C_R   0.834150 0.452519 0.972270 0.459391
C14   C     C_R   0.143512 0.560023 0.168408 0.487638
C15   C     C_R   0.851800 0.436713 0.835809 0.488205
C16   C     C_R   0.100019 0.456326 0.244270 -0.073955
C17   C     C_R   0.897983 0.537660 0.757029 -0.089838
C18   C     C_R   0.078327 0.342814 0.182029 -0.263018
C19   C     C_R   0.919397 0.653013 0.815190 -0.239213
C20   C     C_R   0.095521 0.330553 0.044906 0.130646
C21   C     C_R   0.903691 0.668489 0.952103 0.142029
C22   C     C_R   0.135913 0.434458 0.970198 -0.396593
C23   C     C_R   0.872278 0.492610 0.507261 -0.115022
C24   C     C_R   0.865836 0.566588 0.031001 -0.411014
C25   C     C_R   0.927909 0.462557 0.389826 -0.254326
C26   C     C_R   0.071069 0.529198 0.611881 -0.264827
C27   C     C_3   0.062078 0.207279 0.982805 -0.354970
C28   C     C_3   0.095615 0.196152 0.835731 -0.345808
C29   C     C_3   0.066598 0.066990 0.784275 -0.891834
C30   C     C_3   0.933735 0.792112 0.013910 -0.338185
C31   C     C_3   0.827503 0.837027 0.092577 -0.420438
C32   C     C_3   0.849932 0.970267 0.134344 -0.857768
C33   C     C_3   0.423378 0.893827 0.243413 -0.276192
C34   C     C_R   0.126926 0.500499 0.493995 -0.107967
C35   C     C_3   0.521077 0.864227 0.145519 -0.420917
C36   C     C_3   0.461557 0.824040 0.012347 -0.747010
C37   C     C_3   0.411020 0.111816 0.748095 -0.354756
C38   C     C_3   0.521781 0.130922 0.844754 -0.298166
C39   C     C_3   0.480753 0.161697 0.983802 -0.795837
C40   C     C_R   0.945223 0.520773 0.622276 0.040926
C41   C     C_R   0.053745 0.469676 0.379815 0.044539
C42   C     C_R   0.513270 0.061876 0.386501 0.383943
C43   C     C_R   0.432632 0.926955 0.611612 0.395133
C44   C     C_R   0.476919 0.938790 0.375863 0.018689
H1    H     H_    0.147446 0.428112 0.864256 0.151204
H2    H     H_    0.348392 0.376970 0.870673 0.117718
H3    H     H_    0.234441 0.623153 0.873154 0.328865
H4    H     H_    0.756528 0.384751 0.130948 0.328459
H5    H     H_    0.134363 0.677980 0.313150 0.319979
H6    H     H_    0.842600 0.319053 0.689515 0.319605
H7    H     H_    0.117545 0.998405 0.845496 0.267136
H8    H     H_    0.966809 0.044661 0.788038 0.272720
H9    H     H_    0.094496 0.062068 0.678611 0.251712
H10   H     H_    0.045496 0.262245 0.770788 0.249975
H11   H     H_    0.194164 0.217947 0.827856 0.196509
H12   H     H_    0.858029 0.577114 0.137506 0.159132
H13   H     H_    0.108739 0.134771 0.043070 0.183519
H14   H     H_    0.962060 0.190519 0.990027 0.259290
H15   H     H_    0.944722 0.986265 0.175562 0.257840
H16   H     H_    0.833615 0.032058 0.046305 0.276862
H17   H     H_    0.785635 0.992411 0.213004 0.266052
H18   H     H_    0.742820 0.829873 0.028475 0.226960
H19   H     H_    0.815317 0.778976 0.184572 0.225916
H20   H     H_    0.015270 0.785774 0.081816 0.265056
H21   H     H_    0.956652 0.861364 0.934435 0.200107
H22   H     H_    0.637040 0.170856 0.311553 0.340289
H23   H     H_    0.650023 0.627524 0.877273 0.129879
H24   H     H_    0.328568 0.793960 0.681758 0.341891
H25   H     H_    0.413409 0.733464 0.025782 0.309219
H26   H     H_    0.393314 0.890093 0.975241 0.294478
H27   H     H_    0.532236 0.817854 0.936137 0.252146
H28   H     H_    0.584516 0.944099 0.127954 0.269048
H29   H     H_    0.577641 0.791524 0.189113 0.240483
H30   H     H_    0.361288 0.811848 0.258681 0.252028
H31   H     H_    0.363353 0.965099 0.199477 0.187588
H32   H     H_    0.389985 0.201951 0.980597 0.223418
H33   H     H_    0.466168 0.078189 0.043556 0.281930
H34   H     H_    0.348962 0.374129 0.122646 0.137257
H35   H     H_    0.550667 0.222361 0.035468 0.313667
H36   H     H_    0.575077 0.046241 0.852510 0.230663
H37   H     H_    0.583899 0.206409 0.807764 0.283160
H38   H     H_    0.363361 0.197560 0.727622 0.188862
H39   H     H_    0.340758 0.052764 0.798968 0.239513
H40   H     H_    0.042082 0.264685 0.239779 0.164408
H41   H     H_    0.954907 0.729444 0.754426 0.163846
H42   H     H_    0.872806 0.435081 0.303567 0.165059
H43   H     H_    0.125999 0.559501 0.697116 0.163885
H44   H     H_    0.653551 0.621670 0.127766 0.117880
N1    N     N_R   0.499970 0.499970 0.857200 -0.082461
N2    N     N_R   0.500030 0.500030 0.142800 -0.086068
O1    O     O_R   0.499990 0.316750 0.614620 -0.625784
O2    O     O_3   0.785427 0.354315 0.045511 -0.758556
O3    O     O_3   0.165938 0.675216 0.221871 -0.790704
O4    O     O_3   0.823656 0.321176 0.785386 -0.765534
O5    O     O_3   0.565867 0.119820 0.277415 -0.782295
O6    O     O_3   0.383657 0.860840 0.718221 -0.780936
O7    O     O_R   0.500010 0.683250 0.385380 -0.623765
O8    O     O_R   0.499990 0.316780 0.385290 -0.586685
O9    O     O_R   0.500010 0.683220 0.614710 -0.593309
O10   O     O_R   0.316760 0.500000 0.614660 -0.653406
O11   O     O_R   0.683240 0.500000 0.385340 -0.645174
O12   O     O_R   0.316760 0.500020 0.385330 -0.607740
O13   O     O_R   0.683240 0.499980 0.614670 -0.607366
O14   O     O_3   0.205234 0.649808 0.960130 -0.762241
Zn1   Zn    Zn3+2 0.500000 0.499980 0.653120 0.957092
Zn2   Zn    Zn3+2 0.500000 0.500020 0.346880 0.958653

loop_
_geom_bond_atom_site_label_1
_geom_bond_atom_site_label_2
_ccdc_geom_bond_type
C30   H20   S    
O1    Zn1   S    
C35   C36   S    
C15   O4    S    
C3    C43   A    
O10   Zn1   S    
H24   O6    S    
C38   H36   S    
C39   H33   S    
C10   O13   A    
C19   C21   A    
C32   H17   S    
C30   C31   S    
C11   C14   A    
C23   C40   A    
C7    N1    A    
C12   O9    A    
C3    C12   S    
C17   C19   A    
C5    H44   S    
C26   C34   A    
C35   H29   S    
C26   H43   S    
C18   H40   S    
C11   O14   S    
C14   O3    S    
C5    N2    A    
C36   H27   S    
C1    O1    A    
C8    H34   S    
C31   H18   S    
C34   C41   A    
C42   C44   A    
C28   H11   S    
C36   H26   S    
O9    Zn1   S    
C3    C44   A    
C42   O5    S    
C31   H19   S    
N2    Zn2   S    
C27   H13   S    
C25   C41   A    
C5    C7    A    
C28   H10   S    
H6    O4    S    
C6    C8    A    
C13   C24   A    
C29   H9    S    
C17   C40   S    
C39   H35   S    
C2    C4    A    
C37   C38   S    
C31   C32   S    
C2    C43   A    
C43   O6    S    
O13   Zn1   S    
C39   H32   S    
C12   O7    A    
C9    O12   A    
O7    Zn2   S    
C20   C22   A    
C35   H28   S    
C9    O10   A    
C13   C15   A    
C13   O2    S    
C9    C34   S    
C14   C16   A    
C37   H38   S    
C8    N2    A    
C32   H16   S    
C36   H25   S    
C29   H7    S    
O11   Zn2   S    
C15   C17   A    
C28   C29   S    
H3    O14   S    
C6    H2    S    
C33   C44   S    
C10   O11   A    
C19   H41   S    
C27   H14   S    
C1    O8    A    
C20   C27   S    
C10   C23   S    
C24   H12   S    
C6    N1    A    
C21   C30   S    
C11   C22   A    
O8    Zn2   S    
C1    C4    S    
C38   H37   S    
C2    C37   S    
C26   C40   A    
C38   C39   S    
C4    C42   A    
C25   H42   S    
C33   C35   S    
O12   Zn2   S    
C18   C20   A    
C23   C25   A    
C30   H21   S    
C7    H23   S    
C33   H30   S    
C22   H1    S    
C16   C18   A    
H4    O2    S    
C21   C24   A    
N1    Zn1   S    
C27   C28   S    
C33   H31   S    
C37   H39   S    
C32   H15   S    
H5    O3    S    
C16   C41   S    
H22   O5    S    
C29   H8    S    
