data_mof_unit_38099.cif
_audit_creation_date              2012-10-26T19:02:57-0400
_audit_creation_method            fapswitch 2.2
_symmetry_space_group_name_H-M    P1
_symmetry_Int_Tables_number       1
_space_group_crystal_system       triclinic
_cell_length_a                    15.088425
_cell_length_b                    11.0974
_cell_length_c                    9.900837
_cell_angle_alpha                 112.454969
_cell_angle_beta                  98.51007
_cell_angle_gamma                 91.193404
_cell_volume                      1509.8182974

loop_
_atom_site_label
_atom_site_type_symbol
_atom_type_description
_atom_site_fract_x
_atom_site_fract_y
_atom_site_fract_z
_atom_type_partial_charge
C1    C     C_R   0.492232 0.252996 0.438280 0.534625
C2    C     C_2   0.489597 0.497058 0.920826 0.120660
C3    C     C_R   0.328743 0.499637 0.500761 0.539351
C4    C     C_R   0.671257 0.500363 0.499239 0.539349
C5    C     C_R   0.803748 0.521604 0.385597 -0.098042
C6    C     C_R   0.196252 0.478396 0.614403 -0.098039
C7    C     C_R   0.767958 0.500426 0.498224 -0.012152
C8    C     C_R   0.232041 0.499574 0.501776 -0.012151
C9    C     C_R   0.824693 0.479965 0.611349 -0.116283
C10   C     C_R   0.175307 0.520036 0.388652 -0.116287
C11   C     C_R   0.916974 0.478896 0.612107 -0.008284
C12   C     C_R   0.507768 0.747003 0.561720 0.534625
C13   C     C_R   0.083026 0.521104 0.387893 -0.008284
C14   C     C_R   0.953420 0.500494 0.499299 0.030095
C15   C     C_R   0.046580 0.499506 0.500701 0.030095
C16   C     C_R   0.896689 0.523207 0.385416 0.052677
C17   C     C_R   0.103311 0.476793 0.614584 0.052678
C18   C     C_R   0.972912 0.455596 0.723891 -0.104523
C19   C     C_R   0.027088 0.544405 0.276110 -0.104523
C20   C     C_R   0.065858 0.453294 0.725781 0.101910
C21   C     C_R   0.934142 0.546708 0.274220 0.101909
C22   C     C_2   0.482157 0.111119 0.399664 0.210647
C23   C     C_2   0.517843 0.888881 0.600336 0.210650
C24   C     C_2   0.508239 0.068045 0.508130 -0.103402
C25   C     C_2   0.491765 0.931955 0.491868 -0.103400
C26   C     C_2   0.510404 0.502940 0.079173 0.120659
Cu1   Cu    Cu3+1 0.515770 0.521810 0.644910 1.147714
Cu2   Cu    Cu3+1 0.484230 0.478190 0.355090 1.147715
H1    H     H_    0.758900 0.537988 0.299299 0.187486
H2    H     H_    0.570884 0.557481 0.151078 0.166511
H3    H     H_    0.085194 0.422717 0.919700 0.229209
H4    H     H_    0.143108 0.332461 0.789697 0.256001
H5    H     H_    0.914807 0.577290 0.080304 0.229211
H6    H     H_    0.856891 0.667541 0.210307 0.256000
H7    H     H_    0.606496 0.986785 0.998367 0.394439
H8    H     H_    0.393532 0.013197 0.001621 0.394453
H9    H     H_    0.751603 0.744109 0.927409 0.347379
H10   H     H_    0.248389 0.255918 0.072604 0.347379
H11   H     H_    0.241100 0.462011 0.700701 0.187488
H12   H     H_    0.796847 0.463070 0.698151 0.171103
H13   H     H_    0.203153 0.536931 0.301850 0.171100
H14   H     H_    0.944003 0.437877 0.809250 0.120223
H15   H     H_    0.055997 0.562126 0.190752 0.120222
H16   H     H_    0.456796 0.862412 0.386307 0.201253
H17   H     H_    0.543212 0.137587 0.613689 0.201250
H18   H     H_    0.429117 0.442515 0.848920 0.166512
N1    N     N_2   0.460520 0.445420 0.137370 -0.061760
N2    N     N_2   0.539480 0.554580 0.862630 -0.061757
N3    N     N_3   0.122010 0.426116 0.839472 -0.568323
N4    N     N_3   0.877990 0.573887 0.160530 -0.568323
O1    O     O_R   0.508410 0.332340 0.577400 -0.554618
O2    O     O_2   0.515877 0.111860 0.839170 -0.249435
O3    O     O_3   0.575746 0.920314 0.902458 -0.409276
O4    O     O_2   0.484123 0.888146 0.160825 -0.249441
O5    O     O_2   0.337372 0.958379 0.222286 -0.281096
O6    O     O_3   0.424239 0.079689 0.097546 -0.409260
O7    O     O_2   0.629857 0.738814 0.110456 -0.266729
O8    O     O_2   0.703277 0.540264 0.987530 -0.314977
O9    O     O_3   0.689673 0.714528 0.871747 -0.433182
O10   O     O_2   0.296725 0.459742 0.012468 -0.314983
O11   O     O_2   0.370141 0.261187 0.889545 -0.266715
O12   O     O_R   0.491590 0.667660 0.422600 -0.554618
O13   O     O_3   0.310323 0.285479 0.128253 -0.433163
O14   O     O_R   0.481780 0.295500 0.332650 -0.401020
O15   O     O_R   0.518220 0.704500 0.667350 -0.401018
O16   O     O_R   0.383570 0.518390 0.622380 -0.539151
O17   O     O_R   0.616430 0.481610 0.377620 -0.539154
O18   O     O_R   0.356940 0.481550 0.377630 -0.446264
O19   O     O_R   0.643060 0.518450 0.622370 -0.446262
O20   O     O_2   0.662628 0.041613 0.777723 -0.281118
S1    S     S_3+6 0.569339 0.995517 0.783125 0.041145
S2    S     S_3+6 0.430657 0.004484 0.216877 0.041160
S3    S     S_3+6 0.641949 0.637600 0.963156 0.116061
S4    S     S_3+6 0.358050 0.362403 0.036844 0.116069

loop_
_geom_bond_atom_site_label_1
_geom_bond_atom_site_label_2
_ccdc_geom_bond_type
Cu1   N2    S    
C9    H12   S    
C4    O17   A    
C5    C7    A    
C11   C18   A    
C15   C17   A    
C20   N3    S    
Cu1   O15   S    
O13   S4    S    
O11   S4    D    
H7    O3    S    
C12   O12   A    
C12   O15   A    
O9    S3    S    
C22   S2    S    
C18   C20   A    
O5    S2    D    
Cu1   O19   S    
C2    N2    D    
Cu2   O17   S    
C22   C24   D    
C23   C25   D    
C1    C22   S    
Cu2   N1    S    
O2    S1    D    
C2    H18   S    
C10   H13   S    
C9    C11   A    
C12   C23   S    
H9    O9    S    
C26   N1    D    
H3    N3    S    
C4    C7    S    
H8    O6    S    
C24   H17   S    
Cu2   O14   S    
C25   H16   S    
O10   S4    D    
C4    O19   A    
C19   C21   A    
Cu1   O1    S    
C26   H2    S    
C5    H1    S    
C6    H11   S    
C13   C15   A    
Cu1   O16   S    
C11   C14   A    
C14   C16   A    
H4    N3    S    
H6    N4    S    
O20   S1    D    
Cu2   O12   S    
C13   C19   A    
C3    O16   A    
C1    O14   A    
C23   S1    S    
C17   C20   A    
O4    S2    D    
C24   C25   S    
O8    S3    D    
C2    C26   S    
C3    C8    S    
O7    S3    D    
Cu1   Cu2   S    
C7    C9    A    
C6    C17   A    
C14   C15   A    
C21   N4    S    
C5    C16   A    
C6    C8    A    
C1    O1    A    
C18   H14   S    
Cu2   O18   S    
H5    N4    S    
H10   O13   S    
C16   C21   A    
N2    S3    S    
C8    C10   A    
C3    O18   A    
N1    S4    S    
C19   H15   S    
O6    S2    S    
C10   C13   A    
O3    S1    S    
