data_mof_unit_14708.cif
_audit_creation_date              2013-03-05T15:49:32-0500
_audit_creation_method            fapswitch 2.2
_symmetry_space_group_name_H-M    P1
_symmetry_Int_Tables_number       1
_space_group_crystal_system       triclinic
_cell_length_a                    25.231139
_cell_length_b                    7.226744
_cell_length_c                    21.717156
_cell_angle_alpha                 91.347369
_cell_angle_beta                  110.183493
_cell_angle_gamma                 90.053891
_cell_volume                      3715.51681222

loop_
_atom_site_label
_atom_site_type_symbol
_atom_site_description
_atom_site_fract_x
_atom_site_fract_y
_atom_site_fract_z
_atom_type_partial_charge
O1    O     O_R   0.554350 0.505270 0.581390 -0.557263
O2    O     O_R   0.445650 0.005270 0.418610 -0.582113
O3    O     O_R   0.553380 0.177580 0.454800 -0.580885
O4    O     O_R   0.446620 0.677580 0.545200 -0.534977
C1    C     C_R   0.566179 0.343954 0.438621 1.075067
C2    C     C_R   0.431569 0.846580 0.558928 1.033697
O5    O     O_R   0.560970 0.175640 0.583140 -0.593909
O6    O     O_R   0.439030 0.675640 0.416860 -0.555025
O7    O     O_R   0.453290 0.004120 0.547860 -0.564704
O8    O     O_R   0.546710 0.504120 0.452140 -0.537691
C3    C     C_R   0.576788 0.346085 0.607725 1.013317
C4    C     C_R   0.424044 0.841353 0.391549 1.029135
O9    O     O_3   0.464660 0.338800 0.488280 -0.253431
O10   O     O_3   0.535340 0.838800 0.511720 -0.269842
V1    V     V_3+5 0.506560 0.064420 0.502170 1.318023
V2    V     V_3+5 0.493440 0.564420 0.497830 1.374171
C5    C     C_R   0.153540 0.052808 0.287800 0.360169
C6    C     C_R   0.855656 0.334799 0.710973 0.353487
H1    H     H_    0.068245 0.075451 0.221327 0.160121
H2    H     H_    0.940772 0.355877 0.779057 0.168302
H3    H     H_    0.246022 0.103126 0.396290 0.199070
H4    H     H_    0.767508 0.277132 0.598020 0.185956
C7    C     C_R   0.121536 0.952452 0.173273 -0.183493
C8    C     C_R   0.880821 0.427554 0.825714 -0.186108
C9    C     C_R   0.391157 0.741515 0.273662 0.228110
C10   C     C_R   0.604278 0.376217 0.729508 0.193936
C11   C     C_R   0.347380 0.679676 0.217157 0.217482
C12   C     C_R   0.644005 0.380765 0.793300 0.229292
C13   C     C_R   0.290726 0.717592 0.208888 0.189905
C14   C     C_R   0.702046 0.371720 0.803964 0.192146
C15   C     C_R   0.277496 0.839301 0.254116 -0.066861
C16   C     C_R   0.721546 0.373634 0.749633 -0.080647
C17   C     C_R   0.322108 0.888752 0.314316 0.048715
C18   C     C_R   0.680414 0.353096 0.684837 0.036702
C19   C     C_R   0.221129 0.906252 0.243309 0.130881
C20   C     C_R   0.780539 0.386112 0.757316 0.124326
C21   C     C_R   0.209258 0.996024 0.296125 0.010080
C22   C     C_R   0.797484 0.343017 0.702587 0.008042
C23   C     C_R   0.253383 0.032441 0.355591 -0.085120
C24   C     C_R   0.756171 0.308854 0.640752 -0.106113
C25   C     C_R   0.308681 0.985143 0.363741 -0.042361
C26   C     C_R   0.698990 0.318318 0.631834 -0.046277
C27   C     C_R   0.176760 0.896494 0.181016 -0.106025
C28   C     C_R   0.823347 0.443868 0.817053 -0.136892
C29   C     C_R   0.110473 0.028821 0.227099 -0.185812
C30   C     C_R   0.896449 0.370710 0.772625 -0.204534
C31   C     C_R   0.378932 0.834522 0.324967 -0.356485
C32   C     C_R   0.621500 0.360136 0.674592 -0.370322
H5    H     H_    0.184661 0.857643 0.136838 0.158156
H6    H     H_    0.813370 0.502730 0.857659 0.165516
H7    H     H_    0.340899 0.022709 0.410122 0.135158
H8    H     H_    0.669195 0.291456 0.582912 0.119086
C33   C     C_R   0.090932 0.783662 0.849083 -0.211115
C34   C     C_R   0.901683 0.301571 0.145867 -0.214268
H9    H     H_    0.057414 0.684439 0.844233 0.169208
H10   H     H_    0.934891 0.200663 0.153140 0.170054
C35   C     C_R   0.124175 0.761033 0.809233 0.363773
C36   C     C_R   0.865582 0.290125 0.182622 0.368489
C37   C     C_R   0.168689 0.888755 0.815496 -0.227791
C38   C     C_R   0.821692 0.421290 0.173109 -0.234469
C39   C     C_R   0.178112 0.039182 0.861845 0.374455
C40   C     C_R   0.815134 0.562086 0.126365 0.370873
C41   C     C_R   0.143738 0.057472 0.900901 -0.210693
C42   C     C_R   0.852346 0.569479 0.090686 -0.177014
H11   H     H_    0.150910 0.171955 0.936013 0.187568
H12   H     H_    0.847501 0.677135 0.055324 0.184718
C43   C     C_R   0.100442 0.929936 0.895306 -0.208645
C44   C     C_R   0.895568 0.440108 0.099913 -0.211195
N1    N     N_R   0.262167 0.861632 0.802805 -0.005433
N2    N     N_R   0.727456 0.373040 0.181661 0.010995
N3    N     N_R   0.294843 0.844072 0.766147 -0.021208
N4    N     N_R   0.693416 0.358262 0.216661 0.014635
C45   C     C_R   0.271857 0.825131 0.699743 0.254754
C46   C     C_R   0.713885 0.379764 0.283124 0.255128
N5    N     N_R   0.214693 0.827145 0.671385 0.001740
N6    N     N_R   0.769697 0.420032 0.312993 -0.039110
N7    N     N_R   0.181956 0.845674 0.708045 -0.001674
N8    N     N_R   0.803815 0.434056 0.278073 -0.016256
C47   C     C_R   0.205047 0.864265 0.774506 0.305399
C48   C     C_R   0.783371 0.410528 0.211738 0.317237
C49   C     C_R   0.305185 0.700287 0.608443 0.287629
C50   C     C_R   0.635838 0.221337 0.311941 0.274877
C51   C     C_R   0.342410 0.714899 0.572029 0.293866
C52   C     C_R   0.600108 0.215694 0.349699 0.295395
C53   C     C_R   0.384982 0.857292 0.588302 -0.468270
C54   C     C_R   0.605103 0.351230 0.399877 -0.468347
C55   C     C_R   0.382366 0.000366 0.634029 0.362849
C56   C     C_R   0.646382 0.494415 0.410780 0.375206
C57   C     C_R   0.346595 0.977082 0.670514 -0.191283
C58   C     C_R   0.680780 0.499024 0.371829 -0.196917
H13   H     H_    0.345708 0.082258 0.706541 0.207439
H14   H     H_    0.712024 0.608655 0.380390 0.197140
C59   C     C_R   0.308964 0.829200 0.659402 -0.108271
C60   C     C_R   0.676056 0.365271 0.322457 -0.104379
O11   O     O_R   0.953220 0.285790 0.047790 -0.585410
O12   O     O_R   0.046780 0.785790 0.952210 -0.590097
O13   O     O_R   0.939020 0.617570 0.916840 -0.584707
O14   O     O_R   0.060980 0.117570 0.083160 -0.577551
C61   C     C_R   0.924586 0.446414 0.891744 0.946921
C62   C     C_R   0.076266 0.950869 0.107850 0.938546
O15   O     O_R   0.946600 0.615450 0.045180 -0.594407
O16   O     O_R   0.053400 0.115450 0.954820 -0.590478
O17   O     O_R   0.054370 0.786770 0.081410 -0.566847
O18   O     O_R   0.945630 0.286770 0.918590 -0.574475
C63   C     C_R   0.934347 0.447894 0.061652 0.978912
C64   C     C_R   0.064794 0.945666 0.937297 0.967382
O19   O     O_3   0.035300 0.454160 0.011680 -0.270885
O20   O     O_3   0.964700 0.954160 0.988320 -0.276602
V3    V     V_3+5 0.993450 0.728620 0.997830 1.218594
V4    V     V_3+5 0.006550 0.228620 0.002170 1.226927
N9    N     N_R   0.112770 0.604580 0.764096 0.245616
O21   O     O_R   0.153920 0.510428 0.756099 -0.320609
O22   O     O_R   0.061438 0.540758 0.737456 -0.343684
N10   N     N_R   0.873764 0.142419 0.228394 0.245809
O23   O     O_R   0.830864 0.061632 0.237061 -0.331680
O24   O     O_R   0.923813 0.073644 0.256043 -0.346801
N11   N     N_R   0.221479 0.176630 0.869360 0.252636
O25   O     O_R   0.233138 0.231939 0.818851 -0.326414
O26   O     O_R   0.244851 0.263176 0.925532 -0.309422
N12   N     N_R   0.771702 0.699974 0.114827 0.255862
O27   O     O_R   0.755004 0.759944 0.162013 -0.318744
O28   O     O_R   0.752557 0.780017 0.058417 -0.295312
Br1   Br    Br    0.248249 0.507707 0.588729 -0.329490
Br2   Br    Br    0.629443 0.027877 0.246912 -0.292746
N13   N     N_R   0.333169 0.599129 0.514159 0.269035
O29   O     O_R   0.332697 0.672471 0.459882 -0.439526
O30   O     O_R   0.320846 0.424182 0.513317 -0.301851
N14   N     N_R   0.556746 0.076354 0.334608 0.270375
O31   O     O_R   0.503867 0.123618 0.314081 -0.326818
O32   O     O_R   0.570055 0.903128 0.344796 -0.297068
N15   N     N_R   0.412002 0.175336 0.642693 0.265528
O33   O     O_R   0.413837 0.262809 0.591950 -0.311886
O34   O     O_R   0.418750 0.274382 0.695763 -0.291393
N16   N     N_R   0.655029 0.634989 0.461542 0.257678
O35   O     O_R   0.672102 0.799906 0.453695 -0.352510
O36   O     O_R   0.654826 0.592265 0.519261 -0.439727
Br3   Br    Br    0.133184 0.168525 0.357057 -0.376812
Br4   Br    Br    0.882668 0.268439 0.640835 -0.404099
N17   N     N_R   0.448319 0.699382 0.280137 0.269342
O37   O     O_R   0.473095 0.559312 0.314620 -0.345893
O38   O     O_R   0.469828 0.769712 0.239301 -0.230479
N18   N     N_R   0.545762 0.364220 0.721095 0.263893
O39   O     O_R   0.527278 0.222926 0.744008 -0.290274
O40   O     O_R   0.511446 0.495130 0.692253 -0.325397
N19   N     N_R   0.247695 0.608222 0.161142 0.243467
O41   O     O_R   0.214830 0.501390 0.179821 -0.376729
O42   O     O_R   0.241678 0.612560 0.099207 -0.328737
N20   N     N_R   0.739114 0.327619 0.868590 0.246332
O43   O     O_R   0.766827 0.172953 0.878010 -0.360245
O44   O     O_R   0.744698 0.439716 0.918288 -0.331769
Br5   Br    Br    0.365512 0.516911 0.155614 -0.210862
Br6   Br    Br    0.617881 0.389010 0.867115 -0.192665

loop_
_geom_bond_atom_site_label_1
_geom_bond_atom_site_label_2
_geom_bond_distance
_ccdc_geom_bond_type
C52   N14   1.432955 S    
C14   C16   1.426832 A    
C41   H11   1.083287 S    
C50   C60   1.410925 A    
C11   C13   1.405915 A    
C8    C61   1.480558 S    
C46   C60   1.489384 S    
N9    O21   1.300518 A    
O1    C3    1.334062 A    
C45   C59   1.487317 S    
O2    C4    1.338200 A    
N14   O31   1.301173 A    
C2    O7    1.325489 A    
N19   O41   1.301496 A    
C23   C25   1.388569 A    
O5    C3    1.335177 A    
C2    C53   1.519809 S    
C46   N6    1.359609 A    
C49   Br1   1.930741 S    
O14   V4    2.006325 S    
C42   C44   1.401243 A    
C19   C21   1.424316 A    
C5    C29   1.396073 A    
N11   O26   1.301575 A    
C13   N19   1.435835 S    
C54   C56   1.424024 A    
C35   C37   1.420785 A    
C34   C44   1.401135 A    
O15   V3    2.000032 S    
C7    C27   1.405652 A    
O20   V3    1.772051 S    
O13   V3    1.971910 S    
C38   C40   1.423429 A    
C55   N15   1.443383 S    
N1    N3    1.333412 A    
C40   C42   1.410209 A    
O11   C63   1.331589 A    
O13   C61   1.337939 A    
C18   C26   1.402407 A    
C15   C17   1.437259 A    
O16   C64   1.336843 A    
C57   H13   1.083748 S    
C19   C27   1.427810 A    
C9    C31   1.410901 A    
C40   N12   1.442548 S    
C20   C28   1.424987 A    
C10   C32   1.405660 A    
C24   C26   1.389851 A    
C7    C62   1.484186 S    
O6    V2    2.006369 S    
C22   C24   1.403132 A    
C45   N5    1.359146 A    
C3    C32   1.501386 S    
C7    C29   1.394292 A    
C51   N13   1.442845 S    
C4    C31   1.499876 S    
C6    C30   1.396983 A    
C50   Br2   1.929924 S    
N19   O42   1.301658 A    
N12   O28   1.301623 A    
C58   C60   1.400374 A    
C34   H10   1.083522 S    
C33   H9    1.083654 S    
O15   C63   1.336325 A    
C41   C43   1.399578 A    
C37   C39   1.426329 A    
N2    N4    1.334531 A    
C53   C55   1.434114 A    
N2    C48   1.358470 A    
N20   O43   1.301385 A    
N4    C46   1.359838 A    
N10   O23   1.300939 A    
C37   C47   1.490530 S    
N3    C45   1.359470 A    
C33   C35   1.404894 A    
C27   H5    1.076334 S    
N16   O36   1.299714 A    
O3    C1    1.330725 A    
C39   N11   1.441407 S    
C62   O17   1.337584 A    
C42   H12   1.083273 S    
O4    V2    1.980769 S    
C49   C59   1.407235 A    
C58   H14   1.083732 S    
H3    C23   1.081159 S    
O6    C4    1.329535 A    
H4    C24   1.081158 S    
C39   C41   1.411269 A    
N7    C47   1.360594 A    
N9    O22   1.301597 A    
O1    V2    1.987686 S    
C5    C21   1.416549 A    
O2    V1    1.968621 S    
N5    N7    1.335296 A    
C1    C54   1.499138 S    
N20   O44   1.301810 A    
O4    C2    1.336635 A    
C51   C53   1.434045 A    
C6    Br4   1.922825 S    
C12   Br6   1.931977 S    
C50   C52   1.413660 A    
C55   C57   1.403657 A    
N13   O29   1.300077 A    
C17   C31   1.427996 A    
O19   V4    1.761833 S    
N18   O40   1.300834 A    
N1    C47   1.358122 A    
C18   C32   1.426222 A    
C44   C63   1.487966 S    
N15   O33   1.297701 A    
C16   C20   1.441923 A    
O3    V1    1.999735 S    
N12   O27   1.301067 A    
N13   O30   1.299893 A    
C34   C36   1.406539 A    
C28   H6    1.075996 S    
O12   C64   1.328369 A    
C38   C48   1.485709 S    
C11   Br5   1.930849 S    
C9    N17   1.433709 S    
O10   V1    1.772861 S    
C10   C12   1.401663 A    
N6    N8    1.334302 A    
N15   O34   1.302017 A    
O11   V4    1.965845 S    
N14   O32   1.300549 A    
C49   C51   1.426495 A    
N10   O24   1.301609 A    
N17   O37   1.300017 A    
H1    C29   1.083942 S    
C43   C64   1.488243 S    
C14   N20   1.435929 S    
N16   O35   1.301634 A    
C9    C11   1.401264 A    
O12   V3    1.975084 S    
O14   C62   1.332714 A    
O17   V3    1.967622 S    
C8    C30   1.394730 A    
C12   C14   1.403327 A    
C56   C58   1.406331 A    
C6    C22   1.416754 A    
C17   C25   1.402990 A    
C1    O8    1.323584 A    
C13   C15   1.426896 A    
O8    V2    1.970291 S    
N11   O25   1.301004 A    
C20   C22   1.423374 A    
O18   V4    1.986383 S    
N17   O38   1.300835 A    
C35   N9    1.440355 S    
C8    C28   1.401899 A    
C15   C19   1.445031 A    
O5    V1    1.971910 S    
C61   O18   1.331185 A    
N8    C48   1.358634 A    
C57   C59   1.389144 A    
C33   C43   1.402175 A    
O16   V4    1.981077 S    
C56   N16   1.440798 S    
C21   C23   1.402818 A    
O9    V2    1.762605 S    
C26   H8    1.081883 S    
C36   N10   1.441822 S    
N18   O39   1.300335 A    
C52   C54   1.420412 A    
C5    Br3   1.923558 S    
C10   N18   1.426040 S    
C36   C38   1.421547 A    
C25   H7    1.082033 S    
H2    C30   1.083851 S    
O7    V1    1.980027 S    
C16   C18   1.435756 A    
