data_mof_unit_13123.cif
_audit_creation_date              2013-03-05T15:52:20-0500
_audit_creation_method            fapswitch 2.2
_symmetry_space_group_name_H-M    P1
_symmetry_Int_Tables_number       1
_space_group_crystal_system       triclinic
_cell_length_a                    14.822076
_cell_length_b                    15.741437
_cell_length_c                    10.188923
_cell_angle_alpha                 89.557044
_cell_angle_beta                  88.408102
_cell_angle_gamma                 89.978178
_cell_volume                      2376.29886133

loop_
_atom_site_label
_atom_site_type_symbol
_atom_site_description
_atom_site_fract_x
_atom_site_fract_y
_atom_site_fract_z
_atom_type_partial_charge
O1    O     O_R   0.408390 0.908380 0.614690 -0.634814
O2    O     O_R   0.408390 0.091620 0.614690 -0.625839
O3    O     O_R   0.908390 0.408380 0.614690 -0.633421
O4    O     O_R   0.908390 0.591620 0.614690 -0.645981
O5    O     O_R   0.408370 0.908380 0.385360 -0.614851
O6    O     O_R   0.408370 0.091620 0.385360 -0.606546
O7    O     O_R   0.908370 0.408380 0.385360 -0.615679
O8    O     O_R   0.908370 0.591620 0.385360 -0.564550
C1    C     C_R   0.381693 0.878177 0.502046 0.867087
C2    C     C_R   0.382088 0.122304 0.502128 0.885576
C3    C     C_R   0.887145 0.375429 0.502039 0.876829
C4    C     C_R   0.886016 0.625412 0.501190 0.901530
Zn1   Zn    Zn3+2 0.500010 0.000000 0.653130 0.981532
Zn2   Zn    Zn3+2 0.000010 0.500000 0.653130 0.962766
Zn3   Zn    Zn3+2 0.499980 0.000000 0.346870 0.979594
Zn4   Zn    Zn3+2 0.999980 0.500000 0.346870 0.979900
O9    O     O_R   0.591620 0.091610 0.614640 -0.596659
O10   O     O_R   0.591620 0.908390 0.614640 -0.600514
O11   O     O_R   0.091620 0.591610 0.614640 -0.609498
O12   O     O_R   0.091620 0.408390 0.614640 -0.602577
O13   O     O_R   0.591610 0.091610 0.385310 -0.602059
O14   O     O_R   0.591610 0.908390 0.385310 -0.634451
O15   O     O_R   0.091610 0.591610 0.385310 -0.624886
O16   O     O_R   0.091610 0.408390 0.385310 -0.635052
C5    C     C_R   0.620604 0.119579 0.498560 0.908965
C6    C     C_R   0.612147 0.874214 0.499544 0.895892
C7    C     C_R   0.111162 0.626300 0.498622 0.882778
C8    C     C_R   0.110999 0.373946 0.498478 0.887226
H1    H     H_    0.304003 0.189069 0.299002 0.228086
H2    H     H_    0.295102 0.824949 0.296032 0.229061
H3    H     H_    0.815918 0.701589 0.293601 0.249380
H4    H     H_    0.868058 0.260734 0.310482 0.196476
C9    C     C_R   0.303414 0.221470 0.750430 -0.193184
C10   C     C_R   0.298831 0.797334 0.752637 -0.183000
C11   C     C_R   0.824746 0.726952 0.744432 -0.206039
C12   C     C_R   0.826899 0.275475 0.749987 -0.169683
H5    H     H_    0.371273 0.203280 0.769481 0.249157
H6    H     H_    0.366025 0.816957 0.773544 0.256513
H7    H     H_    0.894949 0.711689 0.754007 0.227306
H8    H     H_    0.893132 0.300499 0.765642 0.221928
C13   C     C_R   0.251422 0.259669 0.852093 0.290538
C14   C     C_R   0.239055 0.790533 0.860372 0.245555
C15   C     C_R   0.771884 0.730520 0.859427 0.245859
C16   C     C_R   0.783811 0.233654 0.855504 0.299171
C17   C     C_R   0.677156 0.729802 0.850419 0.091427
C18   C     C_R   0.692021 0.212831 0.846038 0.079562
C19   C     C_R   0.157058 0.265077 0.839626 0.096306
C20   C     C_R   0.146354 0.778568 0.839295 0.097942
C21   C     C_R   0.639824 0.750649 0.728781 0.267316
C22   C     C_R   0.651874 0.225991 0.725075 0.264100
C23   C     C_R   0.122991 0.251336 0.716125 0.239534
C24   C     C_R   0.119694 0.761118 0.711256 0.232518
C25   C     C_R   0.697519 0.764058 0.618474 -0.037102
C26   C     C_R   0.707222 0.231285 0.612416 -0.044125
C27   C     C_R   0.182790 0.253403 0.609738 -0.026998
C28   C     C_R   0.185649 0.742814 0.615011 -0.020689
C29   C     C_R   0.268057 0.217971 0.623281 0.001707
C30   C     C_R   0.269091 0.782676 0.624458 0.029236
C31   C     C_R   0.784655 0.730734 0.621832 0.033945
C32   C     C_R   0.789119 0.272616 0.624514 0.026583
C33   C     C_R   0.312291 0.188548 0.506854 -0.093183
C34   C     C_R   0.311465 0.812673 0.505748 -0.095482
C35   C     C_R   0.824210 0.699225 0.503725 -0.102645
C36   C     C_R   0.833927 0.298579 0.508311 -0.096978
C37   C     C_R   0.276880 0.212869 0.387047 -0.165639
C38   C     C_R   0.271034 0.794899 0.385707 -0.180022
C39   C     C_R   0.786007 0.722575 0.384993 -0.126274
C40   C     C_R   0.823787 0.250475 0.395645 -0.185523
C41   C     C_R   0.703474 0.764097 0.382799 0.172473
C42   C     C_R   0.758693 0.186907 0.394704 0.168099
C43   C     C_R   0.203995 0.266354 0.377431 0.174555
C44   C     C_R   0.194774 0.744048 0.380765 0.184671
C45   C     C_R   0.666758 0.796422 0.499575 -0.075276
C46   C     C_R   0.692143 0.184009 0.497398 -0.088259
C47   C     C_R   0.162071 0.294512 0.493397 -0.085714
C48   C     C_R   0.162246 0.706233 0.496668 -0.080079
C49   C     C_R   0.370811 0.078401 0.140011 0.269720
C50   C     C_R   0.842761 0.455304 0.148082 0.311442
C51   C     C_R   0.279802 0.071137 0.119178 0.090274
C52   C     C_R   0.779814 0.403210 0.091049 0.131815
C53   C     C_R   0.254157 0.051407 0.992572 0.177687
C54   C     C_R   0.766009 0.417049 0.957141 0.147078
C55   C     C_R   0.322645 0.028692 0.894787 0.150093
C56   C     C_R   0.833315 0.462118 0.882243 0.113784
C57   C     C_R   0.418321 0.016556 0.934950 0.111690
C58   C     C_R   0.921182 0.477790 0.934782 0.056259
C59   C     C_R   0.426301 0.024301 0.075544 0.044875
C60   C     C_R   0.922329 0.478595 0.076993 0.041235
N1    N     N_R   0.498810 0.000000 0.142780 -0.098393
N2    N     N_R   0.998810 0.500000 0.142780 -0.103885
C61   C     C_R   0.574277 0.978853 0.065403 0.218901
C62   C     C_R   0.075955 0.514635 0.065368 0.194771
H9    H     H_    0.634776 0.963809 0.868982 0.170355
H10   H     H_    0.136409 0.530169 0.868915 0.173781
C63   C     C_R   0.573587 0.978904 0.924546 -0.095795
C64   C     C_R   0.074563 0.517247 0.924565 -0.078925
N3    N     N_R   0.498740 0.000000 0.857170 -0.117730
N4    N     N_R   0.998740 0.500000 0.857170 -0.122411
C65   C     C_3   0.152841 0.050877 0.966239 -0.789391
H11   H     H_    0.110471 0.074764 0.049183 0.248210
H12   H     H_    0.136735 0.093166 0.883248 0.264545
H13   H     H_    0.129907 0.985524 0.945449 0.258355
C66   C     C_3   0.670965 0.408319 0.905974 -0.775370
H14   H     H_    0.672230 0.401830 0.797562 0.253890
H15   H     H_    0.634565 0.353316 0.947798 0.269442
H16   H     H_    0.630428 0.465027 0.933930 0.254073
C67   C     C_3   0.277454 0.008794 0.767788 -0.764875
H17   H     H_    0.316073 0.995809 0.685161 0.280572
H18   H     H_    0.230953 0.954341 0.780568 0.238616
H19   H     H_    0.237618 0.063572 0.733899 0.219152
C68   C     C_3   0.795759 0.525431 0.790646 -0.701164
H20   H     H_    0.790385 0.500644 0.690000 0.259660
H21   H     H_    0.728263 0.549655 0.821126 0.220152
H22   H     H_    0.837198 0.580793 0.804142 0.265349
Br1   Br    Br    0.311689 0.326509 0.977595 -0.487091
Br2   Br    Br    0.286580 0.817914 0.026509 -0.629222
Br3   Br    Br    0.834092 0.718770 0.020208 -0.606572
Br4   Br    Br    0.853544 0.208091 0.005475 -0.628545
C69   C     C_3   0.617382 0.696780 0.960941 -0.800676
H23   H     H_    0.656907 0.662554 0.034985 0.276935
H24   H     H_    0.578143 0.749859 0.005502 0.262652
H25   H     H_    0.569929 0.648309 0.924789 0.274864
C70   C     C_3   0.637856 0.176972 0.959255 -0.761705
H26   H     H_    0.675263 0.123783 0.001846 0.241188
H27   H     H_    0.624173 0.224662 0.035546 0.261131
H28   H     H_    0.572010 0.152935 0.926818 0.278358
C71   C     C_3   0.093486 0.288151 0.950469 -0.797837
H29   H     H_    0.084815 0.232977 0.017637 0.258510
H30   H     H_    0.118710 0.344174 0.002731 0.248550
H31   H     H_    0.026024 0.305570 0.914035 0.267793
C72   C     C_3   0.077094 0.786402 0.948848 -0.759955
H32   H     H_    0.088485 0.844784 0.006097 0.250749
H33   H     H_    0.007547 0.789250 0.912367 0.289773
H34   H     H_    0.080610 0.729338 0.012456 0.247410
Br5   Br    Br    0.514415 0.729937 0.699340 -0.537538
Br6   Br    Br    0.530827 0.265353 0.713496 -0.507845
Br7   Br    Br    0.016497 0.185796 0.693037 -0.536564
Br8   Br    Br    0.013955 0.815536 0.645253 -0.555547
C73   C     C_3   0.646131 0.749781 0.266561 -0.817641
H35   H     H_    0.579834 0.782037 0.270705 0.264780
H36   H     H_    0.684565 0.768754 0.177734 0.263441
H37   H     H_    0.631191 0.680886 0.260800 0.274908
C74   C     C_3   0.768350 0.119010 0.293301 -0.812433
H38   H     H_    0.715414 0.127038 0.219893 0.265708
H39   H     H_    0.835613 0.120954 0.243169 0.279482
H40   H     H_    0.764244 0.055922 0.342349 0.229507
C75   C     C_3   0.168942 0.285110 0.243849 -0.816040
H41   H     H_    0.094367 0.277881 0.244750 0.244626
H42   H     H_    0.189165 0.349988 0.213191 0.282812
H43   H     H_    0.197066 0.240338 0.169995 0.259194
C76   C     C_3   0.140357 0.746192 0.259334 -0.788281
H44   H     H_    0.069990 0.723941 0.276328 0.260856
H45   H     H_    0.134752 0.812893 0.224401 0.250006
H46   H     H_    0.174723 0.707751 0.183453 0.263311
C77   C     C_3   0.663901 0.962849 0.123900 -0.846000
H47   H     H_    0.681024 0.895450 0.114958 0.251654
H48   H     H_    0.718263 0.997985 0.070001 0.228913
H49   H     H_    0.664837 0.983819 0.225609 0.289918
C78   C     C_3   0.167256 0.520707 0.123790 -0.825526
H50   H     H_    0.166087 0.508078 0.229875 0.294141
H51   H     H_    0.212315 0.472542 0.078171 0.250252
H52   H     H_    0.197677 0.583323 0.101275 0.237517
Br9   Br    Br    0.431672 0.186885 0.132056 -0.495480
Br10  Br    Br    0.771498 0.541859 0.229466 -0.534552
C79   C     C_3   0.218315 0.047532 0.235170 -0.867148
H53   H     H_    0.256109 0.037747 0.326352 0.247426
H54   H     H_    0.166715 0.097424 0.252945 0.248019
H55   H     H_    0.183692 0.986321 0.216696 0.264668
C80   C     C_3   0.710207 0.359283 0.179918 -0.770835
H56   H     H_    0.723534 0.370361 0.284960 0.256314
H57   H     H_    0.641048 0.383392 0.163754 0.268942
H58   H     H_    0.713526 0.290137 0.165009 0.255481

loop_
_geom_bond_atom_site_label_1
_geom_bond_atom_site_label_2
_geom_bond_distance
_ccdc_geom_bond_type
C30   C34   1.424635 A    
C74   H40   1.109222 S    
C43   C75   1.497514 S    
C50   Br10  1.904587 S    
C79   H53   1.107834 S    
C28   C48   1.392830 A    
C77   H48   1.108066 S    
C80   H57   1.109090 S    
C80   H56   1.108856 S    
C68   H20   1.104961 S    
O10   C6    1.321747 A    
O3    C3    1.309601 A    
C44   C48   1.392516 A    
C72   H34   1.105653 S    
C50   C52   1.385174 A    
C25   C31   1.395004 A    
C70   H26   1.097339 S    
C26   C32   1.386419 A    
C49   Br9   1.931715 S    
O7    C3    1.323306 A    
C42   C74   1.496332 S    
C22   C26   1.394210 A    
Zn1   O10   2.013653 S    
C62   C78   1.496841 S    
Zn4   N2    2.080011 S    
C36   C40   1.391714 A    
C75   H42   1.104774 S    
C56   C58   1.443825 A    
C73   H37   1.109290 S    
C58   C60   1.449695 A    
C70   H27   1.099586 S    
C74   H38   1.105484 S    
C62   C64   1.435628 A    
C6    C45   1.467647 S    
C11   C31   1.398975 A    
C5    C46   1.467333 S    
C76   H46   1.099317 S    
O2    Zn1   2.024084 S    
O6    Zn3   2.013766 S    
C26   C46   1.416099 A    
Zn3   O14   2.024073 S    
C38   C44   1.387596 A    
C75   H41   1.111014 S    
C28   C30   1.393115 A    
C10   C14   1.394865 A    
C42   C46   1.418395 A    
C24   Br8   1.921210 S    
C54   C66   1.522267 S    
C78   H51   1.106686 S    
C20   C72   1.501125 S    
C41   C45   1.394250 A    
O15   C7    1.320446 A    
N1    C61   1.392251 A    
C11   C15   1.392788 A    
H4    C40   1.084374 S    
C27   C47   1.387959 A    
C17   C69   1.503046 S    
C49   C51   1.376285 A    
C21   Br5   1.919493 S    
C76   H44   1.108963 S    
Zn4   O16   2.024073 S    
C77   H49   1.090495 S    
O4    Zn2   2.024084 S    
C67   H18   1.104746 S    
C68   H22   1.078226 S    
C79   H54   1.108438 S    
C52   C80   1.517046 S    
C13   Br1   1.903982 S    
C53   C55   1.449149 A    
C16   C18   1.405660 A    
Zn2   N4    2.078510 S    
C69   H24   1.110574 S    
C73   H35   1.105833 S    
C35   C39   1.396525 A    
C56   C68   1.479262 S    
C34   C38   1.406940 A    
C57   C59   1.446731 A    
C1    C34   1.464999 S    
Zn2   O12   2.013653 S    
C12   H8    1.074397 S    
C75   H43   1.107825 S    
O1    C1    1.316700 A    
C68   H21   1.107698 S    
C3    C36   1.444469 S    
C51   C53   1.392306 A    
C4    C35   1.479289 S    
C70   H28   1.106821 S    
C19   C23   1.387370 A    
O12   C8    1.329744 A    
C12   C32   1.410913 A    
C37   C43   1.374564 A    
C9    H5    1.068220 S    
C64   N4    1.361712 A    
C39   C41   1.387406 A    
C11   H7    1.074752 S    
C71   H30   1.104355 S    
O5    C1    1.327089 A    
C33   C37   1.392974 A    
Zn3   N1    2.080011 S    
N2    C62   1.389230 A    
C78   H50   1.097165 S    
C16   Br4   1.908685 S    
O8    C4    1.331698 A    
C44   C76   1.495756 S    
C17   C21   1.407679 A    
C13   C19   1.410416 A    
C78   H52   1.103884 S    
C41   C73   1.495343 S    
C66   H15   1.097362 S    
C14   C20   1.409514 A    
C51   C79   1.516245 S    
H10   C64   1.082907 S    
C15   C17   1.409662 A    
H2    C38   1.077581 S    
O3    Zn2   2.029131 S    
C15   Br3   1.909747 S    
H1    C37   1.044889 S    
C23   Br7   1.907062 S    
C52   C54   1.400615 A    
O7    Zn4   2.010162 S    
C65   H12   1.103421 S    
C60   N2    1.376195 A    
Zn4   O15   2.029117 S    
C54   C56   1.425066 A    
C59   N1    1.344341 A    
C80   H58   1.101064 S    
C18   C70   1.494227 S    
C12   C16   1.395834 A    
C2    C33   1.468727 S    
O4    C4    1.319829 A    
C61   C77   1.491581 S    
C67   H17   1.026652 S    
C7    C48   1.468471 S    
O2    C2    1.310247 A    
C66   H14   1.109747 S    
O11   C7    1.323088 A    
C69   H25   1.109818 S    
C50   C60   1.413756 A    
C74   H39   1.107844 S    
O13   C5    1.321194 A    
C9    C29   1.412397 A    
C55   C57   1.498610 A    
C10   H6    1.070397 S    
Zn2   O11   2.010047 S    
C25   C45   1.398576 A    
O16   C8    1.309485 A    
C72   H33   1.106244 S    
O6    C2    1.335487 A    
C69   H23   1.104830 S    
C63   N3    1.360439 A    
C29   C33   1.420090 A    
C79   H55   1.111643 S    
C53   C65   1.532857 S    
C18   C22   1.397400 A    
C31   C35   1.416929 A    
C65   H11   1.106912 S    
Zn1   O9    2.010047 S    
C32   C36   1.399621 A    
C9    C13   1.411846 A    
C27   C29   1.391175 A    
C71   H31   1.109812 S    
O9    C5    1.319515 A    
C22   Br6   1.904383 S    
C43   C47   1.394922 A    
C73   H36   1.095508 S    
H9    C63   1.083010 S    
Zn3   O13   2.029117 S    
C19   C71   1.497415 S    
C21   C25   1.407880 A    
C14   Br2   1.903994 S    
C67   H19   1.103500 S    
C55   C67   1.508559 S    
C66   H16   1.110403 S    
C23   C27   1.381217 A    
C76   H45   1.109872 S    
Zn1   N3    2.078510 S    
C72   H32   1.107801 S    
C58   N4    1.419369 A    
O5    Zn3   2.010162 S    
C57   N3    1.437793 A    
H3    C39   1.074480 S    
C61   C63   1.435500 A    
C24   C28   1.396866 A    
C20   C24   1.402782 A    
C65   H13   1.107418 S    
O1    Zn1   2.029131 S    
C49   C59   1.345834 A    
O8    Zn4   2.013766 S    
O14   C6    1.321621 A    
C77   H47   1.094691 S    
C10   C30   1.410648 A    
C40   C42   1.390582 A    
C8    C47   1.461960 S    
C71   H29   1.106898 S    
