data_mof_unit_23991.cif
_audit_creation_date              2012-12-11T18:06:51-0500
_audit_creation_method            fapswitch 2.2
_symmetry_space_group_name_H-M    P1
_symmetry_Int_Tables_number       1
_space_group_crystal_system       triclinic
_cell_length_a                    8.232644
_cell_length_b                    12.814528
_cell_length_c                    26.892719
_cell_angle_alpha                 96.675432
_cell_angle_beta                  93.039741
_cell_angle_gamma                 81.676349
_cell_volume                      2786.30378401

loop_
_atom_site_label
_atom_site_type_symbol
_atom_type_description
_atom_site_fract_x
_atom_site_fract_y
_atom_site_fract_z
_atom_type_partial_charge
Ba1   Ba    Ba6+2 0.859560 0.448380 0.523550 1.649231
Ba2   Ba    Ba6+2 0.330270 0.551530 0.476440 1.659858
C1    C     C_3   0.775707 0.112596 0.699186 -0.377256
C2    C     C_R   0.935109 0.618033 0.182004 0.588295
C3    C     C_2   0.767091 0.579636 0.273071 -0.090585
C4    C     C_3   0.194285 0.240814 0.660583 0.254677
C5    C     C_3   0.739827 0.607870 0.328456 -0.062316
C6    C     C_1   0.986445 0.481982 0.343435 0.040394
C7    C     C_2   0.030268 0.477714 0.296056 -0.080718
C8    C     C_2   0.913896 0.527262 0.257378 0.210540
C9    C     C_R   0.043035 0.523072 0.103950 -0.080336
C10   C     C_R   0.075404 0.429990 0.128132 -0.033759
C11   C     C_R   0.150444 0.336786 0.101172 -0.060397
C12   C     C_3   0.746291 0.191228 0.660289 0.336861
C13   C     C_R   0.971143 0.617361 0.131124 -0.027636
C14   C     C_2   0.848747 0.536890 0.360716 -0.265559
C15   C     C_2   0.348113 0.478954 0.641472 -0.257330
C16   C     C_3   0.207324 0.221287 0.715356 -0.338777
C17   C     C_R   0.213167 0.429462 0.976132 0.019722
C18   C     C_R   0.070830 0.612288 0.975962 0.020024
C19   C     C_R   0.161343 0.520464 0.950617 0.050472
C20   C     C_R   0.312911 0.343011 0.950282 -0.100970
C21   C     C_R   0.355577 0.344706 0.900882 -0.061610
C22   C     C_R   0.299012 0.431948 0.874549 -0.030943
C23   C     C_3   0.421950 0.739968 0.626914 0.339700
C24   C     C_R   0.200621 0.519742 0.899250 -0.077835
C25   C     C_R   0.142158 0.607055 0.872687 -0.034276
C26   C     C_R   0.179418 0.604469 0.821653 0.591813
C27   C     C_R   0.339149 0.433040 0.824024 0.576617
C28   C     C_3   0.212645 0.224289 0.417509 0.287461
C29   C     C_2   0.466186 0.500360 0.728561 -0.064457
C30   C     C_3   0.499554 0.498095 0.673075 -0.025930
C31   C     C_1   0.205818 0.525872 0.657753 0.025001
C32   C     C_2   0.171590 0.529670 0.705752 -0.125977
C33   C     C_2   0.309630 0.515349 0.744515 0.199865
C34   C     C_3   0.446467 0.748795 0.683698 -0.395028
C35   C     C_R   0.165203 0.428212 0.026471 0.019816
C36   C     C_R   0.083013 0.522112 0.052623 0.050232
C37   C     C_R   0.040536 0.615238 0.028011 0.019718
C38   C     C_R   0.195327 0.335908 0.051739 -0.100810
C39   C     C_R   0.937845 0.709910 0.107081 -0.061658
C40   C     C_3   0.221822 0.104700 0.405797 -0.355349
C41   C     C_R   0.012387 0.698019 0.948000 -0.101450
C42   C     C_R   0.046732 0.695111 0.897609 -0.062297
C43   C     C_R   0.970525 0.708888 0.056732 -0.102013
C44   C     C_R   0.756896 0.822891 0.481625 -0.280808
C45   C     C_3   0.931543 0.857108 0.346071 0.290473
C46   C     C_R   0.430755 0.188740 0.518648 -0.311932
C47   C     C_R   0.425487 0.017097 0.545999 0.134848
C48   C     C_R   0.350022 0.120597 0.541477 0.000210
C49   C     C_R   0.576042 0.152238 0.493961 0.067202
C50   C     C_R   0.641637 0.042135 0.490879 -0.071854
C51   C     C_R   0.563308 0.972812 0.516870 -0.052669
C52   C     C_3   0.978223 0.774206 0.581154 0.285629
C53   C     C_R   0.623040 0.861863 0.511226 0.053764
C54   C     C_R   0.845136 0.890767 0.461376 -0.035027
C55   C     C_R   0.784979 0.999441 0.464135 -0.084989
C56   C     C_3   0.954863 0.884962 0.293793 -0.304384
C57   C     C_3   0.933179 0.892712 0.595710 -0.410164
C58   C     C_3   0.696540 0.312518 0.375781 0.297540
C59   C     C_3   0.710667 0.284511 0.319501 -0.361621
C60   C     C_3   0.435488 0.000385 0.634343 -0.192208
C61   C     C_3   0.464454 0.823226 0.341327 0.393395
C62   C     C_3   0.436259 0.901607 0.302373 -0.371020
C63   C     C_R   0.030272 0.431660 0.178543 0.593229
H1    H     H_    0.299931 0.076964 0.373249 0.112514
H2    H     H_    0.595897 0.379406 0.382679 0.085531
H3    H     H_    0.865485 0.043427 0.685667 0.090131
H4    H     H_    0.815536 0.220714 0.311561 0.127712
H5    H     H_    0.730888 0.355168 0.301701 0.073582
H6    H     H_    0.595675 0.256857 0.303051 0.133419
H7    H     H_    0.695104 0.153019 0.624853 0.003001
H8    H     H_    0.659028 0.085112 0.707090 0.115663
H9    H     H_    0.304150 0.788673 0.618055 0.051629
H10   H     H_    0.418685 0.656153 0.611819 -0.006426
H11   H     H_    0.448989 0.832440 0.699342 0.118645
H12   H     H_    0.275624 0.064374 0.438338 0.074871
H13   H     H_    0.343931 0.719381 0.700464 0.099377
H14   H     H_    0.564930 0.702021 0.694257 0.115849
H15   H     H_    0.825124 0.151249 0.734735 0.136659
H16   H     H_    0.899962 0.775337 0.342969 0.017214
H17   H     H_    0.829190 0.914838 0.362473 -0.026177
H18   H     H_    0.053834 0.827591 0.275413 0.164917
H19   H     H_    0.838674 0.882043 0.271072 0.114697
H20   H     H_    0.988116 0.966384 0.295921 0.098369
H21   H     H_    0.598671 0.810791 0.350363 -0.129604
H22   H     H_    0.401380 0.858718 0.376060 0.078474
H23   H     H_    0.096792 0.083266 0.396851 0.134279
H24   H     H_    0.492407 0.864772 0.266727 0.128203
H25   H     H_    0.494340 0.973234 0.315806 0.070086
H26   H     H_    0.104727 0.312935 0.656935 0.092372
H27   H     H_    0.302791 0.925551 0.295477 0.128285
H28   H     H_    0.152448 0.440953 0.285410 0.127144
H29   H     H_    0.175757 0.263474 0.118366 0.120585
H30   H     H_    0.569140 0.493956 0.755510 0.102559
H31   H     H_    0.432836 0.276288 0.883154 0.120407
H32   H     H_    0.363872 0.273319 0.967684 0.068889
H33   H     H_    0.249976 0.260350 0.033823 0.068565
H34   H     H_    0.869332 0.740123 0.564831 0.024874
H35   H     H_    0.677207 0.614726 0.246614 0.107277
H36   H     H_    0.884619 0.784202 0.127142 0.119159
H37   H     H_    0.935482 0.768072 0.963682 0.068771
H38   H     H_    0.316225 0.255524 0.649228 0.012839
H39   H     H_    0.998027 0.763011 0.878157 0.121191
H40   H     H_    0.045119 0.542672 0.717044 0.129212
H41   H     H_    0.943271 0.784082 0.041710 0.068842
H42   H     H_    0.825369 0.547152 0.400445 0.073919
H43   H     H_    0.356149 0.430157 0.605565 0.064484
H44   H     H_    0.852189 0.048889 0.445557 0.097201
H45   H     H_    0.075038 0.761387 0.553223 0.063500
H46   H     H_    0.800567 0.738611 0.477312 0.051912
H47   H     H_    0.376940 0.270996 0.518895 0.068719
H48   H     H_    0.093515 0.194615 0.726317 0.109952
H49   H     H_    0.313670 0.160182 0.722226 0.128441
H50   H     H_    0.337810 0.244453 0.425661 0.005260
H51   H     H_    0.135614 0.249650 0.450610 0.067275
H52   H     H_    0.865763 0.214204 0.652953 0.102276
H53   H     H_    0.223517 0.296173 0.738749 0.132328
H54   H     H_    0.250348 0.959712 0.582647 0.202309
H55   H     H_    0.351475 0.986019 0.662963 0.110638
H56   H     H_    0.815414 0.907796 0.614949 0.114420
H57   H     H_    0.447118 0.085706 0.638302 0.091920
H58   H     H_    0.559144 0.958198 0.641999 0.123606
H59   H     H_    0.921099 0.935995 0.562175 0.103995
H60   H     H_    0.028934 0.923524 0.621595 0.131566
H61   H     H_    0.813614 0.336707 0.391693 0.010292
N1    N     N_R   0.960292 0.525217 0.205200 -0.421089
N2    N     N_R   0.276093 0.517670 0.797579 -0.425133
N3    N     N_2   0.374150 0.964541 0.584607 -0.407681
O1    O     O_2   0.907040 0.557650 0.617910 -0.453288
O2    O     O_2   0.184260 0.882943 0.466903 -0.482023
O3    O     O_3   0.077620 0.863313 0.374841 -0.585442
O4    O     O_3   0.139040 0.557570 0.557730 -0.498899
O5    O     O_3   0.571310 0.369620 0.475470 -0.491476
O6    O     O_2   0.348200 0.764910 0.523260 -0.472444
O7    O     O_3   0.551179 0.778881 0.606805 -0.630011
O8    O     O_2   0.441893 0.523514 0.324690 -0.487305
O9    O     O_3   0.400278 0.729569 0.322346 -0.567004
O10   O     O_2   0.051584 0.349397 0.198342 -0.600137
O11   O     O_2   0.429380 0.358035 0.803523 -0.596593
O12   O     O_3   0.663220 0.223374 0.396856 -0.642701
O13   O     O_2   0.882526 0.702089 0.205814 -0.626897
O14   O     O_2   0.127480 0.680340 0.798866 -0.596841
O15   O     O_3   0.684960 0.360550 0.588460 -0.477247
O16   O     O_2   0.836749 0.417346 0.676002 -0.524130
O17   O     O_3   0.033973 0.727425 0.624274 -0.629825
O18   O     O_3   0.634963 0.278343 0.679131 -0.605423
O19   O     O_2   0.841490 0.235060 0.476710 -0.473376
O20   O     O_3   0.099640 0.305100 0.564190 -0.490867
O21   O     O_2   0.007160 0.116770 0.541266 -0.489692
O22   O     O_3   0.140340 0.152912 0.631470 -0.622684
O23   O     O_2   0.282660 0.442310 0.382060 -0.453488
O24   O     O_3   0.050670 0.442340 0.442260 -0.502622
O25   O     O_3   0.504750 0.639360 0.411530 -0.469971
O26   O     O_3   0.145915 0.272005 0.375485 -0.628416
O27   O     O_3   0.618400 0.630290 0.524520 -0.465521
O28   O     O_3   0.090070 0.694820 0.435810 -0.464908
P1    P     P_3+3 0.072810 0.589830 0.610360 0.990473
P2    P     P_3+3 0.661990 0.251250 0.462170 0.972390
P3    P     P_3+3 0.148496 0.171104 0.568294 0.931402
P4    P     P_3+3 0.116900 0.410080 0.389630 0.990337
P5    P     P_3+3 0.046726 0.833655 0.435193 0.957813
P6    P     P_3+3 0.667983 0.392558 0.653304 0.967425
P7    P     P_3+3 0.534220 0.761978 0.541307 0.975427
P8    P     P_3+3 0.521569 0.621909 0.346339 0.975630

loop_
_geom_bond_atom_site_label_1
_geom_bond_atom_site_label_2
_ccdc_geom_bond_type
C59   H5    S    
C57   H56   S    
C19   C24   A    
C47   C51   A    
C9    C36   A    
O6    P7    D    
C1    H3    S    
C62   H25   S    
C16   H49   S    
O8    P8    D    
C42   H39   S    
C28   H51   S    
C21   H31   S    
C52   H45   S    
C24   C25   A    
Ba2   O5    S    
O21   P3    D    
O9    P8    S    
C63   N1    Am   
Ba1   P1    S    
C17   C19   A    
C22   C24   A    
C53   P7    S    
C32   C33   S    
C35   C38   A    
C6    P4    S    
C2    O13   D    
C36   C37   A    
Ba1   O4    S    
C4    H26   S    
C30   P6    S    
C54   P5    S    
C54   C55   A    
Ba2   P4    S    
Ba1   Ba2   S    
C45   H17   S    
C23   O7    S    
C22   C27   A    
C11   C38   A    
C34   H11   S    
C14   H42   S    
C1    H8    S    
C9    C13   A    
C25   C42   A    
O12   P2    S    
C46   C49   A    
C55   H44   S    
C58   H2    S    
C6    C7    D    
C44   C53   A    
C21   C22   A    
O25   P8    S    
Ba1   O20   S    
C17   C35   A    
C7    C8    S    
C16   H53   S    
C60   H55   S    
C52   C57   S    
C37   C43   A    
C59   H6    S    
C46   C48   A    
O5    P2    S    
C5    P8    S    
C6    C14   D    
C20   H32   S    
C44   H46   S    
C60   N3    S    
C15   C31   D    
C62   H24   S    
C4    C16   S    
C1    H15   S    
C16   H48   S    
C60   H58   S    
C28   H50   S    
C51   C53   A    
Ba2   O23   S    
C23   H9    S    
Ba2   O4    S    
C49   C50   A    
Ba1   P2    S    
C17   C20   A    
C13   C39   A    
Ba1   O1    S    
C15   H43   S    
C3    C5    S    
C18   C37   A    
O16   P6    D    
O2    P5    D    
C48   P3    S    
C47   N3    S    
C12   O18   S    
O26   P4    S    
O24   P4    S    
C58   C59   S    
C23   H10   S    
O19   P2    D    
Ba1   O27   S    
C41   C42   A    
C35   C36   A    
C56   H19   S    
C58   O12   S    
C29   C30   S    
C3    H35   S    
C12   H52   S    
C31   C32   D    
C26   O14   D    
C4    H38   S    
C18   C19   A    
Ba1   O24   S    
C1    C12   S    
C4    O22   S    
C5    C14   S    
C46   H47   S    
Ba2   O24   S    
C61   H21   S    
C43   H41   S    
C61   O9    S    
C29   C33   D    
C52   H34   S    
C40   H23   S    
C62   H27   S    
C8    N1    S    
C56   H20   S    
C7    H28   S    
C60   H57   S    
C18   C41   A    
C31   P1    S    
O7    P7    S    
C59   H4    S    
C57   H59   S    
C27   O11   D    
C28   O26   S    
Ba2   O27   S    
C2    N1    Am   
C61   H22   S    
C32   H40   S    
C12   H7    S    
O23   P4    D    
C34   H14   S    
C9    C10   A    
O17   P1    S    
C57   H60   S    
C10   C63   A    
C45   O3    S    
Ba2   O6    S    
C52   O17   S    
C11   H29   S    
O1    P1    D    
O22   P3    S    
C2    C13   A    
C58   H61   S    
C41   H37   S    
C3    C8    D    
O15   P6    S    
Ba1   O15   S    
C34   H13   S    
C56   H18   S    
C45   C56   S    
C38   H33   S    
Ba2   O28   S    
C29   H30   S    
C49   P2    S    
H54   N3    S    
C39   H36   S    
C45   H16   S    
C33   N2    S    
O4    P1    S    
O20   P3    S    
O3    P5    S    
C50   C55   A    
C23   C34   S    
C61   C62   S    
C63   O10   D    
C26   N2    Am   
C10   C11   A    
O27   P7    S    
C40   H12   S    
Ba2   O25   S    
C47   C48   A    
C27   N2    Am   
C44   C54   A    
C25   C26   A    
C40   H1    S    
C15   C30   S    
C39   C43   A    
C20   C21   A    
C28   C40   S    
Ba1   O19   S    
O18   P6    S    
O28   P5    S    
Ba1   O5    S    
C50   C51   A    
