data_mof_unit_13070.cif
_audit_creation_date              2013-03-05T16:30:50-0500
_audit_creation_method            fapswitch 2.2
_symmetry_space_group_name_H-M    P1
_symmetry_Int_Tables_number       1
_space_group_crystal_system       triclinic
_cell_length_a                    10.860168
_cell_length_b                    10.841343
_cell_length_c                    9.551761
_cell_angle_alpha                 90.086302
_cell_angle_beta                  100.536816
_cell_angle_gamma                 91.229761
_cell_volume                      1105.37773625

loop_
_atom_site_label
_atom_site_type_symbol
_atom_site_description
_atom_site_fract_x
_atom_site_fract_y
_atom_site_fract_z
_atom_type_partial_charge
O1    O     O_R   0.500000 0.319640 0.618810 -0.592304
O2    O     O_R   0.500010 0.319680 0.381230 -0.536299
C1    C     C_R   0.504287 0.262644 0.500909 0.881130
O3    O     O_R   0.320680 0.500000 0.575130 -0.558716
O4    O     O_R   0.320690 0.500040 0.337550 -0.530186
C2    C     C_R   0.261985 0.496473 0.444633 0.945122
Cu1   Cu    Cu3+1 0.499990 0.499980 0.640670 1.051733
Cu2   Cu    Cu3+1 0.500010 0.500020 0.359330 1.069506
O5    O     O_R   0.499990 0.680320 0.618770 -0.556318
O6    O     O_R   0.500000 0.680360 0.381190 -0.608874
O7    O     O_R   0.679310 0.499960 0.662450 -0.530053
O8    O     O_R   0.679320 0.500000 0.424870 -0.560643
C3    C     C_R   0.499292 0.737741 0.500023 0.848582
C4    C     C_R   0.737528 0.491046 0.554301 0.928557
C5    C     C_2   0.125003 0.493085 0.420653 -0.346821
C6    C     C_2   0.059182 0.408178 0.481549 0.315966
H1    H     H_    0.932830 0.495545 0.672104 0.199483
C7    C     C_2   0.872790 0.468540 0.572514 -0.445307
C8    C     C_2   0.923501 0.419548 0.465232 0.219969
H2    H     H_    0.076649 0.567991 0.359762 0.159794
C9    C     C_R   0.517366 0.064554 0.629636 0.018477
C10   C     C_R   0.516235 0.130001 0.503625 -0.027150
C11   C     C_R   0.527432 0.064861 0.379568 -0.077227
H3    H     H_    0.533627 0.112544 0.281453 0.198491
C12   C     C_R   0.523099 0.936347 0.378877 -0.166212
H4    H     H_    0.527153 0.888856 0.280480 0.158098
C13   C     C_R   0.506602 0.871349 0.501719 -0.031774
C14   C     C_R   0.508380 0.937673 0.627814 0.027495
C15   C     C_3   0.423146 0.937001 0.735762 0.257982
C16   C     C_3   0.438144 0.076825 0.740813 -0.416920
H5    H     H_    0.463767 0.893840 0.838404 0.087220
H6    H     H_    0.351042 0.127524 0.703022 0.288438
H7    H     H_    0.493542 0.111750 0.843227 0.181162
C17   C     C_R   0.601451 0.544404 0.095210 0.186478
N1    N     N_R   0.500780 0.500930 0.148120 -0.248603
C18   C     C_R   0.405977 0.442649 0.052831 0.384236
C19   C     C_R   0.405888 0.445238 0.904636 -0.093369
H8    H     H_    0.329504 0.403029 0.831763 0.220298
N2    N     N_R   0.500790 0.500890 0.852210 -0.249100
C20   C     C_R   0.602531 0.543530 0.947947 0.223009
C21   C     C_3   0.658765 0.671595 0.956605 0.226094
C22   C     C_3   0.656612 0.671007 0.115362 -0.514926
H9    H     H_    0.595830 0.739734 0.896427 0.097483
H10   H     H_    0.749959 0.671378 0.186304 0.249614
H11   H     H_    0.590028 0.737917 0.145041 0.172542
N3    N     N_R   0.848470 0.365232 0.339352 0.169001
O9    O     O_R   0.883444 0.378700 0.216963 -0.268202
O10   O     O_R   0.764000 0.280997 0.351667 -0.357623
N4    N     N_R   0.304832 0.378427 0.099585 0.154456
O11   O     O_R   0.190706 0.413069 0.053214 -0.272512
O12   O     O_R   0.322550 0.268618 0.152886 -0.303824
S1    S     S_3+6 0.814741 0.680181 0.919282 0.052155
O13   O     O_2   0.891928 0.772110 0.018202 -0.226171
O14   O     O_2   0.874509 0.556066 0.938886 -0.227743
O15   O     O_3   0.808487 0.727681 0.750712 -0.547218
H12   H     H_    0.896990 0.733816 0.738279 0.377424
S2    S     S_3+6 0.120262 0.265280 0.547440 0.083906
O16   O     O_2   0.227975 0.230453 0.478058 -0.257535
O17   O     O_2   0.162788 0.273866 0.705728 -0.308346
O18   O     O_3   0.008251 0.154149 0.511998 -0.399020
H13   H     H_    0.954149 0.165652 0.583805 0.366911
S3    S     S_3+6 0.264531 0.887138 0.667908 0.051124
O19   O     O_2   0.178819 0.947082 0.753482 -0.198375
O20   O     O_2   0.227097 0.922603 0.514098 -0.221443
O21   O     O_3   0.252202 0.733289 0.683707 -0.532234
H14   H     H_    0.163723 0.712236 0.642329 0.359111

loop_
_geom_bond_atom_site_label_1
_geom_bond_atom_site_label_2
_geom_bond_distance
_ccdc_geom_bond_type
O4    Cu2   1.920329 S    
C16   H6    1.106911 S    
O15   H12   0.990640 S    
C19   H8    1.074065 S    
C12   C13   1.406904 A    
C21   C22   1.520886 S    
C4    C7    1.473001 S    
C21   S1    1.794252 S    
S3    O20   1.503830 D    
N1    C18   1.383943 A    
S3    O21   1.679661 S    
S1    O15   1.681169 S    
Cu2   N1    2.019011 S    
Cu2   O8    1.933440 S    
S3    O19   1.503175 D    
H1    C7    1.086219 S    
C12   H4    1.079362 S    
C8    N3    1.440620 S    
Cu1   Cu2   2.687334 S    
C15   H5    1.107621 S    
C1    C10   1.446485 S    
O1    Cu1   1.965938 S    
C9    C10   1.396361 A    
Cu1   O7    1.920331 S    
C21   H9    1.105674 S    
C14   C15   1.506274 S    
S2    O16   1.500626 D    
C15   C16   1.520873 S    
C22   H10   1.111526 S    
O18   H13   0.990709 S    
C6    C8    1.461028 S    
C17   C20   1.408836 A    
Cu2   O6    1.965939 S    
C20   C21   1.500752 S    
C9    C14   1.376784 A    
S1    O14   1.503585 D    
O2    C1    1.294311 A    
C6    S2    1.769331 S    
C11   C12   1.393022 A    
O4    C2    1.300656 A    
C17   N1    1.361450 A    
O7    C4    1.310491 A    
N3    O10   1.301230 A    
S2    O17   1.500080 D    
O21   H14   0.991482 S    
C11   H3    1.083082 S    
C5    C6    1.349844 D    
N2    C20   1.370413 A    
C19   N2    1.356468 A    
C7    C8    1.361179 D    
S1    O13   1.503442 D    
O3    C2    1.292166 A    
N4    O11   1.301193 A    
C9    C16   1.491402 S    
N4    O12   1.299730 A    
O2    Cu2   1.966600 S    
C13   C14   1.398686 A    
Cu1   O5    1.966601 S    
O5    C3    1.293558 A    
N3    O9    1.301058 A    
C18   C19   1.415674 A    
S2    O18   1.682617 S    
Cu1   N2    2.019016 S    
C16   H7    1.111814 S    
O3    Cu1   1.933439 S    
C2    C5    1.462843 S    
C15   S3    1.797289 S    
O6    C3    1.294873 A    
C10   C11   1.404112 A    
C3    C13   1.448857 S    
C18   N4    1.427694 S    
O8    C4    1.286323 A    
C5    H2    1.086982 S    
O1    C1    1.292490 A    
C22   H11   1.107386 S    
C17   C22   1.483754 S    
