data_mof_unit_35973.cif
_audit_creation_date              2012-12-11T15:43:10-0500
_audit_creation_method            fapswitch 2.2
_symmetry_space_group_name_H-M    P1
_symmetry_Int_Tables_number       1
_space_group_crystal_system       triclinic
_cell_length_a                    19.359473
_cell_length_b                    11.270104
_cell_length_c                    18.708665
_cell_angle_alpha                 89.861885
_cell_angle_beta                  89.702496
_cell_angle_gamma                 89.339526
_cell_volume                      4081.58027799

loop_
_atom_site_label
_atom_site_type_symbol
_atom_type_description
_atom_site_fract_x
_atom_site_fract_y
_atom_site_fract_z
_atom_type_partial_charge
C1    C     C_R   0.712050 0.332040 0.138389 0.549436
C2    C     C_R   0.003492 0.990563 0.026333 -0.031483
C3    C     C_R   0.741904 0.419810 0.578290 0.022971
C4    C     C_R   0.711061 0.333928 0.359324 0.552481
C5    C     C_R   0.271315 0.378304 0.648412 0.545702
C6    C     C_R   0.211065 0.833945 0.359327 0.550289
C7    C     C_R   0.771330 0.878274 0.648396 0.553002
C8    C     C_R   0.535050 0.156757 0.354777 0.588742
C9    C     C_R   0.469153 0.155854 0.648123 0.567917
C10   C     C_R   0.035027 0.656766 0.354758 0.578827
C11   C     C_R   0.969137 0.655849 0.648111 0.573036
C12   C     C_R   0.730068 0.012260 0.361366 0.572151
C13   C     C_R   0.506961 0.474184 0.958518 -0.043257
C14   C     C_R   0.258315 0.972899 0.646100 0.584004
C15   C     C_R   0.230074 0.512264 0.361372 0.572120
C16   C     C_R   0.758320 0.472894 0.646099 0.584693
C17   C     C_R   0.502962 0.153853 0.924038 0.028365
C18   C     C_R   0.498594 0.155566 0.074721 0.026870
C19   C     C_R   0.995461 0.654987 0.928810 0.021174
C20   C     C_R   0.993208 0.669069 0.079207 0.044026
C21   C     C_R   0.505968 0.260166 0.961662 -0.048932
C22   C     C_R   0.495705 0.261593 0.035845 -0.052003
C23   C     C_R   0.007901 0.763961 0.962891 -0.059374
C24   C     C_R   0.488928 0.476247 0.032889 -0.047687
C25   C     C_R   0.000459 0.773532 0.037609 -0.049615
C26   C     C_R   0.493996 0.047200 0.036780 -0.010823
C27   C     C_R   0.507995 0.046321 0.962592 -0.012402
C28   C     C_R   0.972297 0.564653 0.045504 -0.003924
C29   C     C_R   0.986282 0.552436 0.972072 -0.017978
C30   C     C_3   0.476102 0.933456 0.076017 -0.228796
C31   C     C_3   0.541324 0.858354 0.087019 -0.381750
C32   C     C_3   0.526575 0.932140 0.923567 -0.230863
C33   C     C_3   0.462001 0.857848 0.912552 -0.382514
C34   C     C_3   0.937506 0.465357 0.087683 -0.265023
C35   C     C_R   0.777731 0.853578 0.938760 0.014986
C36   C     C_3   0.885861 0.511611 0.143594 -0.406690
C37   C     C_3   0.005162 0.430393 0.944011 -0.257886
C38   C     C_3   0.942369 0.359923 0.921847 -0.400528
C39   C     C_3   0.512514 0.834060 0.570694 -0.244705
C40   C     C_3   0.533951 0.844375 0.649139 -0.385501
C41   C     C_3   0.404418 0.970191 0.422570 -0.301079
C42   C     C_3   0.362038 0.075226 0.452039 -0.421018
C43   C     C_3   0.012327 0.334032 0.570543 -0.245322
C44   C     C_3   0.033681 0.344196 0.649010 -0.384452
C45   C     C_3   0.904410 0.470170 0.422279 -0.301359
C46   C     C_R   0.242460 0.904142 0.070275 0.016250
C47   C     C_3   0.861967 0.575188 0.451652 -0.421667
C48   C     C_3   0.929151 0.052354 0.556173 -0.239455
C49   C     C_3   0.938005 0.060440 0.637252 -0.304087
C50   C     C_3   0.145067 0.137801 0.395119 -0.307667
C51   C     C_3   0.219574 0.169124 0.378868 -0.391905
C52   C     C_3   0.429108 0.552651 0.556515 -0.239880
C53   C     C_3   0.437895 0.560663 0.637648 -0.301189
C54   C     C_3   0.644879 0.637655 0.395143 -0.306875
C55   C     C_3   0.719358 0.669023 0.378766 -0.392006
C56   C     C_3   0.002405 0.082439 0.901195 -0.273025
C57   C     C_R   0.260652 0.403808 0.929676 0.016316
C58   C     C_3   0.006555 0.061845 0.820413 -0.342197
C59   C     C_3   0.992686 0.112539 0.060352 -0.259286
C60   C     C_3   0.020900 0.126428 0.136441 -0.364718
C61   C     C_3   0.505886 0.586833 0.914201 -0.279297
C62   C     C_3   0.524541 0.580539 0.834256 -0.338848
C63   C     C_3   0.489198 0.591739 0.073586 -0.280869
C64   C     C_3   0.466428 0.594068 0.152392 -0.347278
C65   C     C_R   0.721082 0.350758 0.061258 0.008179
C66   C     C_R   0.718779 0.816257 0.975373 0.004859
C67   C     C_R   0.291285 0.840455 0.030010 -0.008590
C68   C     C_R   0.199351 0.379256 0.964967 -0.003220
C69   C     C_R   0.272462 0.371693 0.855697 0.546836
C70   C     C_R   0.775100 0.298636 0.022205 -0.003745
C71   C     C_R   0.711475 0.835604 0.049359 -0.011355
C72   C     C_R   0.292502 0.848121 0.955276 -0.014889
C73   C     C_R   0.194536 0.389396 0.038952 0.028074
C74   C     C_R   0.782995 0.321344 0.948466 -0.023722
C75   C     C_R   0.825465 0.914797 0.052430 -0.146639
C76   C     C_R   0.188917 0.966871 0.960070 -0.134415
C77   C     C_R   0.314516 0.438148 0.043990 -0.152325
C78   C     C_R   0.676650 0.430677 0.950564 -0.117971
C79   C     C_R   0.832817 0.896517 0.979114 -0.170752
C80   C     C_R   0.228105 0.872343 0.144219 0.546415
C81   C     C_R   0.191062 0.967632 0.033505 -0.168221
C82   C     C_R   0.318548 0.434042 0.970587 -0.162217
C83   C     C_R   0.669547 0.411014 0.023355 -0.166455
C84   C     C_3   0.700925 0.690005 0.982947 -0.258312
C85   C     C_3   0.297182 0.709280 0.028456 -0.243489
C86   C     C_3   0.164600 0.263645 0.965272 -0.272857
C87   C     C_3   0.781741 0.169395 0.011044 -0.252114
C88   C     C_3   0.696641 0.707849 0.062137 -0.270361
C89   C     C_3   0.297999 0.716771 0.948334 -0.276591
C90   C     C_3   0.157749 0.275290 0.045244 -0.280510
C91   C     C_R   0.787284 0.833985 0.861678 0.550007
C92   C     C_3   0.788246 0.192067 0.932375 -0.257669
C93   C     C_R   0.761991 0.896030 0.086456 0.014293
C94   C     C_R   0.242810 0.915837 0.920234 0.045692
C95   C     C_R   0.252288 0.418544 0.078957 0.020974
C96   C     C_R   0.737034 0.397447 0.914073 0.030391
C97   C     C_R   0.531489 0.153956 0.146880 0.592718
C98   C     C_R   0.468856 0.153067 0.852679 0.602418
C99   C     C_R   0.030939 0.656309 0.147739 0.573981
C100  C     C_R   0.966999 0.653093 0.854398 0.604069
C101  C     C_R   0.506977 0.158779 0.580481 -0.044632
C102  C     C_R   0.519331 0.364916 0.925626 0.372190
C103  C     C_R   0.516568 0.162857 0.430208 0.006002
C104  C     C_R   0.006917 0.658751 0.580443 -0.045024
C105  C     C_R   0.016538 0.662884 0.430175 0.007314
C106  C     C_R   0.513717 0.053546 0.541307 -0.034168
C107  C     C_R   0.516275 0.057099 0.468221 0.054430
C108  C     C_R   0.013584 0.553533 0.541239 -0.035065
C109  C     C_R   0.016178 0.557119 0.468163 0.055422
C110  C     C_R   0.521226 0.268292 0.469472 0.368671
C111  C     C_R   0.520829 0.265526 0.544789 0.339082
C112  C     C_R   0.021273 0.768288 0.469462 0.368893
C113  C     C_R   0.481513 0.368642 0.069734 0.362477
C114  C     C_R   0.020865 0.765484 0.544779 0.338902
C115  C     C_3   0.472303 0.941090 0.540905 -0.080955
C116  C     C_3   0.474087 0.948085 0.459249 -0.092228
C117  C     C_3   0.972141 0.441113 0.540775 -0.081411
C118  C     C_3   0.974011 0.448109 0.459112 -0.091262
C119  C     C_R   0.753799 0.931875 0.580877 -0.026449
C120  C     C_R   0.218560 0.856055 0.434910 -0.061525
C121  C     C_R   0.253760 0.431975 0.580922 -0.025603
C122  C     C_R   0.718553 0.356004 0.434912 -0.062186
C123  C     C_R   0.805776 0.987597 0.541177 0.017522
C124  C     C_R   0.026218 0.864155 0.923356 0.375091
C125  C     C_R   0.176732 0.940494 0.469427 0.031057
C126  C     C_R   0.305733 0.487773 0.541257 0.017700
C127  C     C_R   0.676710 0.440403 0.469446 0.030787
C128  C     C_R   0.797886 0.003944 0.469414 -0.061430
C129  C     C_R   0.190674 0.973274 0.537051 0.045083
C130  C     C_R   0.297872 0.504134 0.469491 -0.061288
C131  C     C_R   0.690682 0.473219 0.537057 0.044929
C132  C     C_R   0.681553 0.937716 0.476302 0.304076
C133  C     C_R   0.278010 0.823233 0.548780 0.318611
C134  C     C_R   0.181543 0.437811 0.476325 0.303802
C135  C     C_R   0.996139 0.887374 0.068366 0.366118
C136  C     C_R   0.778066 0.323244 0.548756 0.318643
C137  C     C_R   0.690342 0.912867 0.548912 -0.143441
C138  C     C_R   0.266756 0.792083 0.476845 -0.168045
C139  C     C_R   0.190305 0.412964 0.548941 -0.143011
C140  C     C_R   0.766789 0.292075 0.476828 -0.168110
C141  C     C_3   0.880812 0.954699 0.531007 -0.050216
C142  C     C_3   0.132582 0.051399 0.457793 -0.067581
C143  C     C_3   0.380804 0.455017 0.531177 -0.050051
C144  C     C_3   0.632503 0.551256 0.457845 -0.067893
C145  C     C_R   0.743381 0.965662 0.150125 0.544601
C146  C     C_R   0.014772 0.977971 0.951251 -0.030706
C147  C     C_R   0.257457 0.967896 0.850925 0.565221
C148  C     C_R   0.241886 0.469108 0.148922 0.560553
C149  C     C_R   0.756685 0.465314 0.850019 0.544407
C150  C     C_3   0.869430 0.966164 0.450969 0.286035
C151  C     C_3   0.155040 0.090775 0.532156 0.255202
C152  C     C_3   0.369482 0.466591 0.451121 0.286227
C153  C     C_3   0.655011 0.590689 0.532178 0.255404
C154  C     C_R   0.736943 0.978855 0.435369 0.051264
C155  C     C_R   0.241878 0.919830 0.578295 0.023763
C156  C     C_R   0.236951 0.478930 0.435400 0.051529
Cr1   Cr    Cr6+3 0.772010 0.169670 0.250090 1.000117
Cr2   Cr    Cr6+3 0.383290 0.010760 0.749160 0.996966
Cr3   Cr    Cr6+3 0.116710 0.510760 0.250840 1.014440
Cr4   Cr    Cr6+3 0.883290 0.510760 0.749160 0.994472
Cr5   Cr    Cr6+3 0.227990 0.169670 0.749910 1.027335
Cr6   Cr    Cr6+3 0.272010 0.669670 0.250090 0.992288
Cr7   Cr    Cr6+3 0.727990 0.669670 0.749910 1.022451
Cr8   Cr    Cr6+3 0.615000 0.323260 0.249260 1.061439
Cr9   Cr    Cr6+3 0.385000 0.323260 0.750740 1.026768
Cr10  Cr    Cr6+3 0.115000 0.823260 0.249260 1.083060
Cr11  Cr    Cr6+3 0.885000 0.823260 0.750740 1.009019
Cr12  Cr    Cr6+3 0.616710 0.010760 0.250840 1.002491
F1    F     F_    0.519869 0.372766 0.434525 -0.634742
F2    F     F_    0.100769 0.098428 0.580182 -0.640244
F3    F     F_    0.371184 0.358383 0.416591 -0.636278
F4    F     F_    0.600778 0.598331 0.580257 -0.639405
F5    F     F_    0.550976 0.357071 0.860749 -0.650876
F6    F     F_    0.453173 0.364934 0.136248 -0.648656
F7    F     F_    0.056737 0.849034 0.858399 -0.639710
F8    F     F_    0.971806 0.897837 0.136271 -0.645288
F9    F     F_    0.530591 0.365886 0.582480 -0.611630
F10   F     F_    0.020028 0.872782 0.434539 -0.634231
F11   F     F_    0.030743 0.865788 0.582491 -0.611674
F12   F     F_    0.621976 0.911433 0.444402 -0.696587
F13   F     F_    0.326397 0.765312 0.587763 -0.679467
F14   F     F_    0.121961 0.411577 0.444419 -0.696521
F15   F     F_    0.826510 0.265370 0.587698 -0.679221
F16   F     F_    0.870995 0.857892 0.416513 -0.638344
H1    H     H_    0.919158 0.449413 0.563457 0.208705
H2    H     H_    0.077055 0.033727 0.460009 0.240925
H3    H     H_    0.615186 0.719455 0.406447 0.208699
H4    H     H_    0.060457 0.041389 0.803582 0.228684
H5    H     H_    0.971087 0.990338 0.803967 0.209324
H6    H     H_    0.990380 0.144309 0.792186 0.069810
H7    H     H_    0.949357 0.113737 0.912215 0.122743
H8    H     H_    0.038325 0.153286 0.913488 0.125794
H9    H     H_    0.984039 0.091759 0.176725 0.218574
H10   H     H_    0.071721 0.081692 0.142587 0.176167
H11   H     H_    0.026989 0.221768 0.149056 0.088532
H12   H     H_    0.017550 0.180852 0.027308 0.116322
H13   H     H_    0.393910 0.363619 0.549145 0.188391
H14   H     H_    0.937203 0.134549 0.061594 0.132132
H15   H     H_    0.578883 0.552296 0.825985 0.229172
H16   H     H_    0.488790 0.520915 0.805579 0.199526
H17   H     H_    0.519735 0.669201 0.809155 0.075491
H18   H     H_    0.451635 0.616417 0.915826 0.126310
H19   H     H_    0.539685 0.652639 0.939452 0.123279
H20   H     H_    0.413863 0.559747 0.159711 0.228137
H21   H     H_    0.503710 0.543776 0.186158 0.201027
H22   H     H_    0.464098 0.686328 0.172306 0.088601
H23   H     H_    0.543954 0.615662 0.073540 0.127418
H24   H     H_    0.576986 0.533519 0.460139 0.240742
H25   H     H_    0.458211 0.658371 0.044476 0.123270
H26   H     H_    0.899156 0.036163 0.422692 0.148137
H27   H     H_    0.191298 0.166102 0.534059 0.108766
H28   H     H_    0.399171 0.536730 0.422930 0.146547
H29   H     H_    0.691254 0.666042 0.534027 0.108578
H30   H     H_    0.866112 0.958562 0.080517 0.199077
H31   H     H_    0.147820 0.016321 0.934602 0.166713
H32   H     H_    0.358440 0.467047 0.073068 0.189491
H33   H     H_    0.002814 0.374195 0.432911 0.193888
H34   H     H_    0.638598 0.485303 0.924832 0.177824
H35   H     H_    0.880700 0.920012 0.953443 0.136915
H36   H     H_    0.149106 0.011925 0.060991 0.142867
H37   H     H_    0.368110 0.451335 0.946361 0.151225
H38   H     H_    0.624813 0.447214 0.050410 0.143134
H39   H     H_    0.201016 0.192788 0.948333 0.168464
H40   H     H_    0.734111 0.120602 0.025758 0.140482
H41   H     H_    0.744557 0.630891 0.966862 0.144721
H42   H     H_    0.249954 0.665932 0.049468 0.161273
H43   H     H_    0.650652 0.673537 0.957691 0.127913
H44   H     H_    0.419328 0.949298 0.563618 0.208925
H45   H     H_    0.346174 0.678310 0.052230 0.137902
H46   H     H_    0.116641 0.270879 0.934800 0.118914
H47   H     H_    0.829819 0.137898 0.035590 0.136556
H48   H     H_    0.645148 0.693605 0.085500 0.125984
H49   H     H_    0.347335 0.688727 0.923605 0.126247
H50   H     H_    0.104725 0.291327 0.064953 0.133468
H51   H     H_    0.839017 0.166375 0.909646 0.135704
H52   H     H_    0.738554 0.661065 0.091643 0.151129
H53   H     H_    0.251678 0.676953 0.923328 0.160712
H54   H     H_    0.187813 0.207951 0.075860 0.141644
H55   H     H_    0.502828 0.874138 0.433014 0.193518
H56   H     H_    0.743516 0.158833 0.901431 0.168496
H57   H     H_    0.546090 0.792969 0.044410 0.101892
H58   H     H_    0.588349 0.912773 0.083022 0.199972
H59   H     H_    0.541647 0.815218 0.140155 0.145141
H60   H     H_    0.450650 0.952579 0.128155 0.164944
H61   H     H_    0.434979 0.884501 0.049005 0.129197
H62   H     H_    0.457586 0.791570 0.954737 0.099466
H63   H     H_    0.414486 0.912696 0.916533 0.202220
H64   H     H_    0.462460 0.815871 0.859265 0.144095
H65   H     H_    0.551347 0.951417 0.871157 0.165405
H66   H     H_    0.650971 0.870216 0.579202 0.147257
H67   H     H_    0.568647 0.882653 0.949978 0.128129
H68   H     H_    0.862063 0.435497 0.171412 0.173818
H69   H     H_    0.910795 0.566334 0.184990 0.171342
H70   H     H_    0.844736 0.564904 0.117195 0.148632
H71   H     H_    0.906613 0.409949 0.051777 0.149292
H72   H     H_    0.976306 0.405637 0.112639 0.165418
H73   H     H_    0.931571 0.289643 0.961485 0.097683
H74   H     H_    0.896807 0.419138 0.919739 0.206605
H75   H     H_    0.950642 0.319299 0.868472 0.153475
H76   H     H_    0.042245 0.437431 0.898648 0.164588
H77   H     H_    0.299630 0.725983 0.452309 0.126754
H78   H     H_    0.032749 0.381210 0.986399 0.127061
H79   H     H_    0.562928 0.927122 0.658778 0.169677
H80   H     H_    0.487850 0.840763 0.684604 0.170257
H81   H     H_    0.568322 0.768836 0.663759 0.178149
H82   H     H_    0.478263 0.759935 0.566994 0.165640
H83   H     H_    0.556945 0.809846 0.536493 0.213691
H84   H     H_    0.383442 0.116245 0.500659 0.144205
H85   H     H_    0.359049 0.144878 0.410398 0.224707
H86   H     H_    0.309702 0.045605 0.466187 0.116897
H87   H     H_    0.413760 0.984323 0.364519 0.171069
H88   H     H_    0.150904 0.370321 0.579213 0.147262
H89   H     H_    0.374762 0.887676 0.426560 0.157177
H90   H     H_    0.062689 0.426886 0.658716 0.170414
H91   H     H_    0.987533 0.340571 0.684407 0.171685
H92   H     H_    0.068016 0.268612 0.663629 0.177368
H93   H     H_    0.978082 0.259908 0.566731 0.165962
H94   H     H_    0.056829 0.309931 0.536408 0.213791
H95   H     H_    0.883452 0.616560 0.500125 0.144976
H96   H     H_    0.858792 0.644577 0.409866 0.222801
H97   H     H_    0.809701 0.545454 0.466002 0.117286
H98   H     H_    0.913868 0.484302 0.364241 0.166959
H99   H     H_    0.799659 0.225962 0.452290 0.126729
H100  H     H_    0.874743 0.387649 0.426192 0.157638
H101  H     H_    0.891488 0.101001 0.662516 0.199305
H102  H     H_    0.949270 0.972662 0.660980 0.238020
H103  H     H_    0.982664 0.116075 0.650473 0.160505
H104  H     H_    0.980312 0.039635 0.530793 0.243946
H105  H     H_    0.908072 0.136800 0.535136 0.159633
H106  H     H_    0.243269 0.212745 0.425552 0.164505
H107  H     H_    0.249008 0.088728 0.362670 0.174098
H108  H     H_    0.221089 0.232184 0.333292 0.193360
H109  H     H_    0.121032 0.102580 0.346007 0.186344
H110  H     H_    0.893908 0.863328 0.549033 0.188048
H111  H     H_    0.115379 0.219619 0.406386 0.209082
H112  H     H_    0.391286 0.601004 0.662858 0.197956
H113  H     H_    0.449261 0.472893 0.661357 0.239487
H114  H     H_    0.482441 0.616492 0.651030 0.159358
H115  H     H_    0.480296 0.540020 0.531174 0.243765
H116  H     H_    0.408046 0.637103 0.535486 0.159797
H117  H     H_    0.743117 0.712647 0.425413 0.164645
H118  H     H_    0.748789 0.588654 0.362519 0.173964
H119  H     H_    0.720793 0.732080 0.333183 0.192027
H120  H     H_    0.620778 0.602396 0.346077 0.184962
O1    O     O_R   0.787520 0.042810 0.170440 -0.511781
O2    O     O_R   0.454050 0.051210 0.669140 -0.547403
O3    O     O_R   0.045950 0.551210 0.330860 -0.511459
O4    O     O_R   0.954050 0.551210 0.669140 -0.544811
O5    O     O_R   0.681390 0.959480 0.325510 -0.447433
O6    O     O_R   0.318610 0.959480 0.674490 -0.469617
O7    O     O_R   0.181390 0.459480 0.325510 -0.448544
O8    O     O_R   0.818610 0.459480 0.674490 -0.467697
O9    O     O_3   0.667900 0.167900 0.250060 -0.336761
O10   O     O_3   0.332100 0.167900 0.749940 -0.286061
O11   O     O_3   0.167900 0.667900 0.250060 -0.322562
O12   O     O_R   0.212480 0.042810 0.829560 -0.523933
O13   O     O_3   0.832100 0.667900 0.749940 -0.300011
O14   O     O_R   0.765640 0.292100 0.175020 -0.508271
O15   O     O_R   0.234360 0.292100 0.824980 -0.509821
O16   O     O_R   0.265640 0.792100 0.175020 -0.505467
O17   O     O_R   0.734360 0.792100 0.824980 -0.501024
O18   O     O_R   0.670190 0.408840 0.168540 -0.529411
O19   O     O_R   0.329810 0.408840 0.831460 -0.537205
O20   O     O_R   0.170190 0.908840 0.168540 -0.529479
O21   O     O_R   0.829810 0.908840 0.831460 -0.536544
O22   O     O_R   0.556620 0.251410 0.175160 -0.448553
O23   O     O_R   0.287520 0.542810 0.170440 -0.533002
O24   O     O_R   0.443380 0.251410 0.824840 -0.443291
O25   O     O_R   0.056620 0.751410 0.175160 -0.427510
O26   O     O_R   0.943380 0.751410 0.824840 -0.468929
O27   O     O_R   0.545960 0.049620 0.170320 -0.550347
O28   O     O_R   0.454040 0.049620 0.829680 -0.552097
O29   O     O_R   0.045960 0.549620 0.170320 -0.544710
O30   O     O_R   0.954040 0.549620 0.829680 -0.540133
O31   O     O_R   0.681390 0.958010 0.176690 -0.516206
O32   O     O_R   0.318610 0.958010 0.823310 -0.514020
O33   O     O_R   0.181390 0.458010 0.176690 -0.501887
O34   O     O_R   0.712480 0.542810 0.829560 -0.536555
O35   O     O_R   0.818610 0.458010 0.823310 -0.517114
O36   O     O_R   0.787510 0.044390 0.330970 -0.505082
O37   O     O_R   0.212490 0.044390 0.669030 -0.464502
O38   O     O_R   0.287510 0.544390 0.330970 -0.506580
O39   O     O_R   0.712490 0.544390 0.669030 -0.463205
O40   O     O_R   0.765630 0.293570 0.323840 -0.528968
O41   O     O_R   0.234370 0.293570 0.676160 -0.511501
O42   O     O_R   0.265630 0.793570 0.323840 -0.531079
O43   O     O_R   0.734370 0.793570 0.676160 -0.507865
O44   O     O_R   0.670190 0.410420 0.329080 -0.500687
O45   O     O_R   0.556610 0.252880 0.323980 -0.435946
O46   O     O_R   0.329810 0.410420 0.670920 -0.539551
O47   O     O_R   0.170190 0.910420 0.329080 -0.502532
O48   O     O_R   0.829810 0.910420 0.670920 -0.537452
O49   O     O_R   0.443390 0.252880 0.676020 -0.470817
O50   O     O_R   0.056610 0.752880 0.323980 -0.436138
O51   O     O_R   0.943390 0.752880 0.676020 -0.471041
O52   O     O_R   0.545950 0.051210 0.330860 -0.507255

loop_
_geom_bond_atom_site_label_1
_geom_bond_atom_site_label_2
_ccdc_geom_bond_type
C45   C118  S    
C44   H90   S    
Cr3   O33   S    
C136  C140  A    
C153  H29   S    
C124  F7    S    
C99   O25   A    
C151  F2    S    
C3    C131  A    
C52   H115  S    
C147  O32   A    
C39   H83   S    
Cr11  O48   S    
C106  C107  A    
C70   C87   S    
Cr4   O30   S    
C126  C143  S    
C108  C109  A    
Cr12  O5    S    
C74   C92   S    
C110  C111  A    
C9    O49   A    
C48   H105  S    
C76   C94   A    
Cr6   O23   S    
C22   C113  A    
C78   C96   A    
C70   C74   A    
C4    O40   A    
C17   C98   S    
C128  C154  A    
Cr10  O50   S    
C72   C94   A    
C40   H81   S    
C64   H20   S    
C56   H7    S    
C59   C60   S    
Cr1   O1    S    
C21   C22   A    
Cr2   O6    S    
C88   H52   S    
C47   H95   S    
C109  C118  S    
C45   C47   S    
C143  H13   S    
C67   C85   S    
C90   H54   S    
C7    C119  S    
C85   H45   S    
C6    O47   A    
C86   C90   S    
Cr11  O26   S    
Cr3   O11   S    
C2    C59   S    
Cr4   O4    S    
C20   C28   A    
C35   C66   A    
C132  C137  A    
C81   H36   S    
Cr7   O39   S    
Cr8   O45   S    
C17   C21   A    
C142  C151  S    
C19   C23   A    
C43   C44   S    
C62   H17   S    
C51   H107  S    
C37   C38   S    
C79   H35   S    
C116  H55   S    
C138  H77   S    
C98   O24   A    
C123  C141  S    
C118  H33   S    
C5    O46   A    
C4    C122  S    
C33   H62   S    
C7    O48   A    
C128  C150  S    
C44   H92   S    
Cr7   O34   S    
Cr8   O22   S    
Cr3   O29   S    
C24   C63   S    
C39   C115  S    
C54   H3    S    
C130  C152  S    
Cr11  O13   S    
C120  C138  A    
C73   C95   A    
C39   C40   S    
C41   H89   S    
C75   C93   A    
Cr1   O36   S    
C112  F10   S    
Cr8   O9    S    
C10   O50   A    
C84   C88   S    
C12   C154  S    
C71   C93   A    
C119  C123  A    
C64   H21   S    
C106  C115  S    
C69   O15   A    
Cr7   O13   S    
C87   H40   S    
C76   H31   S    
C141  H110  S    
C20   C99   S    
C77   C82   A    
C136  F15   S    
C98   O28   A    
C36   H68   S    
C25   C135  A    
C127  C131  A    
C71   C88   S    
C110  F1    S    
C125  C129  A    
C51   H108  S    
C111  F9    S    
Cr4   O35   S    
C103  C107  A    
C75   C79   A    
C77   H32   S    
Cr12  O52   S    
C121  C139  A    
C31   H58   S    
C7    O43   A    
C112  C114  A    
C137  H66   S    
C103  C110  A    
C150  H26   S    
C73   C90   S    
C65   C70   A    
C149  O34   A    
C33   H64   S    
C34   H72   S    
C3    C136  A    
C89   H49   S    
C122  C127  A    
C37   H78   S    
C9    O2    A    
C58   H6    S    
C132  C154  A    
C30   H60   S    
C131  C153  S    
C53   H114  S    
C134  F14   S    
C84   H41   S    
C38   H74   S    
C141  C150  S    
C49   H102  S    
Cr7   O17   S    
C17   C27   A    
C74   C96   A    
C134  C139  A    
Cr5   O37   S    
C150  F16   S    
C124  C146  A    
C32   H65   S    
C36   H70   S    
C4    O44   A    
C42   H86   S    
C61   H18   S    
C43   H93   S    
Cr8   O44   S    
Cr2   O2    S    
Cr5   O10   S    
C132  F12   S    
C21   C102  A    
C133  F13   S    
C97   O27   A    
C26   C30   S    
C86   H39   S    
C57   C68   A    
C91   O21   A    
C52   C53   S    
C145  O1    A    
C101  C106  A    
C105  C109  A    
C54   C55   S    
C92   H56   S    
C45   H98   S    
C18   C22   A    
C108  C117  S    
C130  C156  A    
C55   H118  S    
Cr5   O41   S    
C139  H88   S    
Cr11  O51   S    
C2    C135  A    
Cr5   O15   S    
C135  F8    S    
C52   H116  S    
Cr6   O16   S    
Cr11  O21   S    
Cr12  O31   S    
C122  C140  A    
C117  C118  S    
C46   C80   S    
C10   O3    A    
C153  F4    S    
C35   C79   A    
C56   C58   S    
C48   C141  S    
C41   H87   S    
C34   C36   S    
C61   C62   S    
C107  C116  S    
C63   C64   S    
C69   O19   A    
C57   C82   A    
C41   C116  S    
C13   C102  A    
C84   H43   S    
C3    C16   S    
C50   C142  S    
C60   H11   S    
Cr3   O3    S    
C113  F6    S    
C54   C144  S    
C56   H8    S    
C41   C42   S    
C18   C26   A    
C102  F5    S    
C32   H67   S    
C26   C27   A    
C31   H59   S    
C28   C29   A    
C14   O6    A    
C129  C151  S    
C30   C31   S    
C147  O12   A    
C40   H79   S    
C49   H103  S    
C20   C25   A    
C126  C130  A    
C59   H14   S    
Cr9   O24   S    
C50   H111  S    
C100  O30   A    
C47   H97   S    
C78   C83   A    
C134  C156  A    
C8    O45   A    
C14   O37   A    
C37   H76   S    
C11   C104  S    
C18   C97   S    
C53   H112  S    
Cr9   O49   S    
C152  H28   S    
C28   C34   S    
C133  C138  A    
C45   H100  S    
C63   H23   S    
C87   C92   S    
C63   H25   S    
C1    O18   A    
Cr10  O20   S    
C52   C143  S    
C86   H46   S    
C89   H53   S    
C129  C155  A    
C85   C89   S    
C64   H22   S    
C32   C33   S    
Cr9   O10   S    
Cr2   O32   S    
C1    O14   A    
C50   C51   S    
C148  O33   A    
C43   C117  S    
C143  C152  S    
C15   O38   A    
C19   C29   A    
Cr9   O19   S    
C104  C108  A    
C47   H96   S    
C12   O36   A    
C11   O51   A    
C27   C32   S    
C120  C125  A    
C31   H57   S    
C36   H69   S    
C62   H15   S    
C16   O39   A    
C19   C100  S    
C59   H12   S    
C101  C111  A    
C92   H51   S    
C60   H9    S    
C50   H109  S    
C62   H16   S    
C115  H44   S    
C117  H1    S    
C78   H34   S    
C48   H104  S    
C55   H119  S    
C100  O26   A    
C99   O29   A    
C96   C149  S    
C33   H63   S    
Cr5   O12   S    
C127  C144  S    
C56   C146  S    
Cr6   O11   S    
C91   O17   A    
C8    C103  S    
C121  C126  A    
C44   H91   S    
C114  F11   S    
C29   C37   S    
Cr1   O14   S    
Cr12  O9    S    
C97   O22   A    
C115  C116  S    
C144  H24   S    
Cr10  O47   S    
C16   O8    A    
C30   H61   S    
C14   C155  S    
C68   C86   S    
Cr12  O27   S    
C53   H113  S    
C38   H75   S    
C39   H82   S    
C60   H10   S    
C82   H37   S    
C49   H101  S    
C151  H27   S    
Cr2   O10   S    
Cr9   O46   S    
C67   C72   A    
C65   C83   A    
Cr10  O11   S    
C5    C121  S    
C90   H50   S    
C144  C153  S    
Cr3   O7    S    
C83   H38   S    
Cr4   O8    S    
C66   C71   A    
Cr1   O9    S    
Cr10  O25   S    
Cr7   O43   S    
C93   C145  S    
C8    O52   A    
C24   C113  A    
C6    C120  S    
Cr4   O13   S    
C142  H2    S    
Cr8   O18   S    
C58   H4    S    
C119  C137  A    
C145  O31   A    
C51   H106  S    
Cr6   O38   S    
C54   H120  S    
C152  F3    S    
C55   H117  S    
Cr1   O40   S    
C68   C73   A    
C77   C95   A    
C5    O41   A    
C149  O35   A    
C13   C24   A    
C34   H71   S    
C148  O23   A    
C46   C81   A    
C1    C65   S    
C125  C142  S    
C58   H5    S    
C80   O16   A    
C15   C156  S    
C104  C114  A    
C80   O20   A    
C140  H99   S    
C42   H84   S    
C38   H73   S    
C94   C147  S    
C48   C49   S    
C11   O4    A    
C88   H48   S    
C133  C155  A    
C105  C112  A    
C95   C148  S    
C76   C81   A    
Cr6   O42   S    
C23   C124  A    
C2    C146  A    
Cr2   O28   S    
C75   H30   S    
C12   O5    A    
C42   H85   S    
C46   C67   A    
C61   H19   S    
C72   C89   S    
C40   H80   S    
C123  C128  A    
C43   H94   S    
C87   H47   S    
C23   C25   A    
C66   C84   S    
C13   C61   S    
C9    C101  S    
C10   C105  S    
C85   H42   S    
C57   C69   S    
C6    O42   A    
C15   O7    A    
C35   C91   S    
