data_mof_unit_54771.cif
_audit_creation_date              2012-12-10T17:09:53-0500
_audit_creation_method            fapswitch 2.2
_symmetry_space_group_name_H-M    P1
_symmetry_Int_Tables_number       1
_space_group_crystal_system       triclinic
_cell_length_a                    10.891802
_cell_length_b                    13.05815
_cell_length_c                    11.716462
_cell_angle_alpha                 99.115934
_cell_angle_beta                  94.744645
_cell_angle_gamma                 92.914135
_cell_volume                      1636.24365036

loop_
_atom_site_label
_atom_site_type_symbol
_atom_type_description
_atom_site_fract_x
_atom_site_fract_y
_atom_site_fract_z
_atom_type_partial_charge
C1    C     C_R   0.507120 0.299506 0.479430 0.843431
C2    C     C_R   0.078907 0.578195 0.603581 -0.019627
C3    C     C_R   0.132447 0.538447 0.500467 -0.204672
C4    C     C_R   0.058241 0.527275 0.393917 0.202343
C5    C     C_R   0.930116 0.510768 0.393581 0.222169
C6    C     C_R   0.874509 0.530111 0.499800 -0.188864
C7    C     C_R   0.488643 0.812156 0.533935 -0.072988
C8    C     C_R   0.516636 0.185428 0.468540 -0.237301
C9    C     C_R   0.494098 0.015560 0.345703 0.219622
C10   C     C_R   0.515645 0.124325 0.357145 0.235947
C11   C     C_R   0.524805 0.137758 0.568963 -0.142409
C12   C     C_R   0.264042 0.513581 0.500621 0.821002
C13   C     C_R   0.501508 0.029500 0.558881 0.027971
C14   C     C_R   0.490599 0.968422 0.446289 0.033797
C15   C     C_R   0.483404 0.860030 0.436203 -0.230457
C16   C     C_R   0.486571 0.871233 0.643675 -0.255926
C17   C     C_R   0.489604 0.978865 0.657143 0.009565
C18   C     C_R   0.411499 0.384083 0.019163 -0.351499
C19   C     C_R   0.412033 0.397581 0.140391 0.138788
C20   C     C_R   0.539241 0.553857 0.158866 0.106855
C21   C     C_R   0.531231 0.548039 0.034985 -0.040894
C22   C     C_R   0.471248 0.458301 0.965712 0.013156
C23   C     C_R   0.496561 0.700075 0.521053 0.820455
C24   C     C_R   0.468253 0.445756 0.843270 0.047143
C25   C     C_R   0.576594 0.608050 0.854451 0.018111
C26   C     C_R   0.577647 0.627954 0.976422 0.111394
C27   C     C_R   0.738797 0.508710 0.500701 0.882585
C28   C     C_R   0.151535 0.627350 0.704764 -0.268573
C29   C     C_R   0.097594 0.667938 0.804618 0.240845
C30   C     C_R   0.969831 0.676148 0.799584 0.211184
C31   C     C_R   0.898537 0.647427 0.691116 0.188090
C32   C     C_R   0.948797 0.581311 0.600489 -0.018631
Cu1   Cu    Cu3+1 0.509250 0.507730 0.615930 0.947523
Cu2   Cu    Cu3+1 0.490750 0.492270 0.384070 0.963526
H1    H     H_    0.419981 0.377916 0.790236 0.143804
H2    H     H_    0.612937 0.666007 0.809619 0.145369
H3    H     H_    0.361785 0.316520 0.966330 0.158312
H4    H     H_    0.250070 0.641212 0.707222 0.187498
H5    H     H_    0.478486 0.811068 0.352506 0.173070
H6    H     H_    0.481927 0.833412 0.719393 0.152183
N1    N     N_R   0.523180 0.519350 0.790130 -0.208651
N2    N     N_R   0.476820 0.480650 0.209890 -0.228945
O1    O     O_R   0.506570 0.354460 0.582000 -0.579979
O2    O     O_R   0.490940 0.341410 0.386200 -0.559776
O3    O     O_R   0.327470 0.506530 0.597920 -0.591207
O4    O     O_R   0.311840 0.493480 0.402120 -0.570618
O5    O     O_R   0.509060 0.658590 0.613800 -0.608045
O6    O     O_R   0.493430 0.645540 0.418000 -0.598568
O7    O     O_R   0.688160 0.506520 0.597880 -0.565074
O8    O     O_R   0.672530 0.493470 0.402080 -0.557736
N3    N     N_2   0.107850 0.554458 0.292711 -0.424812
H7    H     H_    0.181214 0.609505 0.306603 0.259844
C33   C     C_3   0.110978 0.474072 0.192981 -0.630730
H8    H     H_    0.035590 0.481742 0.126112 0.207902
H9    H     H_    0.198236 0.484191 0.152860 0.210422
H10   H     H_    0.102578 0.395542 0.217514 0.244013
C34   C     C_1   0.470379 0.032545 0.771421 0.223926
N4    N     N_1   0.454235 0.074870 0.862922 -0.317519
N5    N     N_2   0.556507 0.174264 0.264811 -0.415788
H11   H     H_    0.639014 0.218033 0.286191 0.236832
C35   C     C_3   0.533420 0.131897 0.142822 -0.555275
H12   H     H_    0.555291 0.193647 0.091121 0.213183
H13   H     H_    0.434691 0.106180 0.120173 0.261385
H14   H     H_    0.594704 0.068207 0.119270 0.224459
C36   C     C_1   0.580347 0.196970 0.678197 0.299714
N6    N     N_1   0.625802 0.243966 0.764843 -0.285368
N7    N     N_2   0.615061 0.729892 0.037372 -0.442516
H15   H     H_    0.705034 0.737582 0.073139 0.264800
C37   C     C_3   0.581190 0.817600 0.982020 -0.710472
H16   H     H_    0.602607 0.890571 0.043964 0.240666
H17   H     H_    0.481031 0.810630 0.952846 0.240996
H18   H     H_    0.636058 0.824251 0.907667 0.198969
C38   C     C_1   0.339738 0.322554 0.188664 0.323512
N8    N     N_1   0.280910 0.261794 0.226325 -0.310337
C39   C     C_1   0.623926 0.630437 0.231177 0.332749
N9    N     N_1   0.692787 0.691792 0.288563 -0.336969
N10   N     N_2   0.172679 0.715256 0.906350 -0.402303
H19   H     H_    0.217519 0.784314 0.896331 0.243544
C40   C     C_3   0.254531 0.647387 0.956731 -0.678983
H20   H     H_    0.298210 0.687742 0.042053 0.235763
H21   H     H_    0.327712 0.626635 0.898834 0.229346
H22   H     H_    0.203193 0.575236 0.970058 0.228778
N11   N     N_2   0.917640 0.717602 0.903444 -0.412326
H23   H     H_    0.840568 0.759000 0.896472 0.238049
C41   C     C_3   0.911111 0.646965 0.986779 -0.657995
H24   H     H_    0.902816 0.691570 0.074252 0.225576
H25   H     H_    0.995575 0.603710 0.992866 0.245821
H26   H     H_    0.830704 0.589915 0.961147 0.211638
N12   N     N_2   0.796722 0.706198 0.661607 -0.418805
H27   H     H_    0.751888 0.740970 0.729247 0.233863
C42   C     C_3   0.824996 0.780419 0.586115 -0.676026
H28   H     H_    0.742834 0.824027 0.568220 0.233851
H29   H     H_    0.851673 0.740527 0.501827 0.248093
H30   H     H_    0.901285 0.837008 0.628455 0.219496
N13   N     N_2   0.856335 0.485440 0.285409 -0.392507
H31   H     H_    0.871519 0.531043 0.223193 0.265784
C43   C     C_3   0.826492 0.376002 0.242479 -0.648965
H32   H     H_    0.887754 0.346937 0.175220 0.212157
H33   H     H_    0.729884 0.365469 0.202142 0.238839
H34   H     H_    0.835273 0.329019 0.313695 0.208636
N14   N     N_2   0.476271 0.953946 0.233412 -0.444671
H35   H     H_    0.534647 0.894516 0.220185 0.265965
C44   C     C_3   0.348569 0.923834 0.191763 -0.673971
H36   H     H_    0.342840 0.888267 0.098862 0.233824
H37   H     H_    0.292395 0.992884 0.199713 0.245681
H38   H     H_    0.309302 0.866428 0.241545 0.222961

loop_
_geom_bond_atom_site_label_1
_geom_bond_atom_site_label_2
_ccdc_geom_bond_type
C6    C32   A    
C21   C26   A    
N14   H35   S    
C37   H18   S    
C1    C8    S    
Cu1   O3    S    
C38   N8    T    
N13   H31   S    
Cu2   N2    S    
C9    C14   A    
C43   H32   S    
C33   H8    S    
N11   H23   S    
C26   N7    S    
C28   C29   A    
C18   H3    S    
C5    C6    A    
C33   H10   S    
Cu1   O7    S    
C2    C32   A    
C18   C19   A    
C30   N11   S    
C35   H13   S    
C3    C12   S    
C43   H33   S    
C1    O1    A    
C31   C32   A    
C16   C17   A    
C31   N12   S    
Cu2   O4    S    
N12   C42   S    
C9    C10   A    
C19   N2    A    
N10   H19   S    
C33   H9    S    
C37   H17   S    
N5    H11   S    
N14   C44   S    
C21   C22   A    
C24   N1    A    
C35   H12   S    
C5    N13   S    
N10   C40   S    
N5    C35   S    
C24   H1    S    
Cu2   O8    S    
C41   H25   S    
N3    H7    S    
Cu1   O1    S    
C19   C38   S    
Cu2   O2    S    
C12   O4    A    
C25   N1    A    
C42   H28   S    
C40   H21   S    
C12   O3    A    
C4    N3    S    
C25   C26   A    
C41   H24   S    
N7    H15   S    
C20   C39   S    
N3    C33   S    
C35   H14   S    
C39   N9    T    
C29   C30   A    
C42   H29   S    
C1    O2    A    
C6    C27   S    
C28   H4    S    
N13   C43   S    
Cu1   Cu2   S    
C44   H37   S    
C15   H5    S    
C16   H6    S    
C8    C10   A    
C7    C16   A    
N11   C41   S    
Cu1   O5    S    
C22   C24   A    
Cu2   O6    S    
C3    C4    A    
C43   H34   S    
C41   H26   S    
C23   O6    A    
C18   C22   A    
C4    C5    A    
C40   H22   S    
C20   N2    A    
C27   O8    A    
C13   C17   A    
Cu1   N1    S    
C23   O5    A    
C2    C3    A    
C42   H30   S    
C11   C13   A    
C34   N4    T    
C30   C31   A    
C8    C11   A    
C7    C23   S    
C7    C15   A    
C10   N5    S    
C44   H38   S    
C37   H16   S    
C25   H2    S    
C40   H20   S    
C27   O7    A    
C29   N10   S    
C20   C21   A    
C9    N14   S    
C36   N6    T    
C44   H36   S    
C14   C15   A    
C2    C28   A    
N7    C37   S    
N12   H27   S    
C13   C14   A    
C11   C36   S    
C17   C34   S    
