data_mof_unit_29068.cif
_audit_creation_date              2012-12-11T14:01:14-0500
_audit_creation_method            fapswitch 2.2
_symmetry_space_group_name_H-M    P1
_symmetry_Int_Tables_number       1
_space_group_crystal_system       triclinic
_cell_length_a                    18.977502
_cell_length_b                    10.961385
_cell_length_c                    18.72844
_cell_angle_alpha                 90.116104
_cell_angle_beta                  90.0752
_cell_angle_gamma                 89.759009
_cell_volume                      3895.83880594

loop_
_atom_site_label
_atom_site_type_symbol
_atom_type_description
_atom_site_fract_x
_atom_site_fract_y
_atom_site_fract_z
_atom_type_partial_charge
C1    C     C_R   0.272680 0.041245 0.853920 0.551311
C2    C     C_R   0.727356 0.041296 0.146105 0.550879
C3    C     C_R   0.772675 0.541261 0.853913 0.547429
C4    C     C_R   0.227362 0.541315 0.146114 0.548974
C5    C     C_R   0.485178 0.055539 0.072936 -0.058647
C6    C     C_R   0.515027 0.054975 0.927254 -0.058973
C7    C     C_R   0.985177 0.555536 0.072940 -0.058342
C8    C     C_R   0.015017 0.554982 0.927258 -0.058626
C9    C     C_R   0.991047 0.666161 0.036592 0.112048
C10   C     C_R   0.009478 0.665842 0.963759 0.111532
C11   C     C_R   0.491049 0.166161 0.036585 0.112241
C12   C     C_R   0.509486 0.165837 0.963752 0.111951
C13   C     C_2   0.246327 0.575220 0.918798 -0.094975
C14   C     C_2   0.753998 0.574815 0.081240 -0.094890
C15   C     C_2   0.746308 0.075176 0.918779 -0.094758
C16   C     C_2   0.254017 0.074777 0.081257 -0.094737
C17   C     C_2   0.248691 0.577586 0.074910 -0.130589
C18   C     C_2   0.751375 0.577481 0.925247 -0.130029
C19   C     C_2   0.748673 0.077533 0.074890 -0.130543
C20   C     C_2   0.251389 0.077434 0.925265 -0.129980
C21   C     C_2   0.283705 0.496489 0.033932 -0.110259
C22   C     C_2   0.716789 0.496310 0.966028 -0.109755
C23   C     C_2   0.783670 0.996413 0.033910 -0.110550
C24   C     C_2   0.216823 0.996237 0.966049 -0.110366
C25   C     C_2   0.295585 0.516111 0.957814 0.062248
C26   C     C_2   0.704950 0.515750 0.042190 0.062554
C27   C     C_2   0.795554 0.016033 0.957790 0.063188
C28   C     C_2   0.204984 0.015666 0.042215 0.063193
C29   C     C_2   0.452278 0.829905 0.565006 -0.104564
C30   C     C_2   0.479782 0.836206 0.411110 -0.111648
C31   C     C_2   0.953072 0.329376 0.565370 -0.091659
C32   C     C_2   0.981302 0.338057 0.412207 -0.106306
C33   C     C_2   0.458502 0.736186 0.446050 -0.156371
C34   C     C_2   0.436277 0.738165 0.520744 -0.169746
C35   C     C_2   0.955507 0.239685 0.445528 -0.156306
C36   C     C_2   0.931005 0.243630 0.519629 -0.167836
C37   C     C_2   0.269427 0.658249 0.563753 -0.125501
C38   C     C_2   0.729170 0.660059 0.436469 -0.112196
C39   C     C_2   0.748181 0.065995 0.583262 -0.132168
C40   C     C_2   0.244905 0.115498 0.431290 -0.103536
C41   C     C_2   0.258388 0.614850 0.411213 -0.052625
C42   C     C_2   0.741435 0.615268 0.588927 -0.063144
C43   C     C_2   0.735958 0.068220 0.428716 -0.053189
C44   C     C_2   0.241922 0.105228 0.586180 -0.063840
C45   C     C_R   0.472067 0.822148 0.852928 0.546107
C46   C     C_R   0.527952 0.822302 0.147061 0.533689
C47   C     C_R   0.972065 0.322148 0.852930 0.546610
C48   C     C_R   0.027954 0.322301 0.147060 0.534755
C49   C     C_2   0.223856 0.706229 0.444660 0.076483
C50   C     C_2   0.775681 0.707256 0.556107 0.078451
C51   C     C_2   0.682698 0.043640 0.474586 0.066048
C52   C     C_2   0.275080 0.193954 0.550793 0.069872
C53   C     C_2   0.242573 0.740026 0.518119 -0.158748
C54   C     C_2   0.758298 0.739741 0.481870 -0.146987
C55   C     C_2   0.687688 0.078063 0.548898 -0.148317
C56   C     C_2   0.260125 0.210057 0.474819 -0.126979
C57   C     C_R   0.260491 0.634471 0.850779 0.558772
C58   C     C_R   0.739602 0.634455 0.149254 0.555817
C59   C     C_R   0.760487 0.134462 0.850775 0.548417
C60   C     C_R   0.239607 0.134442 0.149260 0.548626
C61   C     C_R   0.270769 0.048821 0.649762 0.549870
C62   C     C_R   0.725938 0.042480 0.353884 0.568129
C63   C     C_R   0.770828 0.549951 0.649943 0.557739
C64   C     C_R   0.229065 0.549843 0.350189 0.566494
C65   C     C_R   0.436760 0.819709 0.640379 0.551172
C66   C     C_R   0.526114 0.824167 0.349614 0.558261
C67   C     C_R   0.936496 0.319602 0.640415 0.571239
C68   C     C_R   0.026965 0.324382 0.350383 0.553351
C69   C     C_R   0.275011 0.689582 0.638255 0.546089
C70   C     C_R   0.724682 0.690148 0.361625 0.576087
C71   C     C_R   0.760339 0.134325 0.647375 0.545462
C72   C     C_R   0.238544 0.141595 0.356055 0.548278
C73   C     C_R   0.499223 0.830592 0.074670 0.001632
C74   C     C_R   0.500825 0.830320 0.925315 -0.000859
C75   C     C_R   0.999230 0.330588 0.074668 0.001699
C76   C     C_R   0.000822 0.330322 0.925316 0.000160
C77   C     C_R   0.496101 0.943218 0.037553 -0.015986
C78   C     C_R   0.503969 0.943013 0.962535 -0.017457
C79   C     C_R   0.996100 0.443216 0.037554 -0.016372
C80   C     C_R   0.003964 0.443016 0.962537 -0.017580
C81   C     C_R   0.502105 0.720812 0.963484 -0.141562
C82   C     C_R   0.498023 0.720965 0.036391 -0.140828
C83   C     C_R   0.002108 0.220811 0.963481 -0.141221
C84   C     C_R   0.998039 0.220962 0.036388 -0.140831
Cr1   Cr    Cr6+3 0.230530 0.836340 0.748870 1.027848
Cr2   Cr    Cr6+3 0.769470 0.836340 0.251130 1.029999
Cr3   Cr    Cr6+3 0.730530 0.336340 0.748870 1.029811
Cr4   Cr    Cr6+3 0.269470 0.336340 0.251130 1.027482
Cr5   Cr    Cr6+3 0.387420 0.989430 0.750820 1.036540
Cr6   Cr    Cr6+3 0.612580 0.989430 0.249180 1.038565
Cr7   Cr    Cr6+3 0.887420 0.489430 0.750820 1.045515
Cr8   Cr    Cr6+3 0.112580 0.489430 0.249180 1.046587
Cr9   Cr    Cr6+3 0.385640 0.677860 0.749230 1.012718
Cr10  Cr    Cr6+3 0.614360 0.677860 0.250770 1.018372
Cr11  Cr    Cr6+3 0.885640 0.177860 0.749230 1.012400
Cr12  Cr    Cr6+3 0.114360 0.177860 0.250770 1.021909
H1    H     H_    0.502224 0.632988 0.936901 0.141714
H2    H     H_    0.497974 0.633242 0.062879 0.141394
H3    H     H_    0.002222 0.132987 0.936898 0.141798
H4    H     H_    0.998005 0.133236 0.062874 0.141420
H5    H     H_    0.225624 0.828888 0.537623 0.126804
H6    H     H_    0.777511 0.826184 0.461610 0.134257
H7    H     H_    0.641851 0.119810 0.573891 0.156361
H8    H     H_    0.267805 0.300933 0.452958 0.141625
H9    H     H_    0.307260 0.578778 0.432991 0.055642
H10   H     H_    0.693105 0.578593 0.566732 0.075373
H11   H     H_    0.785715 0.106691 0.446284 0.050223
H12   H     H_    0.196536 0.060537 0.562339 0.074348
H13   H     H_    0.284708 0.566799 0.547508 0.090962
H14   H     H_    0.710943 0.570838 0.452960 0.104573
H15   H     H_    0.792371 0.017958 0.559192 0.082414
H16   H     H_    0.237740 0.023333 0.450575 0.066240
H17   H     H_    0.470332 0.058385 0.128688 0.151490
H18   H     H_    0.529831 0.057299 0.871492 0.153840
H19   H     H_    0.970334 0.558380 0.128692 0.153095
H20   H     H_    0.029817 0.557312 0.871495 0.155735
H21   H     H_    0.304592 0.412461 0.056471 0.168526
H22   H     H_    0.696229 0.412335 0.943299 0.168924
H23   H     H_    0.804546 0.912379 0.056452 0.168076
H24   H     H_    0.196275 0.912255 0.943317 0.168420
H25   H     H_    0.228199 0.662459 0.053189 0.105403
H26   H     H_    0.771539 0.662292 0.947171 0.105121
H27   H     H_    0.728191 0.162411 0.053167 0.105523
H28   H     H_    0.271542 0.162251 0.947190 0.105502
H29   H     H_    0.195482 0.596315 0.942650 0.094157
H30   H     H_    0.804733 0.595759 0.057368 0.093771
H31   H     H_    0.695462 0.096279 0.942629 0.094617
H32   H     H_    0.304748 0.095746 0.057383 0.094069
H33   H     H_    0.464851 0.646272 0.422343 0.156929
H34   H     H_    0.413385 0.655056 0.541781 0.138729
H35   H     H_    0.958593 0.150110 0.420760 0.155488
H36   H     H_    0.900855 0.166425 0.539027 0.133236
H37   H     H_    0.469706 0.927139 0.431643 0.104141
H38   H     H_    0.477124 0.912983 0.546619 0.106464
H39   H     H_    0.974374 0.429178 0.433886 0.111505
H40   H     H_    0.984836 0.406141 0.548562 0.116418
O1    O     O_R   0.215090 0.709860 0.828130 -0.508417
O2    O     O_R   0.784910 0.709860 0.171870 -0.511791
O3    O     O_R   0.715090 0.209860 0.828130 -0.513333
O4    O     O_R   0.284910 0.209860 0.171870 -0.514462
O5    O     O_R   0.445660 0.919250 0.676780 -0.494254
O6    O     O_R   0.554340 0.919250 0.323220 -0.477796
O7    O     O_R   0.945660 0.419250 0.676780 -0.491571
O8    O     O_R   0.054340 0.419250 0.323220 -0.496583
O9    O     O_R   0.456260 0.718170 0.670000 -0.503936
O10   O     O_R   0.543740 0.718170 0.330000 -0.520969
O11   O     O_R   0.956260 0.218170 0.670000 -0.500294
O12   O     O_R   0.043740 0.218170 0.330000 -0.510727
O13   O     O_R   0.320940 0.626760 0.674370 -0.516283
O14   O     O_R   0.679060 0.626760 0.325630 -0.495205
O15   O     O_R   0.820940 0.126760 0.674370 -0.524637
O16   O     O_R   0.179060 0.126760 0.325630 -0.493080
O17   O     O_3   0.334530 0.834540 0.749640 -0.291023
O18   O     O_3   0.665470 0.834540 0.250360 -0.267302
O19   O     O_3   0.834530 0.334540 0.749640 -0.272461
O20   O     O_3   0.165470 0.334540 0.250360 -0.251304
O21   O     O_R   0.236990 0.958390 0.823710 -0.496661
O22   O     O_R   0.763010 0.958390 0.176290 -0.499031
O23   O     O_R   0.736990 0.458390 0.823710 -0.498153
O24   O     O_R   0.263010 0.458390 0.176290 -0.499914
O25   O     O_R   0.332380 0.074750 0.830850 -0.503420
O26   O     O_R   0.667620 0.074750 0.169150 -0.505170
O27   O     O_R   0.832380 0.574750 0.830850 -0.506350
O28   O     O_R   0.167620 0.574750 0.169150 -0.504435
O29   O     O_R   0.445800 0.917770 0.825070 -0.499956
O30   O     O_R   0.554200 0.917770 0.174930 -0.507496
O31   O     O_R   0.945800 0.417770 0.825070 -0.501165
O32   O     O_R   0.054200 0.417770 0.174930 -0.507135
O33   O     O_R   0.456410 0.716580 0.829970 -0.522746
O34   O     O_R   0.543590 0.716580 0.170030 -0.529001
O35   O     O_R   0.956410 0.216580 0.829970 -0.523101
O36   O     O_R   0.043590 0.216580 0.170030 -0.528511
O37   O     O_R   0.321080 0.625290 0.822650 -0.494580
O38   O     O_R   0.678920 0.625290 0.177350 -0.495390
O39   O     O_R   0.821080 0.125290 0.822650 -0.500038
O40   O     O_R   0.178920 0.125290 0.177350 -0.498175
O41   O     O_R   0.214930 0.711450 0.668160 -0.487943
O42   O     O_R   0.785070 0.711450 0.331840 -0.501455
O43   O     O_R   0.714930 0.211450 0.668160 -0.506124
O44   O     O_R   0.285070 0.211450 0.331840 -0.510881
O45   O     O_R   0.236850 0.959870 0.675420 -0.531912
O46   O     O_R   0.763150 0.959870 0.324580 -0.524589
O47   O     O_R   0.736850 0.459870 0.675420 -0.508369
O48   O     O_R   0.263150 0.459870 0.324580 -0.520760
O49   O     O_R   0.332230 0.076350 0.670880 -0.472635
O50   O     O_R   0.667770 0.076350 0.329120 -0.474265
O51   O     O_R   0.832230 0.576350 0.670880 -0.474460
O52   O     O_R   0.167770 0.576350 0.329120 -0.462731
N1    N     N_3   0.164304 0.765529 0.412203 -0.579794
H41   H     H_    0.120889 0.754454 0.445856 0.239109
H42   H     H_    0.174882 0.858668 0.408889 0.220608
N2    N     N_3   0.833524 0.768547 0.590569 -0.574428
H43   H     H_    0.858708 0.826979 0.554794 0.217159
H44   H     H_    0.812481 0.822881 0.631303 0.232243
N3    N     N_3   0.618504 0.988122 0.451225 -0.575329
H45   H     H_    0.611278 0.908836 0.481257 0.219732
H46   H     H_    0.577023 0.047929 0.462959 0.225114
N4    N     N_3   0.327627 0.268609 0.584854 -0.577383
H47   H     H_    0.350529 0.326919 0.547430 0.216487
H48   H     H_    0.301736 0.324281 0.621963 0.238747
N5    N     N_3   0.978519 0.777399 0.074825 -0.637586
H49   H     H_    0.937287 0.824266 0.049801 0.242355
H50   H     H_    0.023747 0.830987 0.071993 0.249714
N6    N     N_3   0.022419 0.776664 0.925702 -0.636147
H51   H     H_    0.063850 0.822489 0.950780 0.242614
H52   H     H_    0.977414 0.831458 0.928651 0.249920
N7    N     N_3   0.478516 0.277402 0.074813 -0.638805
H53   H     H_    0.437283 0.324262 0.049785 0.242518
H54   H     H_    0.523742 0.330994 0.071981 0.249554
N8    N     N_3   0.522428 0.276656 0.925693 -0.636857
H55   H     H_    0.563856 0.322484 0.950772 0.242575
H56   H     H_    0.477421 0.331448 0.928638 0.250132
N9    N     N_3   0.359235 0.466970 0.927861 -0.652683
H57   H     H_    0.392874 0.538276 0.914457 0.265853
H58   H     H_    0.346966 0.415760 0.882370 0.250346
N10   N     N_3   0.641604 0.466500 0.072119 -0.653124
H59   H     H_    0.607530 0.537720 0.085619 0.266379
H60   H     H_    0.654192 0.415450 0.117530 0.249290
N11   N     N_3   0.859198 0.966875 0.927833 -0.652737
H61   H     H_    0.892853 0.038172 0.914449 0.266360
H62   H     H_    0.846924 0.915705 0.882328 0.248403
N12   N     N_3   0.141657 0.966362 0.072156 -0.652839
H63   H     H_    0.107557 0.037552 0.085643 0.266574
H64   H     H_    0.154267 0.915356 0.117579 0.249367

loop_
_geom_bond_atom_site_label_1
_geom_bond_atom_site_label_2
_ccdc_geom_bond_type
Cr10  O10   S    
C38   C70   S    
C16   C28   D    
C37   C69   S    
N5    H50   S    
N5    H49   S    
Cr9   O13   S    
C35   C36   S    
C70   O14   A    
C67   O7    A    
C2    O26   A    
C81   C82   A    
C40   H16   S    
Cr12  O20   S    
C77   C78   A    
C31   C67   S    
Cr9   O33   S    
C50   C54   S    
C75   C79   A    
C11   N7    S    
C25   N9    S    
Cr6   O26   S    
Cr4   O20   S    
Cr7   O31   S    
N10   H60   S    
C47   C76   S    
C5    C11   A    
C59   O39   A    
C36   H36   S    
C35   H35   S    
C23   H23   S    
Cr5   O5    S    
C75   C84   A    
Cr4   O48   S    
C49   N1    S    
C71   O43   A    
Cr12  O16   S    
C55   H7    S    
Cr2   O42   S    
C65   O5    A    
N7    H54   S    
C3    C18   S    
C26   N10   S    
C16   C60   S    
C7    H19   S    
N1    H42   S    
Cr11  O39   S    
C6    H18   S    
C21   H21   S    
C69   O41   A    
C48   O36   A    
Cr5   O17   S    
C41   C49   D    
C71   O15   A    
C20   C24   D    
C53   H5    S    
C72   O16   A    
C48   O32   A    
C4    O28   A    
Cr9   O9    S    
N4    H47   S    
C23   C27   S    
C38   H14   S    
C50   N2    S    
C9    C10   A    
C52   N4    S    
C37   H13   S    
C68   O12   A    
C3    O27   A    
C62   O50   A    
C64   O48   A    
C37   C53   D    
Cr8   O28   S    
C39   H15   S    
C29   H38   S    
C1    O25   A    
C15   H31   S    
Cr6   O30   S    
C3    O23   A    
N6    H51   S    
C82   H2    S    
C48   C75   S    
Cr7   O27   S    
C58   O38   A    
Cr1   O21   S    
Cr12  O12   S    
C27   N11   S    
C76   C83   A    
Cr5   O25   S    
Cr9   O37   S    
Cr4   O44   S    
Cr7   O7    S    
C44   H12   S    
N4    H48   S    
C14   C58   S    
C39   C55   D    
C24   H24   S    
C63   O47   A    
N7    H53   S    
C84   H4    S    
C32   C35   D    
C76   C80   A    
Cr11  O11   S    
N10   H59   S    
C56   H8    S    
C21   C25   S    
Cr12  O36   S    
N11   H61   S    
Cr2   O2    S    
C70   O42   A    
Cr1   O17   S    
C61   O45   A    
Cr6   O50   S    
C51   C55   S    
C40   C56   D    
N9    H57   S    
Cr3   O43   S    
C29   C34   D    
C17   C21   D    
C46   O34   A    
C45   C74   S    
N2    H44   S    
C19   C23   D    
C18   H26   S    
Cr7   O19   S    
C31   H40   S    
N11   H62   S    
C47   O31   A    
Cr8   O32   S    
C15   C27   D    
C83   C84   A    
C38   C54   D    
Cr1   O41   S    
C59   O3    A    
C42   C50   D    
Cr10  O18   S    
C30   H37   S    
C19   H27   S    
C64   O52   A    
C61   O49   A    
C33   C34   S    
C57   O1    A    
Cr8   O20   S    
C43   H11   S    
C14   C26   D    
Cr4   O24   S    
N12   H64   S    
Cr2   O22   S    
Cr5   O29   S    
C30   C66   S    
C41   H9    S    
C60   O4    A    
C57   O37   A    
C4    C17   S    
C17   H25   S    
N6    H52   S    
N8    H56   S    
C74   C78   A    
C60   O40   A    
C29   C65   S    
C79   C80   A    
Cr11  O15   S    
C72   O44   A    
C74   C81   A    
C5    C77   A    
C6    C12   A    
Cr1   O1    S    
C73   C82   A    
C66   O10   A    
C7    C79   A    
C33   H33   S    
N1    H41   S    
C22   H22   S    
Cr4   O4    S    
Cr7   O51   S    
C1    C20   S    
Cr1   O45   S    
C46   O30   A    
C40   C72   S    
C30   C33   D    
C5    H17   S    
C2    C19   S    
C18   C22   D    
Cr5   O49   S    
C62   O46   A    
C54   H6    S    
C28   N12   S    
C24   C28   S    
Cr3   O3    S    
Cr2   O46   S    
C13   C25   D    
C45   O33   A    
C44   C52   D    
Cr12  O40   S    
C32   H39   S    
C47   O35   A    
C11   C12   A    
Cr8   O52   S    
C66   O6    A    
Cr3   O19   S    
C44   C61   S    
Cr6   O6    S    
C63   O51   A    
C14   H30   S    
C32   C68   S    
C69   O13   A    
N2    H43   S    
Cr9   O17   S    
Cr2   O18   S    
N9    H58   S    
C13   H29   S    
C51   N3    S    
Cr10  O34   S    
Cr3   O47   S    
C58   O2    A    
Cr6   O18   S    
C4    O24   A    
C81   H1    S    
C43   C51   D    
C49   C53   S    
C65   O9    A    
C1    O21   A    
Cr3   O23   S    
C68   O8    A    
Cr11  O19   S    
C16   H32   S    
N12   H63   S    
Cr8   O8    S    
C15   C59   S    
C20   H28   S    
C6    C78   A    
C8    H20   S    
C12   N8    S    
N3    H45   S    
C42   H10   S    
C7    C9    A    
Cr10  O14   S    
C9    N5    S    
C13   C57   S    
C2    O22   A    
C34   H34   S    
C73   C77   A    
C8    C10   A    
N8    H55   S    
C22   C26   S    
C67   O11   A    
Cr10  O38   S    
C8    C80   A    
C39   C71   S    
C31   C36   D    
C83   H3    S    
C41   C64   S    
Cr11  O35   S    
C45   O29   A    
C42   C63   S    
C46   C73   S    
C52   C56   S    
C43   C62   S    
N3    H46   S    
C10   N6    S    
