data_mof_unit_37462.cif
_audit_creation_date              2012-12-10T18:53:04-0500
_audit_creation_method            fapswitch 2.2
_symmetry_space_group_name_H-M    P1
_symmetry_Int_Tables_number       1
_space_group_crystal_system       triclinic
_cell_length_a                    9.900377
_cell_length_b                    10.642781
_cell_length_c                    16.892609
_cell_angle_alpha                 90.3505
_cell_angle_beta                  84.391828
_cell_angle_gamma                 90.859323
_cell_volume                      1771.19444779

loop_
_atom_site_label
_atom_site_type_symbol
_atom_type_description
_atom_site_fract_x
_atom_site_fract_y
_atom_site_fract_z
_atom_type_partial_charge
C1    C     C_R   0.501109 0.739630 0.498250 0.833778
C2    C     C_R   0.069205 0.596257 0.533885 -0.131125
C3    C     C_R   0.073975 0.403656 0.465059 0.058596
C4    C     C_R   0.926028 0.596376 0.534916 0.053533
C5    C     C_R   0.480025 0.505624 0.652475 0.842770
C6    C     C_R   0.520126 0.499002 0.347014 0.853831
C7    C     C_R   0.464798 0.526040 0.737746 -0.117885
C8    C     C_R   0.536584 0.518320 0.261314 -0.138007
C9    C     C_R   0.549921 0.459719 0.782818 -0.148893
C10   C     C_R   0.443633 0.597366 0.230559 -0.161057
C11   C     C_R   0.540728 0.475870 0.863967 -0.103823
C12   C     C_R   0.498719 0.260597 0.502770 0.848082
C13   C     C_R   0.464174 0.637430 0.153188 -0.113519
C14   C     C_R   0.448594 0.560998 0.901144 0.067801
C15   C     C_R   0.571837 0.590851 0.102444 0.067659
C16   C     C_R   0.361035 0.629877 0.857427 -0.020684
C17   C     C_R   0.667377 0.509412 0.131140 -0.015163
C18   C     C_R   0.368222 0.611335 0.774133 -0.057615
C19   C     C_R   0.651119 0.474458 0.212398 -0.059098
C20   C     C_2   0.449610 0.578758 0.986276 -0.230504
C21   C     C_2   0.565671 0.606728 0.017139 -0.202979
C22   C     C_2   0.750059 0.391202 0.246362 0.533171
C23   C     C_R   0.563121 0.933823 0.557713 -0.155203
C24   C     C_2   0.278778 0.681713 0.724770 0.528663
C25   C     C_2   0.271603 0.726010 0.899149 0.501923
C26   C     C_2   0.775314 0.454311 0.074369 0.477753
C27   C     C_2   0.618972 0.128548 0.630280 0.425560
C28   C     C_2   0.378632 0.872815 0.372321 0.411551
C29   C     C_2   0.144079 0.296990 0.424639 0.480641
C30   C     C_2   0.855938 0.703058 0.575346 0.491432
C31   C     C_R   0.435982 0.066743 0.444351 -0.151068
C32   C     C_R   0.560490 0.063369 0.562975 -0.023036
C33   C     C_R   0.438273 0.937449 0.439220 -0.017526
C34   C     C_R   0.496881 0.128166 0.504880 -0.150270
C35   C     C_R   0.502510 0.872350 0.496940 -0.148824
C36   C     C_R   0.930808 0.403828 0.466019 -0.131833
H1    H     H_    0.623045 0.394160 0.755104 0.165789
H2    H     H_    0.826373 0.511330 0.027248 0.044255
H3    H     H_    0.390631 0.699646 0.131293 0.162605
H4    H     H_    0.607079 0.422609 0.898152 0.163406
H5    H     H_    0.608334 0.879947 0.602289 0.209908
H6    H     H_    0.390667 0.120551 0.399773 0.211773
H7    H     H_    0.603836 0.228169 0.640623 0.059760
H8    H     H_    0.392079 0.773201 0.362905 0.059979
H9    H     H_    0.111347 0.201794 0.440275 0.036184
H10   H     H_    0.888736 0.798247 0.559741 0.037651
H11   H     H_    0.355372 0.630926 0.266925 0.174901
H12   H     H_    0.658259 0.623223 0.978334 0.164223
H13   H     H_    0.356448 0.558415 0.023811 0.168348
H14   H     H_    0.878538 0.327816 0.438230 0.141547
H15   H     H_    0.121486 0.672399 0.561525 0.148999
H16   H     H_    0.714697 0.321394 0.290494 0.045662
H17   H     H_    0.320105 0.722288 0.668618 0.046929
H18   H     H_    0.228550 0.710610 0.959902 0.045485
N1    N     N_R   0.142790 0.500030 0.500020 -0.098575
N2    N     N_R   0.857210 0.499970 0.499980 -0.097192
O1    O     O_R   0.385380 0.683250 0.500010 -0.646205
O2    O     O_2   0.157516 0.690919 0.745035 -0.528873
O3    O     O_2   0.250176 0.825749 0.867660 -0.508572
O4    O     O_2   0.804551 0.343567 0.077812 -0.509208
O5    O     O_2   0.684251 0.071223 0.675659 -0.540109
O6    O     O_2   0.314367 0.930442 0.326564 -0.552967
O7    O     O_2   0.230871 0.313614 0.369319 -0.525294
O8    O     O_2   0.769111 0.686455 0.630651 -0.528373
O9    O     O_R   0.614620 0.316750 0.499990 -0.638786
O10   O     O_R   0.614710 0.683220 0.500000 -0.598584
O11   O     O_R   0.385290 0.316780 0.500000 -0.597462
O12   O     O_R   0.371780 0.500040 0.615800 -0.631332
O13   O     O_R   0.628220 0.499960 0.384200 -0.632873
O14   O     O_R   0.601110 0.500010 0.615800 -0.555410
O15   O     O_R   0.398890 0.499990 0.384200 -0.553712
O16   O     O_2   0.871884 0.403126 0.227833 -0.525815
Zn1   Zn    Zn3+2 0.346870 0.500020 0.500000 0.991692
Zn2   Zn    Zn3+2 0.653130 0.499980 0.500000 0.991612

loop_
_geom_bond_atom_site_label_1
_geom_bond_atom_site_label_2
_ccdc_geom_bond_type
O14   Zn2   S    
C6    O13   A    
C2    C4    A    
C31   C33   A    
C7    C9    A    
C20   H13   S    
O11   Zn1   S    
C31   H6    S    
C30   O8    D    
C25   O3    D    
C12   O9    A    
C23   C35   A    
C23   H5    S    
N1    Zn1   S    
C21   H12   S    
C23   C32   A    
C7    C18   A    
C9    H1    S    
C1    O10   A    
C24   H17   S    
C31   C34   A    
O13   Zn2   S    
C20   C21   D    
C4    N2    A    
C9    C11   A    
C32   C34   A    
C3    C29   S    
C5    O14   A    
C3    N1    A    
C3    C36   A    
C5    O12   A    
C18   C24   S    
C17   C26   S    
C16   C25   S    
C16   C18   A    
C29   O7    D    
C33   C35   A    
O1    Zn1   S    
C28   H8    S    
C28   C33   S    
C22   H16   S    
C1    O1    A    
C2    N1    A    
C13   C15   A    
C11   H4    S    
C12   O11   A    
C14   C16   A    
C13   H3    S    
C8    C19   A    
N2    Zn2   S    
C2    H15   S    
C27   C32   S    
C12   C34   S    
O10   Zn2   S    
C24   O2    D    
C27   H7    S    
O15   Zn1   S    
C15   C21   S    
C19   C22   S    
C36   H14   S    
C25   H18   S    
C1    C35   S    
C14   C20   S    
C5    C7    S    
C36   N2    A    
C22   O16   D    
C11   C14   A    
C15   C17   A    
C26   H2    S    
C6    C8    S    
C27   O5    D    
C17   C19   A    
O12   Zn1   S    
C10   H11   S    
C26   O4    D    
C30   H10   S    
C8    C10   A    
C4    C30   S    
O9    Zn2   S    
C29   H9    S    
C6    O15   A    
C10   C13   A    
C28   O6    D    
