data_mof_unit_32003.cif
_audit_creation_date              2012-12-10T17:09:53-0500
_audit_creation_method            fapswitch 2.2
_symmetry_space_group_name_H-M    P1
_symmetry_Int_Tables_number       1
_space_group_crystal_system       triclinic
_cell_length_a                    10.783251
_cell_length_b                    13.000738
_cell_length_c                    11.673786
_cell_angle_alpha                 99.789582
_cell_angle_beta                  93.614638
_cell_angle_gamma                 90.421331
_cell_volume                      1609.24049564

loop_
_atom_site_label
_atom_site_type_symbol
_atom_type_description
_atom_site_fract_x
_atom_site_fract_y
_atom_site_fract_z
_atom_type_partial_charge
C1    C     C_R   0.498099 0.299090 0.478689 0.777341
C2    C     C_R   0.068145 0.414502 0.547696 0.044431
C3    C     C_R   0.128539 0.493125 0.500127 -0.106532
C4    C     C_R   0.060239 0.566927 0.448868 0.143032
C5    C     C_R   0.931708 0.564661 0.447599 -0.261007
C6    C     C_R   0.870638 0.490484 0.497829 -0.120837
C7    C     C_R   0.502526 0.814344 0.533676 -0.052513
C8    C     C_R   0.496816 0.185725 0.466420 -0.046754
C9    C     C_R   0.486414 0.015228 0.344388 -0.218484
C10   C     C_R   0.487411 0.123329 0.355462 -0.190801
C11   C     C_R   0.505050 0.139361 0.566374 -0.283805
C12   C     C_R   0.262482 0.497941 0.500227 0.841500
C13   C     C_R   0.504157 0.031325 0.556010 0.177445
C14   C     C_R   0.494802 0.968787 0.444141 0.175554
C15   C     C_R   0.494037 0.860750 0.433758 -0.266614
C16   C     C_R   0.511779 0.876746 0.644656 -0.197377
C17   C     C_R   0.512564 0.984867 0.655753 -0.222447
C18   C     C_R   0.386154 0.399253 0.021765 -0.339588
C19   C     C_R   0.396665 0.409222 0.143983 0.092105
C20   C     C_R   0.548604 0.543967 0.157076 0.028904
C21   C     C_R   0.541180 0.536692 0.034229 0.066632
C22   C     C_R   0.458806 0.463257 0.965755 0.067685
C23   C     C_R   0.501673 0.700928 0.521329 0.821202
C24   C     C_R   0.451415 0.455978 0.842907 0.028429
C25   C     C_R   0.603281 0.590801 0.856038 0.092078
C26   C     C_R   0.613797 0.600732 0.978235 -0.340226
C27   C     C_R   0.737323 0.496784 0.499202 0.802053
C28   C     C_R   0.134727 0.335149 0.592790 -0.178377
C29   C     C_R   0.072615 0.257871 0.637537 -0.136330
C30   C     C_R   0.943589 0.257024 0.636812 -0.134297
C31   C     C_R   0.875914 0.333414 0.591257 -0.161148
C32   C     C_R   0.937030 0.413397 0.546773 0.094896
Cu1   Cu    Cu3+1 0.509250 0.507730 0.615930 0.932846
Cu2   Cu    Cu3+1 0.490750 0.492270 0.384070 0.946744
H1    H     H_    0.519780 0.031999 0.741996 0.134124
H2    H     H_    0.480847 0.157934 0.277247 0.156253
H3    H     H_    0.512245 0.187092 0.652363 0.151171
H4    H     H_    0.388112 0.399858 0.789421 0.115891
H5    H     H_    0.659496 0.640620 0.813833 0.124976
H6    H     H_    0.321785 0.341896 0.971591 0.137483
H7    H     H_    0.678133 0.658109 0.028406 0.135709
H8    H     H_    0.340415 0.359435 0.186201 0.123431
H9    H     H_    0.611931 0.600071 0.210551 0.115350
H10   H     H_    0.234738 0.330696 0.592394 0.134638
H11   H     H_    0.124809 0.197720 0.671741 0.131320
H12   H     H_    0.895595 0.196215 0.670440 0.134490
H13   H     H_    0.775716 0.327872 0.589572 0.144492
H14   H     H_    0.879298 0.622912 0.409720 0.142631
H15   H     H_    0.486876 0.813043 0.347756 0.153238
H16   H     H_    0.518456 0.842129 0.722861 0.156883
H17   H     H_    0.479167 0.968093 0.258148 0.134788
N1    N     N_R   0.523180 0.519350 0.790130 -0.180999
N2    N     N_R   0.476820 0.480650 0.209890 -0.179881
O1    O     O_R   0.506570 0.354460 0.582000 -0.604145
O2    O     O_R   0.490940 0.341410 0.386200 -0.593457
O3    O     O_R   0.327470 0.506530 0.597920 -0.592073
O4    O     O_R   0.311840 0.493480 0.402120 -0.561846
O5    O     O_R   0.509060 0.658590 0.613800 -0.591931
O6    O     O_R   0.493430 0.645540 0.418000 -0.585349
O7    O     O_R   0.688160 0.506520 0.597880 -0.587884
O8    O     O_R   0.672530 0.493470 0.402080 -0.580673
N3    N     N_3   0.122032 0.646107 0.400496 -0.579551
H18   H     H_    0.095878 0.718984 0.443993 0.212374
H19   H     H_    0.090434 0.639582 0.312974 0.222805

loop_
_geom_bond_atom_site_label_1
_geom_bond_atom_site_label_2
_ccdc_geom_bond_type
C24   N1    A    
Cu2   O4    S    
C6    C32   A    
C9    C14   A    
Cu1   O5    S    
C18   C22   A    
C23   O5    A    
C1    C8    S    
C2    C28   A    
C9    C10   A    
C24   H4    S    
C31   C32   A    
C9    H17   S    
C19   H8    S    
C13   C17   A    
C1    O1    A    
C19   N2    A    
Cu1   O3    S    
C7    C15   A    
C2    C3    A    
C1    O2    A    
C25   N1    A    
Cu2   O2    S    
C31   H13   S    
C13   C14   A    
C25   H5    S    
Cu1   N1    S    
C23   O6    A    
C5    C6    A    
C11   C13   A    
C29   C30   A    
C28   H10   S    
C8    C11   A    
C7    C23   S    
C12   O4    A    
C2    C32   A    
C28   C29   A    
C12   O3    A    
C21   C26   A    
C10   H2    S    
Cu1   Cu2   S    
Cu1   O7    S    
C27   O7    A    
C15   H15   S    
C30   C31   A    
C16   H16   S    
C5    H14   S    
C22   C24   A    
C16   C17   A    
C3    C4    A    
C4    N3    S    
C20   H9    S    
C20   C21   A    
Cu2   N2    S    
C8    C10   A    
C18   C19   A    
Cu1   O1    S    
C11   H3    S    
C18   H6    S    
C14   C15   A    
C20   N2    A    
N3    H19   S    
C3    C12   S    
C17   H1    S    
C25   C26   A    
C21   C22   A    
Cu2   O6    S    
C30   H12   S    
Cu2   O8    S    
C7    C16   A    
N3    H18   S    
C6    C27   S    
C26   H7    S    
C29   H11   S    
C4    C5    A    
C27   O8    A    
