data_mof_unit_49324.cif
_audit_creation_date              2012-12-10T19:46:52-0500
_audit_creation_method            fapswitch 2.2
_symmetry_space_group_name_H-M    P1
_symmetry_Int_Tables_number       1
_space_group_crystal_system       triclinic
_cell_length_a                    10.923429
_cell_length_b                    10.898258
_cell_length_c                    13.143196
_cell_angle_alpha                 91.118107
_cell_angle_beta                  90.538208
_cell_angle_gamma                 90.482977
_cell_volume                      1564.22449753

loop_
_atom_site_label
_atom_site_type_symbol
_atom_type_description
_atom_site_fract_x
_atom_site_fract_y
_atom_site_fract_z
_atom_type_partial_charge
C1    C     C_R   0.503852 0.259585 0.498844 0.819060
C2    C     C_R   0.498673 0.740480 0.501400 0.844251
C3    C     C_R   0.872667 0.502002 0.501697 -0.104600
C4    C     C_R   0.126872 0.496982 0.496484 -0.101933
C5    C     C_R   0.941143 0.539719 0.588291 0.060056
C6    C     C_R   0.058498 0.458684 0.409825 0.045012
C7    C     C_R   0.505744 0.141891 0.129615 -0.194297
C8    C     C_R   0.567600 0.872077 0.866089 -0.214033
C9    C     C_R   0.475527 0.094250 0.223840 -0.167405
C10   C     C_R   0.578987 0.896982 0.762765 -0.126329
C11   C     C_R   0.554285 0.112249 0.307655 0.050163
C12   C     C_R   0.476446 0.890267 0.697864 0.077270
C13   C     C_R   0.665956 0.174512 0.294998 -0.143966
C14   C     C_R   0.362227 0.856936 0.737719 -0.214131
C15   C     C_R   0.699728 0.219904 0.200094 0.515245
C16   C     C_R   0.350433 0.830170 0.841465 0.506272
C17   C     C_R   0.616110 0.205219 0.117323 -0.238799
C18   C     C_R   0.453936 0.840367 0.905639 -0.202867
C19   C     C_R   0.518981 0.931234 0.411322 -0.241769
C20   C     C_R   0.486839 0.068830 0.589577 -0.251874
C21   C     C_R   0.500111 0.872839 0.503811 -0.088283
C22   C     C_R   0.505511 0.127107 0.497165 -0.107607
C23   C     C_R   0.259464 0.495788 0.498926 0.824194
C24   C     C_R   0.740418 0.502704 0.500708 0.842077
C25   C     C_R   0.485723 0.942244 0.594789 0.016056
C26   C     C_R   0.524117 0.057843 0.406860 0.019330
C27   C     C_1   0.501133 0.500045 0.173633 0.161032
C28   C     C_1   0.500774 0.499859 0.826379 0.151050
C29   C     C_1   0.501908 0.499890 0.050675 -0.119524
C30   C     C_1   0.501788 0.499731 0.949320 -0.111064
C31   C     C_R   0.207664 0.449917 0.152840 -0.164659
C32   C     C_R   0.813921 0.528605 0.853285 -0.135123
C33   C     C_R   0.154171 0.493264 0.242181 -0.193359
C34   C     C_R   0.853601 0.492157 0.756821 -0.181671
C35   C     C_R   0.115344 0.410767 0.315929 0.053779
C36   C     C_R   0.886072 0.580361 0.685292 0.038995
C37   C     C_R   0.129247 0.283486 0.299806 0.505879
C38   C     C_R   0.880374 0.706083 0.711613 0.461598
C39   C     C_R   0.179984 0.240914 0.207384 -0.228383
C40   C     C_R   0.841929 0.741425 0.809627 -0.220543
C41   C     C_R   0.220765 0.324014 0.135349 -0.174113
C42   C     C_R   0.808819 0.652964 0.879977 -0.169141
C43   C     C_R   0.931817 0.462814 0.413108 -0.199992
C44   C     C_R   0.067574 0.538029 0.583755 -0.242014
Cu1   Cu    Cu3+1 0.499990 0.499990 0.592680 0.975947
Cu2   Cu    Cu3+1 0.500010 0.500010 0.407320 0.982074
H1    H     H_    0.261207 0.290642 0.065378 0.148775
H2    H     H_    0.778941 0.680814 0.955170 0.144822
H3    H     H_    0.728325 0.186166 0.359174 0.139450
H4    H     H_    0.281890 0.856619 0.689134 0.115407
H5    H     H_    0.239129 0.514484 0.097382 0.143720
H6    H     H_    0.787779 0.460324 0.907525 0.128146
H7    H     H_    0.186732 0.143661 0.190581 0.128717
H8    H     H_    0.838449 0.837552 0.831287 0.130885
H9    H     H_    0.879203 0.433303 0.346596 0.197436
H10   H     H_    0.120514 0.569543 0.648650 0.140882
H11   H     H_    0.633941 0.240813 0.042857 0.133391
H12   H     H_    0.445737 0.827705 0.986795 0.131517
H13   H     H_    0.443599 0.129095 0.065556 0.153846
H14   H     H_    0.645934 0.882074 0.916615 0.145002
H15   H     H_    0.390820 0.043193 0.231416 0.126513
H16   H     H_    0.666511 0.927325 0.733978 0.146344
N1    N     N_1   0.500030 0.500030 0.268070 -0.132227
N2    N     N_1   0.499970 0.499970 0.731930 -0.139871
O1    O     O_R   0.499980 0.319630 0.578260 -0.586149
O2    O     O_R   0.500020 0.680370 0.421740 -0.589146
O3    O     O_R   0.500000 0.319650 0.421740 -0.573384
O4    O     O_R   0.500000 0.680350 0.578260 -0.570702
O5    O     O_R   0.319630 0.500000 0.578260 -0.590069
O6    O     O_R   0.680370 0.500000 0.421740 -0.582604
O7    O     O_R   0.319650 0.500020 0.421740 -0.576431
O8    O     O_R   0.680350 0.499980 0.578260 -0.572751
O9    O     O_3   0.812723 0.280355 0.196103 -0.635203
C45   C     C_3   0.865563 0.284207 0.098321 0.058665
H17   H     H_    0.949197 0.342423 0.105457 0.185710
H18   H     H_    0.806649 0.332071 0.043181 0.116074
C46   C     C_3   0.904462 0.156452 0.059601 -0.361311
H19   H     H_    0.965895 0.114310 0.116722 0.229668
H20   H     H_    0.823336 0.095446 0.048730 0.205737
C47   C     C_3   0.970946 0.164204 0.958360 -0.929825
H21   H     H_    0.910581 0.205120 0.899803 0.253080
H22   H     H_    0.996503 0.070439 0.932319 0.266430
H23   H     H_    0.055561 0.220748 0.967050 0.266308
O10   O     O_3   0.234563 0.814137 0.881434 -0.644083
C48   C     C_3   0.222603 0.697567 0.926364 0.015336
H24   H     H_    0.151473 0.704955 0.985994 0.170354
H25   H     H_    0.307184 0.665981 0.965145 0.136267
C49   C     C_3   0.179852 0.603027 0.846212 -0.353541
H26   H     H_    0.093862 0.636190 0.811785 0.219230
H27   H     H_    0.250594 0.594476 0.786448 0.221041
C50   C     C_3   0.155413 0.476983 0.890290 -0.914829
H28   H     H_    0.241299 0.438530 0.921412 0.254688
H29   H     H_    0.120542 0.413812 0.829127 0.259389
H30   H     H_    0.085331 0.483068 0.950827 0.258390
H31   H     H_    0.533070 0.877858 0.341924 0.160201
H32   H     H_    0.474114 0.122275 0.659169 0.167441
H33   H     H_    0.143866 0.591208 0.254472 0.138954
H34   H     H_    0.860346 0.395210 0.738073 0.138199
O11   O     O_3   0.081208 0.203861 0.370720 -0.620592
C51   C     C_3   0.165002 0.111163 0.397637 0.032843
H35   H     H_    0.181100 0.118782 0.480912 0.165475
H36   H     H_    0.257097 0.119623 0.362650 0.130725
C52   C     C_3   0.108262 0.985169 0.372582 -0.326014
H37   H     H_    0.023309 0.973511 0.417369 0.233144
H38   H     H_    0.083253 0.979320 0.290474 0.209144
C53   C     C_3   0.196057 0.881415 0.397019 -0.919228
H39   H     H_    0.274961 0.883210 0.344494 0.255251
H40   H     H_    0.148067 0.791652 0.387244 0.254435
H41   H     H_    0.229936 0.890362 0.476748 0.246751
O12   O     O_3   0.906791 0.793364 0.639619 -0.621862
C54   C     C_3   0.012930 0.861761 0.668132 0.011193
H42   H     H_    0.083030 0.844823 0.609098 0.165211
H43   H     H_    0.054665 0.835932 0.742410 0.166156
C55   C     C_3   0.983468 0.998699 0.671669 -0.326181
H44   H     H_    0.951137 0.027574 0.595451 0.231429
H45   H     H_    0.909122 0.016009 0.727132 0.208347
C56   C     C_3   0.095726 0.075396 0.703178 -0.910816
H46   H     H_    0.126409 0.051603 0.781045 0.275396
H47   H     H_    0.072587 0.174418 0.702501 0.256747
H48   H     H_    0.172234 0.058489 0.649942 0.246691

loop_
_geom_bond_atom_site_label_1
_geom_bond_atom_site_label_2
_ccdc_geom_bond_type
C27   C29   S    
O9    C45   S    
C23   O5    A    
C54   H42   S    
C55   H44   S    
C24   O6    A    
C39   C41   A    
C14   H4    S    
Cu1   Cu2   S    
C3    C43   A    
C45   H18   S    
C9    H15   S    
C35   C37   A    
Cu2   O2    S    
C2    O4    A    
C56   H47   S    
C48   H24   S    
C33   C35   A    
C46   C47   S    
C20   C25   A    
C5    C36   S    
C16   O10   S    
C6    C35   S    
C15   C17   A    
C19   C26   A    
O12   C54   S    
C32   H6    S    
C34   H34   S    
C18   H12   S    
C54   H43   S    
C7    C17   A    
C45   C46   S    
C1    O1    A    
C31   C33   A    
C38   O12   S    
C34   C36   A    
C40   C42   A    
C20   H32   S    
C1    C22   S    
Cu1   O8    S    
C3    C24   S    
C10   H16   S    
C2    C21   S    
C47   H23   S    
C10   C12   A    
C7    H13   S    
C46   H20   S    
C45   H17   S    
C48   H25   S    
Cu1   O5    S    
C23   O7    A    
O10   C48   S    
C47   H22   S    
C56   H48   S    
C50   H28   S    
C4    C23   S    
C4    C44   A    
C11   C26   S    
C3    C5    A    
C46   H19   S    
C51   C52   S    
C8    C18   A    
C32   C34   A    
C52   C53   S    
C29   C30   T    
C50   H29   S    
C44   H10   S    
O11   C51   S    
C49   C50   S    
Cu1   O4    S    
C51   H36   S    
C41   H1    S    
C52   H38   S    
C16   C18   A    
C42   H2    S    
C53   H39   S    
C9    C11   A    
Cu2   O7    S    
C27   N1    T    
C13   H3    S    
C28   N2    T    
C4    C6    A    
C15   O9    S    
C5    C44   A    
C49   H27   S    
C40   H8    S    
C6    C43   A    
C13   C15   A    
Cu1   O1    S    
C14   C16   A    
C20   C22   A    
C37   O11   S    
C19   H31   S    
C24   O8    A    
C48   C49   S    
C43   H9    S    
C7    C9    A    
C21   C25   A    
C31   C41   A    
C19   C21   A    
C31   H5    S    
C47   H21   S    
C2    O2    A    
C55   H45   S    
C12   C25   S    
Cu1   N2    S    
Cu2   N1    S    
C28   C30   S    
C12   C14   A    
Cu2   O3    S    
C37   C39   A    
C56   H46   S    
C8    H14   S    
C50   H30   S    
C38   C40   A    
C11   C13   A    
C39   H7    S    
C53   H40   S    
C36   C38   A    
C51   H35   S    
C1    O3    A    
C54   C55   S    
C33   H33   S    
Cu2   O6    S    
C55   C56   S    
C49   H26   S    
C8    C10   A    
C22   C26   A    
C52   H37   S    
C32   C42   A    
C17   H11   S    
C53   H41   S    
