data_mof_unit_55404.cif
_audit_creation_date              2013-03-05T16:11:20-0500
_audit_creation_method            fapswitch 2.2
_symmetry_space_group_name_H-M    P1
_symmetry_Int_Tables_number       1
_space_group_crystal_system       triclinic
_cell_length_a                    8.222614
_cell_length_b                    16.255424
_cell_length_c                    17.291811
_cell_angle_alpha                 112.41495
_cell_angle_beta                  82.832345
_cell_angle_gamma                 96.007609
_cell_volume                      2115.82921037

loop_
_atom_site_label
_atom_site_type_symbol
_atom_site_description
_atom_site_fract_x
_atom_site_fract_y
_atom_site_fract_z
_atom_type_partial_charge
P1    P     P_3+3 0.533580 0.585010 0.696460 0.483395
O1    O     O_2   0.351410 0.559500 0.703710 -0.367434
O2    O     O_3   0.622300 0.553110 0.604480 -0.417123
O3    O     O_3   0.077860 0.395310 0.623380 -0.409629
O4    O     O_2   0.216282 0.443095 0.765029 -0.380687
O5    O     O_3   0.543081 0.701642 0.741324 -0.531073
O6    O     O_3   0.985701 0.315633 0.743247 -0.489325
H1    H     H_    0.136361 0.252316 0.634172 0.171056
C1    C     C_3   0.001856 0.157136 0.678620 -0.912588
H2    H     H_    0.097139 0.158300 0.719309 0.272298
H3    H     H_    0.879102 0.145553 0.708645 0.279402
P2    P     P_3+3 0.097450 0.292710 0.397510 0.515180
P3    P     P_3+3 0.484141 0.231876 0.545148 0.472939
O7    O     O_2   0.261760 0.281010 0.418880 -0.313499
O8    O     O_3   0.488390 0.347430 0.574410 -0.355191
O9    O     O_2   0.341690 0.189726 0.489350 -0.386001
O10   O     O_3   0.132207 0.260774 0.288295 -0.537910
O11   O     O_3   0.419448 0.207777 0.634810 -0.553930
C2    C     C_3   0.549103 0.228495 0.685935 0.175453
H4    H     H_    0.599476 0.298555 0.700252 0.111225
H5    H     H_    0.647138 0.181461 0.654398 0.057368
C3    C     C_3   0.482838 0.217107 0.768045 -0.087505
H6    H     H_    0.388892 0.266162 0.802024 0.144809
H7    H     H_    0.422585 0.148993 0.753450 0.138638
C4    C     C_3   0.766253 0.252731 0.243508 0.739444
H8    H     H_    0.858572 0.289663 0.287220 0.034960
C5    C     C_3   0.833197 0.240113 0.152419 -0.656022
H9    H     H_    0.890636 0.304322 0.150441 0.190754
H10   H     H_    0.930126 0.191543 0.130611 0.241870
Ba1   Ba    Ba6+2 0.325860 0.460280 0.530510 1.596902
C6    C     C_3   0.527931 0.736141 0.680141 0.380658
H11   H     H_    0.408475 0.712304 0.654204 0.087944
H12   H     H_    0.628573 0.716116 0.628947 0.125092
C7    C     C_3   0.536722 0.837425 0.720909 -0.826725
H13   H     H_    0.431898 0.859637 0.769560 0.276139
H14   H     H_    0.532170 0.866995 0.673199 0.194362
H15   H     H_    0.653649 0.861793 0.750581 0.289263
C8    C     C_3   0.214777 0.330555 0.267941 0.416083
H16   H     H_    0.319510 0.359576 0.306161 0.126161
H17   H     H_    0.129755 0.383218 0.278255 0.092861
C9    C     C_3   0.279628 0.293160 0.175593 -0.954912
H18   H     H_    0.360786 0.238599 0.164282 0.284439
H19   H     H_    0.348384 0.345564 0.156636 0.215450
H20   H     H_    0.177732 0.266224 0.135173 0.254140
P4    P     P_3+3 0.656110 0.414920 0.303520 0.458640
O12   O     O_2   0.838300 0.440470 0.296230 -0.408077
O13   O     O_3   0.567380 0.446810 0.395500 -0.366493
O14   O     O_3   0.111820 0.604620 0.376600 -0.397974
O15   O     O_3   0.621297 0.298168 0.266500 -0.597304
P5    P     P_3+3 0.711661 0.766375 0.446080 0.452734
O16   O     O_3   0.149150 0.609060 0.561440 -0.385246
O17   O     O_3   0.701290 0.652490 0.425560 -0.376843
O18   O     O_2   0.852190 0.811066 0.502954 -0.403007
O19   O     O_3   0.774300 0.782186 0.351917 -0.522119
Ba2   Ba    Ba6+2 0.863950 0.539650 0.469460 1.574807
P6    P     P_3+3 0.045629 0.416909 0.730500 0.486880
C10   C     C_3   0.012617 0.244937 0.665436 0.494301
H21   H     H_    0.918291 0.242148 0.623684 -0.006585
H22   H     H_    0.022268 0.101389 0.617058 0.208853
O20   O     O_3   0.040530 0.390860 0.438530 -0.413577
C11   C     C_3   0.984687 0.695709 0.742663 0.231724
H23   H     H_    0.866323 0.679459 0.713891 0.098144
H24   H     H_    0.050826 0.633912 0.724397 0.069224
C12   C     C_3   0.948665 0.734265 0.838251 -0.089790
H25   H     H_    0.879865 0.682842 0.859122 0.062049
H26   H     H_    0.065749 0.752918 0.868469 0.149052
P7    P     P_3+3 0.103834 0.721459 0.607918 0.462708
O21   O     O_2   0.927940 0.718960 0.581060 -0.363656
O22   O     O_3   0.083514 0.758385 0.717579 -0.540963
C13   C     C_3   0.694146 0.715445 0.286860 0.308601
H27   H     H_    0.758583 0.652707 0.265355 0.152899
H28   H     H_    0.564387 0.701385 0.307183 -0.028365
C14   C     C_3   0.692857 0.745992 0.213657 -0.104535
H29   H     H_    0.610794 0.699523 0.167385 0.078306
H30   H     H_    0.642938 0.813129 0.237561 0.146573
P8    P     P_3+3 0.146172 0.595566 0.272450 0.479736
C15   C     C_3   0.189134 0.766336 0.340155 0.454211
H31   H     H_    0.315564 0.754818 0.347815 -0.004014
O23   O     O_2   0.003222 0.535986 0.224926 -0.370289
O24   O     O_3   0.130699 0.700116 0.267636 -0.470619
H32   H     H_    0.107335 0.767944 0.396737 0.148229
H33   H     H_    0.235264 0.909819 0.390736 0.191398
C16   C     C_3   0.191882 0.856918 0.333084 -0.841095
H34   H     H_    0.066624 0.870944 0.325817 0.299182
H35   H     H_    0.275967 0.858147 0.277983 0.262565
C17   C     C_2   0.765362 0.496504 0.726097 -0.452837
C18   C     C_3   0.896346 0.504656 0.783474 0.129093
C19   C     C_2   0.820228 0.503141 0.867478 -0.113481
C20   C     C_2   0.659941 0.520239 0.892524 0.117758
C21   C     C_2   0.560818 0.539496 0.834413 -0.226393
C22   C     C_1   0.626145 0.534986 0.758706 0.311314
C23   C     C_R   0.408223 0.537539 0.146922 -0.285187
C24   C     C_R   0.343025 0.546097 0.227946 0.233535
C25   C     C_R   0.567719 0.469507 0.242639 0.296756
C26   C     C_R   0.634829 0.461160 0.160908 -0.277921
C27   C     C_R   0.558173 0.497052 0.112679 0.096750
C28   C     C_2   0.579610 0.524968 0.976851 -0.141391
C29   C     C_2   0.637979 0.490570 0.027581 -0.051044
C30   C     C_R   0.425937 0.515491 0.276507 -0.493153
H36   H     H_    0.750293 0.455719 0.006439 0.159659
H37   H     H_    0.435623 0.558828 0.855404 0.164713
H38   H     H_    0.340347 0.563199 0.112447 0.162252
H39   H     H_    0.465314 0.557628 0.995832 0.130551
H40   H     H_    0.899927 0.494329 0.908778 0.144097
H41   H     H_    0.746307 0.426553 0.134875 0.158468
H42   H     H_    0.787997 0.462107 0.658608 0.173187
H43   H     H_    0.374689 0.522942 0.339360 0.167530
C31   C     C_2   0.397784 0.759710 0.519257 -0.531176
C32   C     C_R   0.801894 0.246928 0.473234 -0.466054
C33   C     C_2   0.216626 0.881804 0.595486 -0.267030
C34   C     C_2   0.242993 0.794767 0.568516 0.286988
C35   C     C_2   0.513251 0.812975 0.496892 0.219082
C36   C     C_3   0.465934 0.902649 0.502729 -0.061123
C37   C     C_3   0.346962 0.947219 0.579965 0.057382
C38   C     C_2   0.606480 0.966180 0.496180 -0.149769
C39   C     C_2   0.580796 0.030661 0.470080 -0.110163
C40   C     C_R   0.866129 0.067911 0.423474 0.094908
C41   C     C_R   0.711442 0.096646 0.462725 -0.044875
C42   C     C_R   0.987135 0.127989 0.408187 -0.199131
C43   C     C_R   0.953615 0.217300 0.431677 0.291503
C44   C     C_R   0.680025 0.187152 0.488729 0.217593
H44   H     H_    0.107068 0.907495 0.636231 0.177812
H45   H     H_    0.103947 0.104111 0.375240 0.184974
H46   H     H_    0.422051 0.691371 0.507243 0.169418
H47   H     H_    0.776798 0.316146 0.491177 0.176710
H48   H     H_    0.724519 0.963353 0.516842 0.163535
H49   H     H_    0.458656 0.035930 0.455325 0.173915
N1    N     N_3   0.706107 0.207529 0.093822 -0.137038
H50   H     H_    0.635699 0.154400 0.103691 0.207039
H51   H     H_    0.629116 0.258916 0.105233 0.163704
N2    N     N_R   0.851945 0.812419 0.865133 0.287842
O25   O     O_R   0.916411 0.885836 0.857508 -0.321790
O26   O     O_R   0.704969 0.811207 0.902730 -0.331789
N3    N     N_R   0.614390 0.229973 0.821557 0.248228
O27   O     O_R   0.647395 0.165446 0.842988 -0.363010
O28   O     O_R   0.689839 0.308060 0.853897 -0.388448
N4    N     N_R   0.857664 0.748617 0.171902 0.294510
O29   O     O_R   0.927947 0.674755 0.127959 -0.363193
O30   O     O_R   0.928759 0.823967 0.171917 -0.318432
N5    N     N_R   0.732370 0.165607 0.250958 0.210589
O31   O     O_R   0.586101 0.141982 0.277006 -0.358718
O32   O     O_R   0.850867 0.112932 0.236096 -0.387247

loop_
_geom_bond_atom_site_label_1
_geom_bond_atom_site_label_2
_geom_bond_distance
_ccdc_geom_bond_type
O14   Ba2   2.806019 S    
Ba1   O16   2.793128 S    
C5    H10   1.109247 S    
C7    H15   1.110366 S    
C9    H19   1.103919 S    
C14   H29   1.110507 S    
O14   P8    1.739089 S    
O4    P6    1.548186 D    
C2    H4    1.114292 S    
P8    C24   1.829910 S    
P8    O23   1.546194 D    
C18   C19   1.516408 S    
N1    H50   1.045572 S    
Ba2   O21   2.852970 S    
C21   C22   1.329391 D    
C15   H31   1.107860 S    
N4    O30   1.300736 A    
P5    O19   1.750623 S    
C38   H48   1.086368 S    
P3    O11   1.747561 S    
C3    N3    1.457693 S    
C2    H5    1.110443 S    
C31   H46   1.084940 S    
O11   C2    1.401607 S    
C17   C22   1.318894 D    
C40   C42   1.393355 A    
C8    H16   1.104616 S    
C7    H13   1.110652 S    
C15   C16   1.520934 S    
C11   O22   1.400803 S    
C38   C39   1.333347 D    
C23   C27   1.412255 A    
P1    O1    1.514656 D    
C9    H18   1.108696 S    
C11   H24   1.110908 S    
C33   C34   1.342395 D    
C23   C24   1.396144 A    
C26   H41   1.082218 S    
P2    C43   1.823444 S    
O2    Ba2   2.826798 S    
C26   C27   1.418595 A    
C39   H49   1.086136 S    
C27   C29   1.504099 S    
O12   Ba2   2.831965 S    
P5    O17   1.741801 S    
C6    H12   1.108263 S    
C13   H27   1.110766 S    
P4    O15   1.760424 S    
C1    H2    1.110640 S    
C33   C37   1.502863 S    
C1    C10   1.521014 S    
C11   H23   1.109656 S    
O17   Ba2   2.749259 S    
C23   H38   1.078085 S    
O5    C6    1.396172 S    
P1    C22   1.844047 S    
Ba2   O20   2.792637 S    
O3    P6    1.739412 S    
C14   H30   1.112548 S    
C17   H42   1.085880 S    
O6    P6    1.755412 S    
O7    Ba1   2.852792 S    
P4    C25   1.860694 S    
C35   C36   1.511010 S    
C19   H40   1.083717 S    
C28   C29   1.359335 D    
P4    O13   1.578458 S    
P5    O18   1.546993 D    
P7    O21   1.565277 D    
Ba1   O13   2.825999 S    
C2    C3    1.527540 S    
N5    O31   1.302664 A    
C8    C9    1.522806 S    
C17   C18   1.516060 S    
P6    C18   1.862747 S    
N3    O28   1.299702 A    
O16   Ba2   2.882801 S    
C4    H8    1.099863 S    
P4    O12   1.514988 D    
C31   C35   1.338773 D    
C20   C28   1.501082 S    
P1    O2    1.578428 S    
C41   C44   1.406936 A    
C12   H26   1.111504 S    
P2    O10   1.751116 S    
O2    Ba1   2.896673 S    
C21   H37   1.085221 S    
H1    C10   1.108422 S    
P3    C44   1.840285 S    
C5    N1    1.462305 S    
C16   H34   1.109900 S    
O19   C13   1.407662 S    
C12   N2    1.459940 S    
C15   H32   1.109201 S    
C4    N5    1.465454 S    
C13   C14   1.527324 S    
P5    C35   1.844139 S    
C6    C7    1.521699 S    
O16   P7    1.752407 S    
C1    H3    1.108067 S    
C28   H39   1.080460 S    
P7    C34   1.825590 S    
C16   H35   1.110612 S    
P2    O7    1.493335 D    
C29   H36   1.083880 S    
P3    O8    1.746834 S    
C9    H20   1.103712 S    
C3    H7    1.112812 S    
N2    O25   1.301054 A    
C5    H9    1.110691 S    
Ba1   O20   2.883715 S    
O8    Ba1   2.748763 S    
O13   Ba2   2.897553 S    
C36   C37   1.532966 S    
N4    O29   1.301103 A    
C15   O24   1.405251 S    
C32   H47   1.082229 S    
C24   C30   1.396384 A    
P2    Ba1   3.386119 S    
C6    H11   1.101732 S    
P8    O24   1.751347 S    
N5    O32   1.301127 A    
N2    O26   1.300889 A    
N1    H51   1.044656 S    
C42   C43   1.398123 A    
N3    O27   1.300885 A    
C42   H45   1.081960 S    
C4    C5    1.544962 S    
C30   H43   1.081415 S    
Ba1   Ba2   4.502182 S    
C31   C34   1.476945 S    
O1    Ba1   2.831506 S    
C12   H25   1.108673 S    
C40   C41   1.401363 A    
C33   H44   1.085499 S    
C11   C12   1.529462 S    
C8    H17   1.109566 S    
C32   C44   1.395657 A    
C10   H21   1.110086 S    
C14   N4    1.458345 S    
C25   C30   1.392493 A    
P1    Ba1   3.365083 S    
C39   C41   1.466106 S    
C7    H14   1.107687 S    
O10   C8    1.398258 S    
C25   C26   1.412471 A    
C4    O15   1.402254 S    
P2    O20   1.574204 S    
C19   C20   1.358053 D    
P4    Ba2   3.365505 S    
H33   C16   1.109639 S    
P3    O9    1.543459 D    
P1    O5    1.750665 S    
C3    H6    1.111837 S    
C13   H28   1.109409 S    
P7    O22   1.748660 S    
C20   C21   1.506544 S    
C1    H22   1.110915 S    
O6    C10   1.407015 S    
O3    Ba1   2.806787 S    
C32   C43   1.393855 A    
C36   C38   1.490496 S    
