data_mof_unit_33694.cif
_audit_creation_date              2012-12-10T18:00:18-0500
_audit_creation_method            fapswitch 2.2
_symmetry_space_group_name_H-M    P1
_symmetry_Int_Tables_number       1
_space_group_crystal_system       triclinic
_cell_length_a                    10.680939
_cell_length_b                    9.777259
_cell_length_c                    10.697021
_cell_angle_alpha                 88.672376
_cell_angle_beta                  94.638002
_cell_angle_gamma                 89.37454
_cell_volume                      1113.04463925

loop_
_atom_site_label
_atom_site_type_symbol
_atom_type_description
_atom_site_fract_x
_atom_site_fract_y
_atom_site_fract_z
_atom_type_partial_charge
C1    C     C_R   0.871046 0.498991 0.500711 -0.001964
C2    C     C_R   0.129018 0.501301 0.499430 -0.002788
C3    C     C_R   0.263059 0.500567 0.499150 0.739881
C4    C     C_R   0.736981 0.499478 0.501254 0.765203
C5    C     C_R   0.497237 0.501726 0.260159 0.840922
C6    C     C_R   0.500947 0.498526 0.739651 0.851376
C7    C     C_3   0.520613 0.628472 0.036219 0.339658
C8    C     C_3   0.473578 0.374033 0.963161 0.334245
C9    C     C_3   0.609523 0.538579 0.967003 0.294437
C10   C     C_3   0.384928 0.464189 0.032080 0.302073
C11   C     C_3   0.408191 0.587999 0.945248 -0.029124
C12   C     C_3   0.586431 0.414374 0.053444 -0.037723
C13   C     C_3   0.498343 0.496600 0.875849 -0.212398
C14   C     C_3   0.496485 0.505136 0.123528 -0.212921
C15   C     C_R   0.420794 0.075332 0.416852 0.168873
C16   C     C_R   0.596445 0.926363 0.560090 0.176128
C17   C     C_R   0.578911 0.068459 0.581706 0.167946
C18   C     C_R   0.404679 0.930985 0.436935 0.178060
C19   C     C_R   0.075055 0.462305 0.609090 -0.172119
C20   C     C_R   0.924994 0.538274 0.391076 -0.178448
C21   C     C_R   0.945521 0.462585 0.610118 -0.204048
C22   C     C_R   0.054617 0.538695 0.390194 -0.188029
Cu1   Cu    Cu3+1 0.500000 0.640660 0.500000 0.949235
Cu2   Cu    Cu3+1 0.500000 0.359340 0.500000 0.949552
H1    H     H_    0.133069 0.433182 0.693541 0.125355
H2    H     H_    0.866897 0.567351 0.306672 0.121781
H3    H     H_    0.904090 0.437350 0.696439 0.142873
H4    H     H_    0.096141 0.565552 0.304249 0.136531
N1    N     N_R   0.500000 0.852070 0.500000 -0.193631
N2    N     N_R   0.500000 0.147930 0.500000 -0.193597
O1    O     O_R   0.319640 0.618740 0.499990 -0.589003
O2    O     O_R   0.680360 0.381260 0.500010 -0.576134
O3    O     O_R   0.680360 0.618740 0.500010 -0.574380
O4    O     O_R   0.319640 0.381260 0.499990 -0.564643
O5    O     O_R   0.499970 0.618770 0.316850 -0.536503
O6    O     O_R   0.500030 0.381230 0.683150 -0.556086
O7    O     O_R   0.500030 0.618770 0.683150 -0.599240
O8    O     O_R   0.499970 0.381230 0.316850 -0.599657
C23   C     C_3   0.363488 0.135540 0.291328 -0.328363
C24   C     C_3   0.241527 0.218063 0.296778 -0.685190
H5    H     H_    0.196628 0.197078 0.385168 0.229430
H6    H     H_    0.259337 0.328642 0.286147 0.285053
H7    H     H_    0.173355 0.191168 0.217383 0.218413
H8    H     H_    0.433455 0.186613 0.237648 0.208095
H9    H     H_    0.340765 0.052117 0.225621 0.167364
C25   C     C_3   0.733070 0.877832 0.573058 -0.346051
C26   C     C_3   0.772726 0.794735 0.693061 -0.718426
H10   H     H_    0.699728 0.722575 0.717357 0.303541
H11   H     H_    0.860128 0.736273 0.679916 0.233771
H12   H     H_    0.793675 0.862521 0.773505 0.219588
H13   H     H_    0.757642 0.828708 0.486231 0.219824
H14   H     H_    0.796759 0.966522 0.572866 0.172357
C27   C     C_3   0.632693 0.117619 0.707621 -0.324844
C28   C     C_3   0.754366 0.197649 0.705313 -0.786142
H15   H     H_    0.795083 0.193036 0.613402 0.255857
H16   H     H_    0.736117 0.305326 0.728991 0.259793
H17   H     H_    0.825983 0.154801 0.777084 0.216513
H18   H     H_    0.560549 0.171771 0.754428 0.272746
H19   H     H_    0.650705 0.028761 0.773076 0.164858
C29   C     C_3   0.276358 0.874818 0.393434 -0.335763
C30   C     C_3   0.274415 0.796184 0.271255 -0.738252
H20   H     H_    0.356120 0.822383 0.218207 0.275282
H21   H     H_    0.275162 0.684584 0.286843 0.259947
H22   H     H_    0.186714 0.822429 0.212318 0.202593
H23   H     H_    0.231252 0.822915 0.470118 0.213862
H24   H     H_    0.207991 0.960297 0.375428 0.166209
C31   C     C_3   0.308771 0.680164 0.872826 -0.348531
C32   C     C_3   0.227545 0.757379 0.958227 -0.815785
H25   H     H_    0.186707 0.685922 0.025535 0.276499
H26   H     H_    0.284460 0.836050 0.008567 0.259071
H27   H     H_    0.149480 0.810317 0.900853 0.235080
H28   H     H_    0.355878 0.755804 0.814093 0.221969
H29   H     H_    0.247721 0.615798 0.809913 0.188776
C33   C     C_3   0.687878 0.319937 0.119307 -0.352845
C34   C     C_3   0.762643 0.244903 0.026457 -0.803863
H30   H     H_    0.699799 0.177100 0.969082 0.268750
H31   H     H_    0.808139 0.318748 0.964705 0.274508
H32   H     H_    0.836948 0.180758 0.078327 0.231014
H33   H     H_    0.752719 0.381884 0.180752 0.192974
H34   H     H_    0.643314 0.243074 0.178755 0.210818
O9    O     O_3   0.547539 0.760643 0.076669 -0.729595
H35   H     H_    0.556389 0.815982 0.999134 0.326469
O10   O     O_3   0.443419 0.241953 0.925084 -0.748307
H36   H     H_    0.438496 0.187070 0.003518 0.324422
O11   O     O_3   0.726449 0.578757 0.930091 -0.762166
H37   H     H_    0.776686 0.601225 0.008735 0.334373
O12   O     O_3   0.267300 0.424800 0.067376 -0.764099
H38   H     H_    0.217783 0.402685 0.988210 0.336709

loop_
_geom_bond_atom_site_label_1
_geom_bond_atom_site_label_2
_ccdc_geom_bond_type
C15   C18   A    
O12   H38   S    
C1    C21   A    
C8    C13   S    
C12   C33   S    
C8    O10   S    
C28   H15   S    
O9    H35   S    
C27   H19   S    
C26   H11   S    
O11   H37   S    
C7    C11   S    
Cu2   O6    S    
Cu1   N1    S    
C19   C21   A    
C25   H14   S    
C31   H28   S    
C30   H21   S    
C9    C13   S    
C9    O11   S    
C25   C26   S    
C7    C14   S    
C26   H10   S    
C32   H25   S    
Cu1   O3    S    
C2    C22   A    
Cu2   O8    S    
Cu1   Cu2   S    
C31   H29   S    
C23   H9    S    
C24   H6    S    
C21   H3    S    
C29   H24   S    
C33   H34   S    
C5    O8    A    
C17   N2    A    
C34   H32   S    
C11   C31   S    
C26   H12   S    
C24   H7    S    
C28   H16   S    
C10   O12   S    
C33   C34   S    
C31   C32   S    
C10   C14   S    
C16   C25   S    
C23   C24   S    
C16   C17   A    
C3    O4    A    
C16   N1    A    
Cu1   O7    S    
C25   H13   S    
Cu2   O4    S    
C29   C30   S    
Cu1   O1    S    
C30   H22   S    
C34   H30   S    
Cu2   O2    S    
O10   H36   S    
C8    C12   S    
C6    O7    A    
C18   N1    A    
C3    O1    A    
C34   H31   S    
C15   C23   S    
C5    C14   S    
C4    O2    A    
C18   C29   S    
C24   H5    S    
C7    O9    S    
C12   C14   S    
C29   H23   S    
Cu1   O5    S    
C33   H33   S    
C17   C27   S    
C15   N2    A    
C7    C9    S    
C4    O3    A    
C1    C20   A    
C2    C19   A    
C20   C22   A    
C27   H18   S    
C27   C28   S    
C23   H8    S    
C1    C4    S    
C2    C3    S    
C6    C13   S    
C11   C13   S    
C20   H2    S    
C32   H27   S    
C5    O5    A    
C6    O6    A    
C30   H20   S    
C19   H1    S    
C9    C12   S    
Cu2   N2    S    
C10   C11   S    
C8    C10   S    
C32   H26   S    
C22   H4    S    
C28   H17   S    
