data_mof_unit_61941.cif
_audit_creation_date              2012-12-10T19:55:47-0500
_audit_creation_method            fapswitch 2.2
_symmetry_space_group_name_H-M    P1
_symmetry_Int_Tables_number       1
_space_group_crystal_system       monoclinic
_cell_length_a                    18.307837
_cell_length_b                    18.307837
_cell_length_c                    59.944267
_cell_angle_alpha                 90.0
_cell_angle_beta                  90.0
_cell_angle_gamma                 89.967723
_cell_volume                      20091.9301351

loop_
_atom_site_label
_atom_site_type_symbol
_atom_type_description
_atom_site_fract_x
_atom_site_fract_y
_atom_site_fract_z
_atom_type_partial_charge
Br1   Br    Br    0.430551 0.697458 0.002386 -0.351857
Br2   Br    Br    0.688446 0.816758 0.550250 -0.333985
Br3   Br    Br    0.069449 0.802542 0.502385 -0.351207
Br4   Br    Br    0.311554 0.183242 0.550250 -0.333985
Br5   Br    Br    0.183240 0.311570 0.550250 -0.341275
Br6   Br    Br    0.197458 0.930551 0.502386 -0.351857
Br7   Br    Br    0.816760 0.688430 0.550250 -0.341275
Br8   Br    Br    0.802542 0.069449 0.502386 -0.351857
Br9   Br    Br    0.080977 0.790960 0.027941 -0.345315
Br10  Br    Br    0.274098 0.145638 0.938954 -0.364087
Br11  Br    Br    0.919023 0.209040 0.027941 -0.345314
Br12  Br    Br    0.188429 0.316760 0.050250 -0.341275
Br13  Br    Br    0.725902 0.854362 0.938954 -0.364087
Br14  Br    Br    0.854344 0.725953 0.938950 -0.370657
Br15  Br    Br    0.790960 0.080985 0.027943 -0.345191
Br16  Br    Br    0.145656 0.274047 0.938950 -0.370657
Br17  Br    Br    0.209040 0.919015 0.027943 -0.345191
Br18  Br    Br    0.580985 0.290960 0.527943 -0.345191
Br19  Br    Br    0.774047 0.645656 0.438950 -0.370657
Br20  Br    Br    0.419015 0.709040 0.527943 -0.345191
Br21  Br    Br    0.225953 0.354344 0.438950 -0.370658
Br22  Br    Br    0.354362 0.225902 0.438954 -0.364087
Br23  Br    Br    0.569449 0.302542 0.002386 -0.351857
Br24  Br    Br    0.290960 0.580977 0.527941 -0.345315
Br25  Br    Br    0.645638 0.774098 0.438954 -0.364087
Br26  Br    Br    0.709040 0.419023 0.527941 -0.345314
Br27  Br    Br    0.811570 0.683240 0.050250 -0.341275
Br28  Br    Br    0.683242 0.811554 0.050250 -0.333986
Br29  Br    Br    0.697458 0.430551 0.002385 -0.351206
Br30  Br    Br    0.316758 0.188446 0.050250 -0.333986
Br31  Br    Br    0.302542 0.569449 0.002385 -0.351207
Br32  Br    Br    0.930551 0.197458 0.502385 -0.351207
C1    C     C_R   0.500000 0.000000 0.939305 0.814755
C2    C     C_R   0.566213 0.997697 0.597034 -0.152546
C3    C     C_R   0.566094 0.003480 0.879590 -0.080170
C4    C     C_R   0.496520 0.933906 0.379590 -0.080169
C5    C     C_R   0.934030 0.505378 0.379594 -0.077595
C6    C     C_R   0.503480 0.066094 0.379590 -0.080169
C7    C     C_R   0.065970 0.494622 0.379594 -0.077595
C8    C     C_R   0.005296 0.433957 0.902864 -0.172406
C9    C     C_R   0.433817 0.996693 0.902860 -0.169472
C10   C     C_R   0.994703 0.566043 0.902864 -0.172406
C11   C     C_R   0.566183 0.003307 0.902860 -0.169472
C12   C     C_R   0.496693 0.933817 0.402860 -0.169472
C13   C     C_R   0.014963 0.435467 0.596985 -0.154788
C14   C     C_R   0.933957 0.505297 0.402864 -0.172406
C15   C     C_R   0.503307 0.066183 0.402860 -0.169472
C16   C     C_R   0.066043 0.494703 0.402864 -0.172407
C17   C     C_R   0.000000 0.500000 0.867845 0.280172
C18   C     C_R   0.500000 0.000000 0.867879 0.288229
C19   C     C_R   0.500000 0.000000 0.367879 0.288229
C20   C     C_R   0.000000 0.500000 0.367845 0.280171
C21   C     C_R   0.441752 0.967076 0.238114 0.041048
C22   C     C_R   0.951740 0.453705 0.238109 0.041175
C23   C     C_R   0.558248 0.032924 0.238114 0.041049
C24   C     C_R   0.433787 0.002303 0.597034 -0.152546
C25   C     C_R   0.048260 0.546295 0.238109 0.041175
C26   C     C_R   0.953705 0.451741 0.738109 0.041175
C27   C     C_R   0.467076 0.941752 0.738114 0.041048
C28   C     C_R   0.046295 0.548259 0.738109 0.041176
C29   C     C_R   0.532924 0.058248 0.738114 0.041048
C30   C     C_R   0.500000 1.000000 0.226291 0.085875
C31   C     C_R   0.000000 0.500000 0.226297 0.087215
C32   C     C_R   0.000000 0.500000 0.726297 0.087215
C33   C     C_R   0.500000 0.000000 0.726290 0.085875
C34   C     C_R   0.389109 0.927536 0.225927 -0.229875
C35   C     C_R   0.500000 1.000000 0.132045 0.274471
C36   C     C_R   0.897975 0.415539 0.225982 -0.230545
C37   C     C_R   0.610891 0.072463 0.225927 -0.229876
C38   C     C_R   0.102025 0.584461 0.225982 -0.230545
C39   C     C_R   0.915539 0.397975 0.725982 -0.230545
C40   C     C_R   0.427537 0.889108 0.725927 -0.229875
C41   C     C_R   0.084461 0.602025 0.725982 -0.230545
C42   C     C_R   0.572462 0.110892 0.725927 -0.229875
C43   C     C_R   0.640803 0.860707 0.000284 0.888817
C44   C     C_R   0.140917 0.639089 0.999579 0.895437
C45   C     C_R   0.359196 0.139293 0.000284 0.888817
C46   C     C_R   1.000000 0.500000 0.132038 0.267156
C47   C     C_R   0.859083 0.360911 0.999579 0.895437
C48   C     C_R   0.360911 0.859083 0.999579 0.895283
C49   C     C_R   0.860706 0.640802 0.000283 0.888683
C50   C     C_R   0.639089 0.140917 0.999579 0.895283
C51   C     C_R   0.139294 0.359198 0.000283 0.888683
C52   C     C_R   0.140802 0.360706 0.500283 0.888683
C53   C     C_R   0.640917 0.139089 0.499579 0.895283
C54   C     C_R   0.859198 0.639294 0.500283 0.888683
C55   C     C_R   0.359083 0.860911 0.499579 0.895283
C56   C     C_R   0.860911 0.359083 0.499579 0.895438
C57   C     C_R   0.000000 0.500000 0.632038 0.267156
C58   C     C_R   0.360707 0.140803 0.500284 0.888817
C59   C     C_R   0.139089 0.640917 0.499579 0.895437
C60   C     C_R   0.639293 0.859196 0.500284 0.888817
C61   C     C_R   0.236578 0.816163 0.992291 -0.050121
C62   C     C_R   0.206634 0.259688 0.982490 0.029050
C63   C     C_R   0.763422 0.183837 0.992291 -0.050120
C64   C     C_R   0.793366 0.740312 0.982490 0.029050
C65   C     C_R   0.740308 0.793366 0.982491 0.028071
C66   C     C_R   0.816163 0.236578 0.992291 -0.049655
C67   C     C_R   0.259692 0.206634 0.982491 0.028071
C68   C     C_R   0.500000 0.000000 0.632045 0.274471
C69   C     C_R   0.183837 0.763422 0.992291 -0.049655
C70   C     C_R   0.736577 0.316163 0.492291 -0.049655
C71   C     C_R   0.706634 0.759692 0.482491 0.028071
C72   C     C_R   0.263422 0.683837 0.492291 -0.049655
C73   C     C_R   0.293366 0.240308 0.482491 0.028072
C74   C     C_R   0.240312 0.293366 0.482490 0.029050
C75   C     C_R   0.316163 0.736578 0.492291 -0.050120
C76   C     C_R   0.759688 0.706634 0.482490 0.029050
C77   C     C_R   0.683837 0.263422 0.492291 -0.050120
C78   C     C_R   0.308556 0.799965 0.997908 -0.136505
C79   C     C_R   0.500000 0.000000 0.202527 -0.048094
C80   C     C_R   0.190920 0.299247 0.001740 -0.223647
C81   C     C_R   0.691444 0.200035 0.997908 -0.136506
C82   C     C_R   0.809080 0.700753 0.001740 -0.223647
C83   C     C_R   0.700753 0.809079 0.001741 -0.224495
C84   C     C_R   0.799965 0.308556 0.997908 -0.136338
C85   C     C_R   0.299247 0.190921 0.001741 -0.224495
C86   C     C_R   0.200035 0.691444 0.997908 -0.136338
C87   C     C_R   0.808556 0.299965 0.497908 -0.136338
C88   C     C_R   0.690921 0.799247 0.501741 -0.224495
C89   C     C_R   0.191444 0.700035 0.497908 -0.136338
C90   C     C_R   0.000000 0.500000 0.202567 -0.047904
C91   C     C_R   0.309079 0.200753 0.501741 -0.224495
C92   C     C_R   0.200753 0.309080 0.501740 -0.223647
C93   C     C_R   0.299965 0.808556 0.497908 -0.136505
C94   C     C_R   0.799247 0.690920 0.501740 -0.223647
C95   C     C_R   0.700035 0.191444 0.497908 -0.136506
C96   C     C_R   0.329074 0.725567 0.000053 0.222412
C97   C     C_R   0.221392 0.276001 0.022277 0.249491
C98   C     C_R   0.670926 0.274433 0.000053 0.222412
C99   C     C_R   0.778608 0.723999 0.022277 0.249491
C100  C     C_R   0.724002 0.778604 0.022277 0.249644
C101  C     C_R   0.000000 0.500000 0.702567 -0.047904
C102  C     C_R   0.725567 0.329074 0.000053 0.222753
C103  C     C_R   0.275998 0.221396 0.022277 0.249644
C104  C     C_R   0.274433 0.670926 0.000053 0.222753
C105  C     C_R   0.829074 0.225567 0.500053 0.222753
C106  C     C_R   0.721396 0.775998 0.522277 0.249644
C107  C     C_R   0.170926 0.774433 0.500053 0.222753
C108  C     C_R   0.278604 0.224002 0.522277 0.249644
C109  C     C_R   0.223999 0.278608 0.522277 0.249491
C110  C     C_R   0.225567 0.829074 0.500054 0.222412
C111  C     C_R   0.776001 0.721392 0.522277 0.249491
C112  C     C_R   0.000000 0.500000 0.939306 0.815204
C113  C     C_R   0.500000 1.000000 0.702527 -0.048094
C114  C     C_R   0.774433 0.170926 0.500054 0.222412
C115  C     C_3   0.125059 0.815577 0.999238 0.105745
C116  C     C_3   0.285886 0.226692 0.959695 0.094444
C117  C     C_3   0.874941 0.184423 0.999238 0.105745
C118  C     C_3   0.714114 0.773308 0.959695 0.094444
C119  C     C_3   0.773305 0.714128 0.959693 0.092739
C120  C     C_3   0.815576 0.125059 0.999239 0.105752
C121  C     C_3   0.226695 0.285872 0.959693 0.092739
C122  C     C_3   0.184424 0.874941 0.999239 0.105752
C123  C     C_3   0.625059 0.315576 0.499239 0.105752
C124  C     C_R   0.443603 0.963776 0.190646 -0.092308
C125  C     C_3   0.785872 0.726695 0.459693 0.092739
C126  C     C_3   0.374941 0.684424 0.499239 0.105752
C127  C     C_3   0.214128 0.273305 0.459693 0.092739
C128  C     C_3   0.273308 0.214114 0.459695 0.094443
C129  C     C_3   0.315577 0.625059 0.499238 0.105745
C130  C     C_3   0.726692 0.785886 0.459695 0.094444
C131  C     C_3   0.684423 0.374941 0.499238 0.105745
C132  C     C_R   0.442381 0.969886 0.167148 0.543132
C133  C     C_R   0.954561 0.453517 0.167234 0.545186
C134  C     C_R   0.557619 0.030114 0.167148 0.543132
C135  C     C_R   0.948605 0.457044 0.190704 -0.091056
C136  C     C_R   0.045439 0.546483 0.167234 0.545186
C137  C     C_R   0.953517 0.454561 0.667234 0.545186
C138  C     C_R   0.469886 0.942380 0.667148 0.543131
C139  C     C_R   0.046483 0.545439 0.667234 0.545186
C140  C     C_R   0.530113 0.057620 0.667148 0.543131
C141  C     C_R   0.497695 0.066144 0.120304 -0.069761
C142  C     C_R   0.064401 0.484692 0.120255 -0.067335
C143  C     C_R   0.502305 0.933856 0.120304 -0.069762
C144  C     C_R   0.935599 0.515308 0.120255 -0.067335
C145  C     C_R   0.984693 0.564401 0.620255 -0.067335
C146  C     C_R   0.556397 0.036224 0.190646 -0.092307
C147  C     C_R   0.566144 0.997695 0.620304 -0.069761
C148  C     C_R   0.015307 0.435599 0.620255 -0.067335
C149  C     C_R   0.433856 0.002305 0.620304 -0.069762
C150  C     C_2   0.336520 0.874193 0.192129 1.006998
C151  C     C_2   0.829083 0.384883 0.192194 1.016798
C152  C     C_2   0.663480 0.125807 0.192129 1.006999
C153  C     C_2   0.170917 0.615117 0.192194 1.016798
C154  C     C_2   0.884881 0.329084 0.692194 1.016798
C155  C     C_2   0.374194 0.836519 0.692129 1.006998
C156  C     C_2   0.115119 0.670916 0.692194 1.016798
C157  C     C_R   0.051395 0.542955 0.190704 -0.091057
C158  C     C_2   0.625806 0.163481 0.692129 1.006998
C159  C     C_2   0.840156 0.369141 0.807858 1.011902
C160  C     C_2   0.414673 0.811885 0.807913 1.026953
C161  C     C_2   0.159844 0.630859 0.807858 1.011902
C162  C     C_2   0.585327 0.188115 0.807913 1.026952
C163  C     C_2   0.311886 0.914672 0.307913 1.026952
C164  C     C_2   0.869139 0.340157 0.307858 1.011902
C165  C     C_2   0.688114 0.085328 0.307913 1.026951
C166  C     C_2   0.130860 0.659843 0.307858 1.011902
C167  C     C_R   0.957044 0.448605 0.690704 -0.091057
C168  C     C_R   0.463777 0.943603 0.690646 -0.092308
C169  C     C_R   0.042956 0.551395 0.690704 -0.091057
C170  C     C_R   0.536223 0.056397 0.690646 -0.092308
C171  C     C_R   0.390007 0.924222 0.202694 -0.016843
C172  C     C_R   0.000000 0.500000 0.439306 0.815204
C173  C     C_R   0.894429 0.418206 0.202743 -0.021783
C174  C     C_R   0.609992 0.075778 0.202694 -0.016843
C175  C     C_R   0.105571 0.581793 0.202743 -0.021783
C176  C     C_R   0.918206 0.394429 0.702743 -0.021782
C177  C     C_R   0.424223 0.890007 0.702694 -0.016843
C178  C     C_R   0.081794 0.605571 0.702743 -0.021782
C179  C     C_R   0.575777 0.109993 0.702694 -0.016843
C180  C     C_R   0.500000 0.000000 0.085177 -0.035504
C181  C     C_R   0.000000 0.500000 0.085145 -0.036932
C182  C     C_R   0.000000 0.500000 0.585145 -0.036931
C183  C     C_R   0.500000 0.000000 0.439305 0.814755
C184  C     C_R   0.500000 1.000000 0.585177 -0.035504
C185  C     C_R   0.000000 0.500000 0.914719 -0.033260
C186  C     C_R   0.500000 0.000000 0.914718 -0.029989
C187  C     C_R   0.500000 0.000000 0.414718 -0.029989
C188  C     C_R   0.000000 0.500000 0.414719 -0.033260
C189  C     C_R   0.949130 0.456580 0.761760 0.043148
C190  C     C_R   0.472271 0.939098 0.761806 0.043580
C191  C     C_R   0.050870 0.543420 0.761760 0.043148
C192  C     C_R   0.527729 0.060902 0.761806 0.043580
C193  C     C_R   0.439098 0.972271 0.261806 0.043580
C194  C     C_R   0.497697 0.066213 0.097034 -0.152546
C195  C     C_R   0.956580 0.449130 0.261760 0.043148
C196  C     C_R   0.560902 0.027729 0.261806 0.043580
C197  C     C_R   0.043420 0.550870 0.261760 0.043148
C198  C     C_R   0.000000 0.500000 0.773598 0.088867
C199  C     C_R   0.500000 0.000000 0.773648 0.088052
C200  C     C_R   0.500000 0.000000 0.273648 0.088052
C201  C     C_R   0.000000 0.500000 0.273598 0.088867
C202  C     C_R   0.895086 0.419025 0.773902 -0.241689
C203  C     C_R   0.450242 0.877154 0.774008 -0.240547
C204  C     C_R   0.104914 0.580975 0.773902 -0.241689
C205  C     C_R   0.064533 0.485037 0.096985 -0.154788
C206  C     C_R   0.549758 0.122846 0.774008 -0.240547
C207  C     C_R   0.377154 0.950241 0.274008 -0.240547
C208  C     C_R   0.919024 0.395087 0.273902 -0.241689
C209  C     C_R   0.622846 0.049759 0.274008 -0.240548
C210  C     C_R   0.080976 0.604913 0.273902 -0.241689
C211  C     C_R   0.500000 0.000000 0.060588 0.844051
C212  C     C_R   0.000000 0.500000 0.060576 0.842741
C213  C     C_R   0.000000 0.500000 0.560577 0.842741
C214  C     C_R   0.500000 1.000000 0.560588 0.844051
C215  C     C_R   0.893799 0.418690 0.797164 -0.015493
C216  C     C_R   0.502303 0.933787 0.097034 -0.152545
C217  C     C_R   0.449129 0.876327 0.797256 -0.027196
C218  C     C_R   0.106200 0.581310 0.797164 -0.015492
C219  C     C_R   0.550871 0.123673 0.797256 -0.027196
C220  C     C_R   0.376327 0.949128 0.297256 -0.027197
C221  C     C_R   0.918689 0.393800 0.297164 -0.015493
C222  C     C_R   0.623673 0.050872 0.297256 -0.027196
C223  C     C_R   0.081310 0.606200 0.297164 -0.015493
C224  C     C_R   0.945861 0.460318 0.809232 -0.087299
C225  C     C_R   0.475420 0.937527 0.809322 -0.087950
C226  C     C_R   0.054139 0.539682 0.809232 -0.087299
C227  C     C_R   0.935467 0.514963 0.096985 -0.154788
C228  C     C_R   0.524580 0.062473 0.809322 -0.087950
C229  C     C_R   0.437528 0.975419 0.309322 -0.087950
C230  C     C_R   0.960317 0.445861 0.309232 -0.087299
C231  C     C_R   0.562472 0.024581 0.309322 -0.087950
C232  C     C_R   0.039683 0.554139 0.309232 -0.087299
C233  C     C_R   0.000000 0.500000 0.797357 -0.051683
C234  C     C_R   0.500000 0.000000 0.797432 -0.048622
C235  C     C_R   0.500000 0.000000 0.297432 -0.048622
C236  C     C_R   0.000000 0.500000 0.297357 -0.051683
C237  C     C_R   0.055669 0.533613 0.832738 0.543932
C238  C     C_R   0.985037 0.564533 0.596985 -0.154788
C239  C     C_R   0.519070 0.062179 0.832850 0.541531
C240  C     C_R   0.944331 0.466386 0.832738 0.543931
C241  C     C_R   0.480930 0.937821 0.832850 0.541530
C242  C     C_R   0.562179 0.019071 0.332850 0.541531
C243  C     C_R   0.033614 0.555669 0.332738 0.543931
C244  C     C_R   0.437821 0.980929 0.332850 0.541530
C245  C     C_R   0.966386 0.444331 0.332738 0.543931
C246  C     C_R   0.005378 0.434030 0.879594 -0.077595
C247  C     C_R   0.433906 0.996520 0.879590 -0.080170
C248  C     C_R   0.994622 0.565970 0.879594 -0.077595
H1    H     H_    0.852231 0.389200 0.765558 0.174968
H2    H     H_    0.854223 0.387282 0.234400 0.172905
H3    H     H_    0.651129 0.105828 0.234211 0.170847
H4    H     H_    0.145777 0.612718 0.234400 0.172905
H5    H     H_    0.887281 0.354224 0.734400 0.172905
H6    H     H_    0.394173 0.848870 0.734211 0.170847
H7    H     H_    0.112719 0.645776 0.734400 0.172905
H8    H     H_    0.605827 0.151129 0.734211 0.170847
H9    H     H_    0.084116 0.823508 0.985759 0.135983
H10   H     H_    0.342229 0.249369 0.959948 0.108594
H11   H     H_    0.915885 0.176491 0.985759 0.135983
H12   H     H_    0.433311 0.827613 0.765775 0.175964
H13   H     H_    0.657771 0.750631 0.959948 0.108594
H14   H     H_    0.750639 0.657780 0.959943 0.108714
H15   H     H_    0.823506 0.084113 0.985761 0.135815
H16   H     H_    0.249361 0.342220 0.959943 0.108715
H17   H     H_    0.176494 0.915887 0.985761 0.135815
H18   H     H_    0.584113 0.323506 0.485761 0.135815
H19   H     H_    0.842220 0.749360 0.459943 0.108714
H20   H     H_    0.415887 0.676494 0.485761 0.135815
H21   H     H_    0.157780 0.250639 0.459943 0.108714
H22   H     H_    0.250631 0.157771 0.459948 0.108595
H23   H     H_    0.147769 0.610800 0.765558 0.174968
H24   H     H_    0.323508 0.584116 0.485759 0.135983
H25   H     H_    0.749369 0.842229 0.459948 0.108594
H26   H     H_    0.676492 0.415884 0.485759 0.135984
H27   H     H_    0.504236 0.881949 0.088352 0.197591
H28   H     H_    0.885057 0.527039 0.088274 0.200442
H29   H     H_    0.495764 0.118051 0.088352 0.197591
H30   H     H_    0.114943 0.472961 0.088274 0.200442
H31   H     H_    0.027039 0.385057 0.588274 0.200442
H32   H     H_    0.381949 0.004235 0.588352 0.197591
H33   H     H_    0.972961 0.614943 0.588274 0.200442
H34   H     H_    0.566689 0.172386 0.765775 0.175964
H35   H     H_    0.618051 0.995765 0.588352 0.197590
H36   H     H_    0.504351 0.882500 0.129246 0.171419
H37   H     H_    0.885631 0.527665 0.129158 0.177162
H38   H     H_    0.495649 0.117500 0.129246 0.171419
H39   H     H_    0.114368 0.472335 0.129158 0.177162
H40   H     H_    0.027664 0.385631 0.629158 0.177162
H41   H     H_    0.382500 0.004350 0.629245 0.171419
H42   H     H_    0.972336 0.614369 0.629158 0.177162
H43   H     H_    0.617500 0.995650 0.629245 0.171419
H44   H     H_    0.009624 0.382268 0.911550 0.200415
H45   H     H_    0.327614 0.933309 0.265775 0.175964
H46   H     H_    0.382010 0.994122 0.911544 0.195361
H47   H     H_    0.990376 0.617732 0.911550 0.200415
H48   H     H_    0.617990 0.005878 0.911544 0.195361
H49   H     H_    0.494123 0.882010 0.411544 0.195361
H50   H     H_    0.882268 0.509625 0.411550 0.200415
H51   H     H_    0.505877 0.117990 0.411544 0.195361
H52   H     H_    0.117732 0.490375 0.411550 0.200415
H53   H     H_    0.009844 0.382814 0.870660 0.170830
H54   H     H_    0.382621 0.993959 0.870625 0.164582
H55   H     H_    0.990155 0.617186 0.870660 0.170830
H56   H     H_    0.889199 0.352232 0.265558 0.174968
H57   H     H_    0.617379 0.006041 0.870625 0.164582
H58   H     H_    0.493960 0.882621 0.370625 0.164582
H59   H     H_    0.882814 0.509845 0.370659 0.170830
H60   H     H_    0.506040 0.117379 0.370625 0.164582
H61   H     H_    0.117186 0.490155 0.370659 0.170830
H62   H     H_    0.231836 0.840464 0.190228 0.373958
H63   H     H_    0.758684 0.300259 0.191331 0.364478
H64   H     H_    0.768164 0.159536 0.190228 0.373959
H65   H     H_    0.241316 0.699741 0.191331 0.364477
H66   H     H_    0.800257 0.258686 0.691331 0.364478
H67   H     H_    0.672386 0.066691 0.265775 0.175964
H68   H     H_    0.340465 0.731835 0.690228 0.373958
H69   H     H_    0.199743 0.741314 0.691331 0.364478
H70   H     H_    0.659535 0.268165 0.690228 0.373958
H71   H     H_    0.822554 0.284688 0.828788 0.358892
H72   H     H_    0.335920 0.773380 0.828298 0.364985
H73   H     H_    0.177446 0.715312 0.828788 0.358892
H74   H     H_    0.664080 0.226620 0.828298 0.364985
H75   H     H_    0.273381 0.835918 0.328298 0.364986
H76   H     H_    0.784687 0.322556 0.328788 0.358892
H77   H     H_    0.726618 0.164081 0.328298 0.364986
H78   H     H_    0.110801 0.647768 0.265558 0.174968
H79   H     H_    0.215313 0.677444 0.328788 0.358892
H80   H     H_    0.348871 0.894172 0.234211 0.170847
N1    N     N_R   0.500000 1.000000 0.156028 -0.356452
N2    N     N_R   1.000000 0.500000 0.156061 -0.354782
N3    N     N_R   0.000000 0.500000 0.656061 -0.354782
N4    N     N_R   0.500000 0.000000 0.656029 -0.356452
N5    N     N_R   0.000000 0.500000 0.843851 -0.355295
N6    N     N_R   0.500000 0.000000 0.843921 -0.356486
N7    N     N_R   0.500000 0.000000 0.343921 -0.356486
N8    N     N_R   0.000000 0.500000 0.343851 -0.355295
O1    O     O_3   0.500000 0.000000 0.999950 -0.531714
O2    O     O_R   0.500000 0.939340 0.450010 -0.632871
O3    O     O_R   0.184198 0.635928 0.322882 -0.751466
O4    O     O_R   0.060660 0.500000 0.450010 -0.632816
O5    O     O_R   0.500000 0.060660 0.450010 -0.632871
O6    O     O_R   0.500000 0.939270 0.049890 -0.622797
O7    O     O_R   0.060730 0.500000 0.049890 -0.621634
O8    O     O_R   0.500000 0.060730 0.049890 -0.622798
O9    O     O_R   0.939270 0.500000 0.049890 -0.621634
O10   O     O_R   0.000000 0.439270 0.549890 -0.621634
O11   O     O_R   0.560730 0.000000 0.549890 -0.622798
O12   O     O_R   0.000000 0.560730 0.549890 -0.621634
O13   O     O_3   0.000000 0.500000 0.999950 -0.532103
O14   O     O_R   0.439270 0.000000 0.549890 -0.622797
O15   O     O_R   0.646220 0.914570 0.986850 -0.609232
O16   O     O_R   0.085430 0.646220 0.986850 -0.639039
O17   O     O_R   0.353780 0.085430 0.986850 -0.609231
O18   O     O_R   0.914570 0.353780 0.986850 -0.639039
O19   O     O_R   0.353780 0.914570 0.986850 -0.639516
O20   O     O_R   0.914570 0.646220 0.986850 -0.609378
O21   O     O_R   0.646220 0.085430 0.986850 -0.639515
O22   O     O_R   0.085430 0.353780 0.986850 -0.609378
O23   O     O_R   0.146220 0.414570 0.486850 -0.609378
O24   O     O_3   0.000000 0.500000 0.499950 -0.532103
O25   O     O_R   0.585430 0.146220 0.486850 -0.639515
O26   O     O_R   0.853780 0.585430 0.486850 -0.609378
O27   O     O_R   0.414570 0.853780 0.486850 -0.639515
O28   O     O_R   0.853780 0.414570 0.486850 -0.639039
O29   O     O_R   0.414570 0.146220 0.486850 -0.609231
O30   O     O_R   0.146220 0.585430 0.486850 -0.639039
O31   O     O_R   0.585430 0.853780 0.486850 -0.609231
O32   O     O_R   0.414610 0.146160 0.013040 -0.595755
O33   O     O_R   0.853840 0.414610 0.013040 -0.595808
O34   O     O_R   0.585390 0.853840 0.013040 -0.595755
O35   O     O_3   0.500000 0.000000 0.499950 -0.531714
O36   O     O_R   0.146160 0.585390 0.013040 -0.595808
O37   O     O_R   0.585390 0.146160 0.013040 -0.596594
O38   O     O_R   0.146160 0.414610 0.013040 -0.595941
O39   O     O_R   0.414610 0.853840 0.013040 -0.596594
O40   O     O_R   0.853840 0.585390 0.013040 -0.595941
O41   O     O_R   0.914610 0.646160 0.513040 -0.595941
O42   O     O_R   0.353840 0.914610 0.513040 -0.596594
O43   O     O_R   0.085390 0.353840 0.513040 -0.595941
O44   O     O_R   0.646160 0.085390 0.513040 -0.596594
O45   O     O_R   0.085390 0.646160 0.513040 -0.595808
O46   O     O_R   0.439340 0.000000 0.950010 -0.632871
O47   O     O_R   0.646160 0.914610 0.513040 -0.595755
O48   O     O_R   0.914610 0.353840 0.513040 -0.595808
O49   O     O_R   0.353840 0.085390 0.513040 -0.595755
O50   O     O_2   0.383492 0.948070 0.155398 -0.496065
O51   O     O_2   0.917342 0.402617 0.155611 -0.499509
O52   O     O_2   0.616508 0.051930 0.155398 -0.496064
O53   O     O_2   0.082658 0.597383 0.155611 -0.499509
O54   O     O_2   0.902616 0.417343 0.655611 -0.499509
O55   O     O_2   0.448070 0.883491 0.655398 -0.496064
O56   O     O_2   0.097384 0.582657 0.655611 -0.499509
O57   O     O_R   0.000000 0.439340 0.950010 -0.632815
O58   O     O_2   0.551930 0.116508 0.655398 -0.496064
O59   O     O_2   0.887040 0.440893 0.844526 -0.511500
O60   O     O_2   0.469290 0.876374 0.844724 -0.509571
O61   O     O_2   0.112960 0.559107 0.844526 -0.511500
O62   O     O_2   0.530710 0.123625 0.844724 -0.509571
O63   O     O_2   0.376375 0.969289 0.344724 -0.509571
O64   O     O_2   0.940892 0.387041 0.344526 -0.511500
O65   O     O_2   0.623625 0.030711 0.344724 -0.509571
O66   O     O_2   0.059108 0.612959 0.344526 -0.511500
O67   O     O_2   0.357042 0.828223 0.178710 -0.567863
O68   O     O_R   0.560660 0.000000 0.950010 -0.632871
O69   O     O_R   0.263081 0.877382 0.198449 -0.762533
O70   O     O_2   0.794486 0.418722 0.178121 -0.558353
O71   O     O_R   0.804694 0.316413 0.199342 -0.788543
O72   O     O_2   0.642958 0.171777 0.178710 -0.567862
O73   O     O_R   0.736919 0.122617 0.198449 -0.762534
O74   O     O_2   0.205514 0.581278 0.178121 -0.558353
O75   O     O_R   0.195306 0.683587 0.199342 -0.788542
O76   O     O_2   0.918720 0.294487 0.678121 -0.558353
O77   O     O_R   0.816412 0.304696 0.699342 -0.788543
O78   O     O_2   0.328224 0.857041 0.678710 -0.567863
O79   O     O_R   1.000000 0.560660 0.950010 -0.632816
O80   O     O_R   0.377384 0.763080 0.698449 -0.762532
O81   O     O_2   0.081280 0.705513 0.678121 -0.558353
O82   O     O_R   0.183588 0.695304 0.699342 -0.788542
O83   O     O_2   0.671776 0.142959 0.678710 -0.567863
O84   O     O_R   0.622616 0.236920 0.698449 -0.762532
O85   O     O_2   0.775561 0.372887 0.802777 -0.584393
O86   O     O_R   0.864071 0.315803 0.822882 -0.751465
O87   O     O_2   0.435853 0.750397 0.803235 -0.568185
O88   O     O_R   0.355592 0.821423 0.822415 -0.752953
O89   O     O_2   0.224439 0.627113 0.802777 -0.584393
O90   O     O_R   0.939340 0.500000 0.450010 -0.632815
O91   O     O_R   0.135929 0.684197 0.822882 -0.751466
O92   O     O_2   0.564147 0.249603 0.803235 -0.568185
O93   O     O_R   0.644409 0.178577 0.822415 -0.752953
O94   O     O_2   0.250397 0.935851 0.303235 -0.568184
O95   O     O_R   0.321424 0.855590 0.322415 -0.752954
O96   O     O_2   0.872885 0.275562 0.302777 -0.584392
O97   O     O_R   0.815802 0.364072 0.322882 -0.751466
O98   O     O_2   0.749602 0.064149 0.303235 -0.568184
O99   O     O_R   0.678576 0.144410 0.322415 -0.752953
O100  O     O_2   0.127115 0.724438 0.302777 -0.584393
Zn1   Zn    Zn3+2 0.500000 0.913250 0.018650 1.076797
Zn2   Zn    Zn3+2 0.000000 0.586820 0.981240 1.031336
Zn3   Zn    Zn3+2 0.413180 0.000000 0.981240 1.031255
Zn4   Zn    Zn3+2 0.000000 0.413180 0.981240 1.031336
Zn5   Zn    Zn3+2 0.086820 0.500000 0.481240 1.031336
Zn6   Zn    Zn3+2 0.500000 0.086820 0.481240 1.031255
Zn7   Zn    Zn3+2 0.913180 0.500000 0.481240 1.031336
Zn8   Zn    Zn3+2 0.500000 0.913180 0.481240 1.031255
Zn9   Zn    Zn3+2 0.086750 0.500000 0.018650 1.077323
Zn10  Zn    Zn3+2 0.500000 0.086750 0.018650 1.076797
Zn11  Zn    Zn3+2 0.913250 0.500000 0.018650 1.077323
Zn12  Zn    Zn3+2 0.000000 0.413250 0.518650 1.077323
Zn13  Zn    Zn3+2 0.586750 0.000000 0.518650 1.076797
Zn14  Zn    Zn3+2 0.000000 0.586750 0.518650 1.077323
Zn15  Zn    Zn3+2 0.413250 0.000000 0.518650 1.076797
Zn16  Zn    Zn3+2 0.586820 0.000000 0.981240 1.031255

loop_
_geom_bond_atom_site_label_1
_geom_bond_atom_site_label_2
_ccdc_geom_bond_type
O44   Zn13  S    
C164  O96   D    
C117  H11   S    
C166  O3    S    
C159  C215  S    
C153  C175  S    
O14   Zn15  S    
C212  O7    A    
O1    Zn1   S    
C133  O51   S    
C162  O92   D    
C145  C238  A    
C134  O52   S    
C9    C186  A    
O35   Zn13  S    
C241  O60   S    
H77   O99   S    
C231  C235  A    
C144  H37   S    
C135  C173  A    
C172  O4    A    
C106  C111  A    
C2    H35   S    
C189  C202  A    
C107  C110  A    
C22   C31   A    
C184  C214  S    
C23   C30   A    
C53   O25   A    
Br26  C131  S    
C73   C91   A    
C211  O8    A    
C162  O93   S    
O35   Zn8   S    
C214  O14   A    
C21   C193  A    
C138  N4    A    
C77   C95   A    
C71   C88   A    
C122  H17   S    
C70   C131  S    
C155  O78   D    
Br14  C119  S    
C65   C118  S    
H74   O93   S    
C25   C31   A    
C80   C97   A    
C65   C83   A    
O32   Zn10  S    
C61   C78   A    
C137  O54   S    
C194  H29   S    
C160  O88   S    
C15   H51   S    
Br20  C126  S    
Br21  C127  S    
C64   C82   A    
C2    C147  A    
C98   C102  A    
C163  O94   D    
H62   O69   S    
C10   H47   S    
O13   Zn11  S    
C101  C169  A    
C12   H49   S    
C195  C201  A    
C50   O37   A    
C150  C171  S    
Br2   C106  S    
C105  C114  A    
C108  C109  A    
C4    H58   S    
C229  C244  A    
O1    Zn16  S    
C17   C248  A    
C164  C221  S    
O68   Zn16  S    
C44   C86   S    
Br23  C98   S    
Br19  C125  S    
O90   Zn7   S    
C48   O39   A    
H79   O3    S    
O30   Zn5   S    
C11   H48   S    
C202  C215  A    
C149  H41   S    
O13   Zn2   S    
C41   C178  A    
O28   Zn7   S    
C245  O64   S    
C155  O80   S    
O5    Zn6   S    
C132  O50   S    
C56   C87   S    
C68   C149  A    
C208  H56   S    
C60   O47   A    
C54   O41   A    
C193  C207  A    
C52   O43   A    
C4    C12   A    
C43   C83   S    
C212  O9    A    
O1    Zn3   S    
C228  C234  A    
C85   C103  A    
C204  H23   S    
C86   C104  A    
C90   C157  A    
C115  H9    S    
O57   Zn4   S    
O24   Zn14  S    
C51   O22   A    
C90   C135  A    
C204  C218  A    
Br31  C104  S    
C61   C122  S    
C144  C227  A    
C76   C125  S    
C154  C176  S    
C29   C42   A    
O42   Zn15  S    
C168  C177  A    
C158  O84   S    
C42   C179  A    
C28   C32   A    
C211  O6    A    
C228  C239  A    
C38   C175  A    
C156  O82   S    
O35   Zn6   S    
C201  C236  A    
C197  C210  A    
H71   O86   S    
C44   O16   A    
C195  C208  A    
C146  C174  A    
O47   Zn13  S    
C172  O90   A    
C22   C195  A    
C29   C33   A    
C199  C234  A    
C74   C92   A    
C48   O19   A    
C51   C80   S    
C70   C77   A    
C63   C120  S    
C137  N3    A    
C76   C94   A    
C192  C206  A    
C125  C130  S    
C72   C75   A    
C70   C87   A    
H68   O80   S    
C78   C96   A    
O49   Zn15  S    
H66   O77   S    
C205  H30   S    
O17   Zn3   S    
C54   C94   S    
C58   C91   S    
C94   C111  A    
O21   Zn16  S    
C142  H39   S    
C180  C216  A    
C202  H1    S    
C241  N6    A    
C57   N3    S    
C134  N1    A    
Br7   C111  S    
C55   O42   A    
C190  C199  A    
C243  N8    A    
C237  O61   S    
C123  H18   S    
C69   C86   A    
C35   C141  A    
O13   Zn4   S    
C244  O63   S    
C22   C36   A    
C154  O76   D    
C74   C127  S    
O23   Zn5   S    
C182  C238  A    
C226  C237  A    
C41   H7    S    
C19   N7    S    
O31   Zn8   S    
C97   C103  A    
C66   C84   A    
C30   C79   A    
C159  O85   D    
C55   O27   A    
C189  C198  A    
C3    C11   A    
Br25  C130  S    
C13   C148  A    
C191  C198  A    
C6    H60   S    
C215  C224  A    
C50   O21   A    
C58   O29   A    
C45   O32   A    
C101  C167  A    
O10   Zn12  S    
C210  C223  A    
C153  O74   D    
C156  C178  S    
C26   C189  A    
C183  O5    A    
C36   H2    S    
C83   C100  A    
C26   C32   A    
C53   O44   A    
C59   O45   A    
C193  C200  A    
C14   C188  A    
C81   C98   A    
C54   O26   A    
C163  O95   S    
C75   C93   A    
C8    H44   S    
C142  C205  A    
C5    C20   A    
C6    C19   A    
C123  C131  S    
O46   Zn3   S    
C230  C245  A    
H75   O95   S    
C9    H46   S    
Br28  C100  S    
O25   Zn6   S    
C27   C190  A    
C34   H80   S    
C67   C85   A    
C244  N7    A    
C10   C248  A    
C40   C177  A    
C116  H10   S    
C163  C220  S    
C47   O33   A    
C37   C174  A    
C161  C218  S    
C125  H19   S    
C140  C170  A    
C243  O66   S    
C126  H20   S    
C23   C37   A    
O48   Zn12  S    
C165  C222  S    
C151  C173  S    
O38   Zn9   S    
C140  O58   S    
C92   C109  A    
C11   C186  A    
O20   Zn2   S    
C145  H42   S    
C28   C191  A    
C18   N6    S    
C31   C90   A    
C148  H40   S    
C160  O87   D    
C238  H33   S    
C69   C115  S    
C207  C220  A    
C181  C212  S    
Br8   C114  S    
C50   C81   S    
O2    Zn8   S    
Br16  C121  S    
O26   Zn7   S    
C213  O10   A    
O11   Zn13  S    
C46   N2    S    
C49   C82   S    
C89   C107  A    
C60   C88   S    
C29   C192  A    
C147  H43   S    
C139  O56   S    
C27   C33   A    
C1    O68   A    
Br22  C128  S    
C62   C121  S    
C62   C80   A    
C167  C176  A    
C182  C213  S    
C197  C201  A    
C24   C184  A    
C153  O75   S    
C191  C204  A    
C58   O49   A    
Br3   C107  S    
C136  N2    A    
O39   Zn1   S    
O40   Zn11  S    
Br10  C116  S    
C118  C119  S    
C35   N1    S    
C130  H25   S    
C132  N1    A    
C124  C171  A    
C128  H22   S    
C221  C230  A    
C224  C233  A    
C165  O99   S    
C8    C185  A    
C82   C99   A    
Br24  C129  S    
Br1   C96   S    
C245  N8    A    
C136  O53   S    
O24   Zn7   S    
C45   O17   A    
C172  C188  S    
H70   O84   S    
Br13  C118  S    
C180  C211  S    
C96   C104  A    
H63   O71   S    
C113  C170  A    
C26   C39   A    
C84   C102  A    
C24   C149  A    
C28   C41   A    
C14   H50   S    
C152  C174  S    
C1    O46   A    
C17   N5    S    
C57   C148  A    
C237  N5    A    
C24   H32   S    
C126  C129  S    
O27   Zn8   S    
Br11  C117  S    
C56   O28   A    
C196  C209  A    
C242  O65   S    
C35   C143  A    
O18   Zn4   S    
C134  C146  A    
C25   C38   A    
Br6   C110  S    
C49   O40   A    
C170  C179  A    
C27   C40   A    
C137  C167  A    
C180  C194  A    
Br29  C102  S    
C150  O69   S    
C8    C246  A    
C207  H45   S    
Br17  C122  S    
Br15  C120  S    
C213  O12   A    
C240  N5    A    
C121  H16   S    
C190  C203  A    
Br12  C97   S    
O19   Zn3   S    
C120  H15   S    
C40   H6    S    
C138  O55   S    
C44   O36   A    
C113  C168  A    
C72   C129  S    
C183  O2    A    
C136  C157  A    
C158  C179  S    
C52   O23   A    
C9    C247  A    
C183  C187  S    
O29   Zn6   S    
C25   C197  A    
C141  H38   S    
C127  C128  S    
O24   Zn12  S    
C13   C182  A    
C242  N7    A    
O45   Zn14  S    
O33   Zn11  S    
C143  C216  A    
C151  O70   D    
C140  N4    A    
O15   Zn16  S    
C164  O97   S    
C61   C69   A    
C99   C100  A    
C196  C200  A    
C75   C126  S    
C161  O89   D    
C16   C188  A    
H72   O88   S    
C32   C101  A    
C206  H34   S    
C71   C130  S    
O8    Zn10  S    
C118  H13   S    
C225  C234  A    
C217  C225  A    
C227  H28   S    
C166  O100  D    
C73   C74   A    
C181  C205  A    
C200  C235  A    
C141  C194  A    
C59   O30   A    
C131  H26   S    
C112  C185  S    
C139  N3    A    
C157  C175  A    
O6    Zn1   S    
C43   O34   A    
C77   C123  S    
C68   N4    S    
C95   C114  A    
C73   C128  S    
C150  O67   D    
Br30  C103  S    
C162  C219  S    
C2    C184  A    
C5    C14   A    
C47   O18   A    
C112  O57   A    
Br18  C123  S    
O16   Zn2   S    
C7    C16   A    
C66   C117  S    
C166  C223  S    
C67   C116  S    
C206  C219  A    
C119  H14   S    
Br27  C99   S    
H69   O82   S    
C10   C185  A    
C138  C168  A    
C63   C66   A    
C133  N2    A    
C1    C186  S    
C224  C240  A    
C208  C221  A    
C158  O83   D    
C62   C67   A    
C223  C232  A    
C63   C81   A    
C156  O81   D    
C229  C235  A    
C45   C85   S    
C214  O11   A    
O79   Zn2   S    
C230  C236  A    
C219  C228  A    
C7    H61   S    
C160  C217  S    
H76   O97   S    
O7    Zn9   S    
O22   Zn4   S    
C127  H21   S    
C129  H24   S    
C115  C122  S    
C152  O72   D    
C79   C146  A    
C71   C76   A    
C112  O79   A    
C57   C145  A    
C79   C124  A    
C161  O91   S    
C231  C242  A    
C7    C20   A    
C47   C84   S    
C181  C227  A    
C46   C144  A    
H65   O75   S    
C239  N6    A    
C12   C187  A    
H73   O91   S    
C43   O15   A    
C56   O48   A    
C3    H57   S    
C232  C243  A    
C87   C105  A    
C155  C177  S    
O41   Zn14  S    
C203  H12   S    
C13   H31   S    
C117  C120  S    
O35   Zn15  S    
C5    H59   S    
C72   C89   A    
C143  H36   S    
C64   C119  S    
C15   C187  A    
C18   C247  A    
Br9   C115  S    
O43   Zn12  S    
C23   C196  A    
C139  C169  A    
O36   Zn9   S    
Br4   C108  S    
C21   C30   A    
C16   H52   S    
C248  H55   S    
Br5   C109  S    
C159  O86   S    
C42   H8    S    
C93   C110  A    
C232  C236  A    
C64   C65   A    
C3    C18   A    
C21   C34   A    
C6    C15   A    
C4    C19   A    
C220  C229  A    
C34   C171  A    
C216  H27   S    
C222  C231  A    
C59   C89   S    
C39   H5    S    
C53   C95   S    
O37   Zn10  S    
C203  C217  A    
C33   C113  A    
C169  C178  A    
C55   C93   S    
C152  O73   S    
C60   O31   A    
C151  O71   S    
C39   C176  A    
C165  O98   D    
O9    Zn11  S    
C239  O62   S    
C246  H53   S    
C49   O20   A    
C210  H78   S    
O12   Zn14  S    
O13   Zn9   S    
C52   C92   S    
C225  C241  A    
C51   O38   A    
Br32  C105  S    
C68   C147  A    
C240  O59   S    
C37   H3    S    
C17   C246  A    
C154  O77   S    
C38   H4    S    
C209  H67   S    
O24   Zn5   S    
C247  H54   S    
O1    Zn10  S    
O34   Zn1   S    
C91   C108  A    
C192  C199  A    
C88   C106  A    
C124  C132  A    
C133  C135  A    
C116  C121  S    
C48   C78   S    
C36   C173  A    
C46   C142  A    
C20   N8    S    
C209  C222  A    
O4    Zn5   S    
C226  C233  A    
C218  C226  A    
H64   O73   S    
C198  C233  A    
