data_mof_unit_47790.cif
_audit_creation_date              2012-12-10T17:41:04-0500
_audit_creation_method            fapswitch 2.2
_symmetry_space_group_name_H-M    P1
_symmetry_Int_Tables_number       1
_space_group_crystal_system       triclinic
_cell_length_a                    14.669801
_cell_length_b                    15.474977
_cell_length_c                    9.956471
_cell_angle_alpha                 92.323477
_cell_angle_beta                  90.346705
_cell_angle_gamma                 89.98191
_cell_volume                      2258.3670099

loop_
_atom_site_label
_atom_site_type_symbol
_atom_type_description
_atom_site_fract_x
_atom_site_fract_y
_atom_site_fract_z
_atom_type_partial_charge
C1    C     C_R   0.386192 0.874377 0.497433 0.974483
C2    C     C_R   0.686872 0.243970 0.391611 0.324960
C3    C     C_R   0.159951 0.232750 0.488157 0.315353
C4    C     C_R   0.187898 0.743159 0.390649 0.324300
C5    C     C_R   0.690365 0.818555 0.493939 -0.198309
C6    C     C_R   0.668612 0.203652 0.512870 -0.328372
C7    C     C_R   0.190441 0.318608 0.493887 -0.198669
C8    C     C_R   0.168636 0.703688 0.512345 -0.328044
C9    C     C_R   0.336349 0.990595 0.145472 -0.175902
C10   C     C_R   0.836317 0.491612 0.145627 -0.175977
C11   C     C_R   0.252434 0.978205 0.082954 0.437594
C12   C     C_R   0.379899 0.119352 0.501510 0.964660
C13   C     C_R   0.752175 0.480638 0.083286 0.437323
C14   C     C_R   0.248247 0.977743 0.945702 -0.298283
C15   C     C_R   0.747935 0.480199 0.946077 -0.297945
C16   C     C_R   0.326342 0.990853 0.867967 0.416403
C17   C     C_R   0.826216 0.491881 0.868103 0.415869
C18   C     C_R   0.416253 0.995513 0.928884 0.019435
C19   C     C_R   0.916204 0.496001 0.928930 0.020287
C20   C     C_R   0.418258 0.995345 0.073398 0.029532
C21   C     C_R   0.918227 0.495830 0.073449 0.029555
C22   C     C_R   0.578239 0.003826 0.072246 -0.187456
C23   C     C_R   0.886011 0.374514 0.497374 0.974831
C24   C     C_R   0.078253 0.503556 0.072224 -0.187468
C25   C     C_R   0.612965 0.126124 0.503601 0.946913
C26   C     C_R   0.621753 0.882538 0.498450 1.035072
C27   C     C_R   0.112937 0.626157 0.503501 0.945900
C28   C     C_R   0.121753 0.382534 0.498450 1.032137
C29   C     C_R   0.578770 0.003427 0.928467 0.533523
C30   C     C_R   0.078780 0.503237 0.928449 0.531535
C31   C     C_R   0.439523 0.294383 0.539659 -0.146837
C32   C     C_R   0.372966 0.752773 0.716653 -0.094799
C33   C     C_R   0.939901 0.794586 0.534004 -0.146694
C34   C     C_R   0.879899 0.619356 0.501503 0.965169
C35   C     C_R   0.874346 0.251724 0.714686 -0.095395
C36   C     C_R   0.469658 0.379403 0.552335 -0.216696
C37   C     C_R   0.348578 0.724045 0.842049 -0.263137
C38   C     C_R   0.970206 0.879625 0.543898 -0.215963
C39   C     C_R   0.850936 0.222222 0.840000 -0.261078
C40   C     C_R   0.908661 0.946619 0.529640 -0.099389
C41   C     C_R   0.760569 0.202998 0.866734 -0.107853
C42   C     C_R   0.408283 0.446517 0.537865 -0.098265
C43   C     C_R   0.257991 0.705013 0.867607 -0.106685
C44   C     C_R   0.816563 0.929009 0.505092 0.464121
C45   C     C_R   0.224337 0.166354 0.486917 0.333448
C46   C     C_R   0.694559 0.206441 0.765296 0.560695
C47   C     C_R   0.316520 0.429068 0.510284 0.466770
C48   C     C_R   0.192734 0.707933 0.765064 0.559777
C49   C     C_R   0.783637 0.841753 0.503119 -0.092758
C50   C     C_R   0.721564 0.222850 0.630512 -0.073153
C51   C     C_R   0.283612 0.341775 0.505811 -0.094303
C52   C     C_R   0.220765 0.723572 0.630487 -0.073279
C53   C     C_R   0.346750 0.274430 0.517474 -0.024092
C54   C     C_R   0.307161 0.758984 0.612949 -0.008696
C55   C     C_R   0.846903 0.774508 0.514624 -0.024029
C56   C     C_R   0.269668 0.786885 0.378155 0.427744
C57   C     C_R   0.807765 0.258470 0.612178 -0.009792
C58   C     C_R   0.315977 0.188203 0.504954 -0.149715
C59   C     C_R   0.324860 0.801085 0.492905 -0.208599
C60   C     C_R   0.816010 0.688241 0.504915 -0.150317
C61   C     C_R   0.824506 0.301388 0.492632 -0.208907
C62   C     C_R   0.724185 0.666304 0.489713 0.334278
C63   C     C_R   0.768403 0.288023 0.378608 0.428275
C64   C     C_R   0.659828 0.732726 0.491026 0.315072
H1    H     H_    0.541148 0.393136 0.570657 0.157674
H2    H     H_    0.754246 0.296214 0.183157 0.382535
H3    H     H_    0.181599 0.971099 0.898767 0.176581
H4    H     H_    0.681169 0.474365 0.899295 0.176281
H5    H     H_    0.246125 0.996937 0.710017 0.332854
H6    H     H_    0.746166 0.496676 0.709798 0.334012
H7    H     H_    0.710898 0.008228 0.923214 0.307324
H8    H     H_    0.210910 0.508079 0.923184 0.307801
H9    H     H_    0.489158 0.244185 0.548014 0.087013
H10   H     H_    0.443599 0.769682 0.701035 0.179616
H11   H     H_    0.989585 0.744464 0.542360 0.085627
H12   H     H_    0.399079 0.720891 0.921423 0.180210
H13   H     H_    0.944812 0.268886 0.698198 0.179002
H14   H     H_    0.933020 0.012760 0.533049 0.157563
H15   H     H_    0.741054 0.187786 0.967819 0.168286
H16   H     H_    0.432605 0.512668 0.543283 0.157513
H17   H     H_    0.237715 0.690262 0.968548 0.169362
H18   H     H_    0.739568 0.986801 0.384691 0.326573
H19   H     H_    0.567760 0.234126 0.739366 0.321746
H20   H     H_    0.239897 0.486976 0.389319 0.325798
H21   H     H_    0.066005 0.734916 0.736347 0.321696
H22   H     H_    0.555812 0.662826 0.539346 0.333750
H23   H     H_    0.041905 0.893443 0.560019 0.158382
H24   H     H_    0.563400 0.237596 0.320979 0.349939
H25   H     H_    0.055391 0.162075 0.531657 0.333972
H26   H     H_    0.064929 0.736976 0.318176 0.350792
H27   H     H_    0.641915 0.006894 0.127687 0.140103
H28   H     H_    0.141940 0.506403 0.127654 0.140926
H29   H     H_    0.187345 0.965212 0.250571 0.358494
H30   H     H_    0.686890 0.468962 0.251083 0.358953
H31   H     H_    0.902017 0.218682 0.918504 0.179594
H32   H     H_    0.334596 0.995692 0.251326 0.235591
H33   H     H_    0.834716 0.495948 0.251481 0.235853
H34   H     H_    0.142030 0.075802 0.418821 0.348355
H35   H     H_    0.257011 0.793668 0.182276 0.381483
H36   H     H_    0.640903 0.575226 0.426197 0.348079
N1    N     N_R   0.498810 1.000000 0.142780 -0.108211
N2    N     N_R   0.998810 0.500000 0.142780 -0.108239
N3    N     N_R   0.498740 1.000000 0.857170 -0.103624
N4    N     N_R   0.998740 0.500000 0.857170 -0.103331
O1    O     O_R   0.408390 0.908380 0.614690 -0.592268
O2    O     O_R   0.591620 0.908390 0.614640 -0.578574
O3    O     O_R   0.091620 0.591610 0.614640 -0.541593
O4    O     O_R   0.091620 0.408390 0.614640 -0.578630
O5    O     O_R   0.591610 0.091610 0.385310 -0.602161
O6    O     O_R   0.591610 0.908390 0.385310 -0.632283
O7    O     O_R   0.091610 0.591610 0.385310 -0.603101
O8    O     O_R   0.091610 0.408390 0.385310 -0.631490
O9    O     O_3   0.200719 0.080121 0.468199 -0.817060
O10   O     O_3   0.296966 0.816843 0.255658 -0.756009
O11   O     O_3   0.700386 0.579973 0.473360 -0.817029
O12   O     O_R   0.408390 0.091620 0.614690 -0.551491
O13   O     O_3   0.794571 0.319094 0.256319 -0.756693
O14   O     O_3   0.311273 0.004451 0.735377 -0.690723
O15   O     O_3   0.811299 0.504301 0.735150 -0.690065
O16   O     O_3   0.659348 0.006011 0.858305 -0.711927
O17   O     O_3   0.159358 0.505810 0.858278 -0.711897
O18   O     O_3   0.762252 0.998135 0.477685 -0.779509
O19   O     O_3   0.604927 0.203455 0.805450 -0.737706
O20   O     O_3   0.262679 0.498420 0.482230 -0.778522
O21   O     O_3   0.102785 0.704989 0.803739 -0.738025
O22   O     O_3   0.567033 0.716541 0.491179 -0.798562
O23   O     O_R   0.908390 0.408380 0.614690 -0.591769
O24   O     O_3   0.625997 0.241815 0.284909 -0.742163
O25   O     O_3   0.067152 0.216518 0.485699 -0.798216
O26   O     O_3   0.127818 0.740453 0.282980 -0.742790
O27   O     O_3   0.172672 0.968384 0.153622 -0.725015
O28   O     O_3   0.672291 0.471927 0.154085 -0.724639
O29   O     O_R   0.908390 0.591620 0.614690 -0.550839
O30   O     O_R   0.408370 0.908380 0.385360 -0.580979
O31   O     O_R   0.408370 0.091620 0.385360 -0.660511
O32   O     O_R   0.908370 0.408380 0.385360 -0.580751
O33   O     O_R   0.908370 0.591620 0.385360 -0.661619
O34   O     O_R   0.591620 0.091610 0.614640 -0.542892
Zn1   Zn    Zn3+2 0.500010 1.000000 0.653130 1.068307
Zn2   Zn    Zn3+2 0.000010 0.500000 0.653130 1.068843
Zn3   Zn    Zn3+2 0.499980 1.000000 0.346870 0.988267
Zn4   Zn    Zn3+2 0.999980 0.500000 0.346870 0.988000

loop_
_geom_bond_atom_site_label_1
_geom_bond_atom_site_label_2
_ccdc_geom_bond_type
C44   C49   A    
C33   C55   A    
O33   Zn4   S    
C42   H16   S    
C22   C29   A    
H8    O17   S    
H22   O22   S    
C36   C42   A    
C4    C8    A    
C26   O2    A    
H35   O10   S    
O2    Zn1   S    
C39   C41   A    
C28   O8    A    
C22   N1    A    
C23   O32   A    
C19   C21   A    
C3    C7    A    
C1    C59   S    
C32   H10   S    
C63   O13   S    
C11   C14   A    
C31   H9    S    
C6    C25   S    
C14   H3    S    
H5    O14   S    
H25   O25   S    
C29   N3    A    
C60   C62   A    
O8    Zn4   S    
O3    Zn2   S    
C61   C63   A    
C62   C64   A    
O7    Zn4   S    
C48   O21   S    
N1    Zn3   S    
C33   H11   S    
C12   O31   A    
O32   Zn4   S    
C22   H27   S    
C14   C16   A    
C43   C48   A    
C8    C52   A    
C40   C44   A    
C24   N2    A    
C25   O5    A    
C18   N3    A    
O12   Zn1   S    
C12   C58   S    
C27   O7    A    
C55   C60   A    
C4    C56   A    
C34   C60   S    
C5    C49   A    
C2    C6    A    
H36   O11   S    
C24   H28   S    
C32   C54   A    
C52   C54   A    
C54   C59   A    
C10   C21   A    
C29   O16   S    
C45   C58   A    
O31   Zn3   S    
O4    Zn2   S    
C36   H1    S    
H34   O9    S    
C47   C51   A    
C20   N1    A    
C34   O29   A    
C49   C55   A    
C3    C45   A    
H30   O28   S    
C7    C28   S    
N4    Zn2   S    
C5    C64   A    
C51   C53   A    
C37   C43   A    
C10   H33   S    
C35   C39   A    
C16   O14   S    
O1    Zn1   S    
C19   N4    A    
C9    C20   A    
C30   O17   S    
C27   O3    A    
H6    O15   S    
C41   C46   A    
C32   C37   A    
C6    C50   A    
C9    C11   A    
C9    H32   S    
C39   H31   S    
C21   N2    A    
H7    O16   S    
C37   H12   S    
C64   O22   S    
C13   C15   A    
N3    Zn1   S    
C43   H17   S    
C40   H14   S    
C46   O19   S    
C31   C53   A    
O23   Zn2   S    
C1    O30   A    
C2    C63   A    
C23   O23   A    
C23   C61   S    
C15   C17   A    
C26   O6    A    
H2    O13   S    
H21   O21   S    
C3    O25   S    
C50   C57   A    
C10   C13   A    
C11   O27   S    
C41   H15   S    
C4    O26   S    
C53   C58   A    
C57   C61   A    
H20   O20   S    
C46   C50   A    
C34   O33   A    
C33   C38   A    
C56   C59   A    
C38   H23   S    
C35   C57   A    
O6    Zn3   S    
C25   O34   A    
C7    C51   A    
C62   O11   S    
H24   O24   S    
O30   Zn3   S    
C38   C40   A    
C47   O20   S    
C28   O4    A    
C15   H4    S    
C44   O18   S    
C17   C19   A    
C13   O28   S    
C35   H13   S    
C18   C20   A    
C42   C47   A    
C24   C30   A    
O34   Zn1   S    
C17   O15   S    
C5    C26   S    
H26   O26   S    
C45   O9    S    
C48   C52   A    
O29   Zn2   S    
C16   C18   A    
C30   N4    A    
C8    C27   S    
C56   O10   S    
C31   C36   A    
O5    Zn3   S    
N2    Zn4   S    
H19   O19   S    
H29   O27   S    
H18   O18   S    
C1    O1    A    
C12   O12   A    
C2    O24   S    
