data_mof_unit_31112.cif
_audit_creation_date              2012-12-11T15:55:07-0500
_audit_creation_method            fapswitch 2.2
_symmetry_space_group_name_H-M    P1
_symmetry_Int_Tables_number       1
_space_group_crystal_system       triclinic
_cell_length_a                    17.607996
_cell_length_b                    24.274146
_cell_length_c                    15.170958
_cell_angle_alpha                 90.000771
_cell_angle_beta                  126.296171
_cell_angle_gamma                 89.999085
_cell_volume                      5226.18298273

loop_
_atom_site_label
_atom_site_type_symbol
_atom_type_description
_atom_site_fract_x
_atom_site_fract_y
_atom_site_fract_z
_atom_type_partial_charge
C1    C     C_R   0.902597 0.874357 0.090422 -0.132812
C2    C     C_R   0.902653 0.125945 0.090255 -0.133701
C3    C     C_R   0.402645 0.374073 0.090258 -0.133724
C4    C     C_R   0.402583 0.625623 0.090424 -0.132825
C5    C     C_R   0.058507 0.848642 0.907709 -0.146747
C6    C     C_R   0.058482 0.151374 0.907793 -0.147519
C7    C     C_R   0.558458 0.348617 0.907793 -0.147527
C8    C     C_R   0.558503 0.651358 0.907709 -0.146748
C9    C     C_R   0.149223 0.152388 0.090483 -0.151138
C10   C     C_R   0.148842 0.847480 0.090328 -0.151911
C11   C     C_R   0.648840 0.652520 0.090328 -0.151916
C12   C     C_R   0.649197 0.347604 0.090480 -0.151146
C13   C     C_R   0.324037 0.999363 0.273752 -0.008240
C14   C     C_R   0.824034 0.500629 0.273737 -0.008254
C15   C     C_R   0.945524 0.001003 0.640560 0.019264
C16   C     C_R   0.445763 0.498987 0.640698 0.019296
C17   C     C_R   0.119001 0.816693 0.998460 -0.007694
C18   C     C_R   0.119212 0.183224 0.998600 -0.007070
C19   C     C_R   0.619169 0.316762 0.998598 -0.007073
C20   C     C_R   0.618997 0.683307 0.998460 -0.007693
C21   C     C_3   0.959120 0.059461 0.416552 -0.463777
C22   C     C_3   0.917425 0.958728 0.379702 -0.446298
C23   C     C_3   0.417430 0.541094 0.379646 -0.446183
C24   C     C_3   0.459822 0.440457 0.417100 -0.463986
C25   C     C_3   0.936529 0.060119 0.499270 -0.076032
C26   C     C_3   0.898446 0.956011 0.466275 -0.080433
C27   C     C_3   0.398558 0.543886 0.466304 -0.080552
C28   C     C_3   0.437054 0.439825 0.499652 -0.076052
C29   C     C_3   0.086015 0.987575 0.528007 -0.427770
C30   C     C_3   0.586211 0.512649 0.528123 -0.427838
C31   C     C_3   0.996283 0.001669 0.414285 0.371889
C32   C     C_3   0.496577 0.498323 0.414483 0.371951
C33   C     C_3   0.957392 0.001828 0.553615 0.267768
C34   C     C_3   0.457672 0.498158 0.553791 0.267829
C35   C     C_R   0.810195 0.124852 0.906681 -0.140228
C36   C     C_R   0.810125 0.875276 0.906784 -0.141049
C37   C     C_R   0.310118 0.624714 0.906786 -0.141039
C38   C     C_R   0.310193 0.375153 0.906683 -0.140212
C39   C     C_3   0.063979 0.989080 0.611170 -0.450458
C40   C     C_3   0.564206 0.511051 0.611314 -0.450516
C41   C     C_3   0.653434 0.182605 0.891571 -0.405890
C42   C     C_3   0.653212 0.817729 0.891981 -0.405623
C43   C     C_3   0.153202 0.682261 0.891985 -0.405618
C44   C     C_3   0.153443 0.317391 0.891576 -0.405905
C45   C     C_3   0.099109 0.731765 0.892638 -0.407242
C46   C     C_3   0.099441 0.267856 0.892211 -0.406436
C47   C     C_3   0.599414 0.232130 0.892211 -0.406444
C48   C     C_3   0.599112 0.768232 0.892639 -0.407245
C49   C     C_3   0.304589 0.737451 0.002989 -0.397345
C50   C     C_3   0.304940 0.262339 0.003381 -0.396896
C51   C     C_3   0.804916 0.237669 0.003376 -0.396938
C52   C     C_3   0.804593 0.762531 0.002985 -0.397373
C53   C     C_3   0.751971 0.178958 0.096412 -0.397908
C54   C     C_3   0.752270 0.821022 0.096871 -0.399037
C55   C     C_3   0.252261 0.678970 0.096875 -0.399050
C56   C     C_3   0.251979 0.321038 0.096418 -0.397902
C57   C     C_3   0.756336 0.182995 0.997125 0.401212
C58   C     C_3   0.756252 0.817202 0.997304 0.403180
C59   C     C_3   0.256242 0.682784 0.997307 0.403178
C60   C     C_3   0.256345 0.317009 0.997130 0.401197
C61   C     C_3   0.165175 0.766616 0.997947 0.407608
C62   C     C_3   0.165335 0.233253 0.997960 0.404609
C63   C     C_3   0.665302 0.266737 0.997956 0.404623
C64   C     C_3   0.665176 0.733379 0.997946 0.407610
C65   C     C_3   0.250837 0.786506 0.002592 -0.396500
C66   C     C_3   0.251349 0.213322 0.003379 -0.396395
C67   C     C_3   0.751306 0.286678 0.003365 -0.396360
C68   C     C_3   0.750832 0.713481 0.002584 -0.396492
C69   C     C_3   0.199494 0.729123 0.098072 -0.407520
C70   C     C_3   0.199050 0.270978 0.097595 -0.404126
C71   C     C_3   0.699033 0.229013 0.097596 -0.404150
C72   C     C_3   0.699505 0.770872 0.098074 -0.407525
C73   C     C_3   0.473902 0.944482 0.368288 -0.406219
C74   C     C_3   0.478368 0.047286 0.354844 -0.408985
C75   C     C_3   0.978356 0.452679 0.354872 -0.408953
C76   C     C_3   0.973914 0.555488 0.368242 -0.406246
C77   C     C_R   0.744451 0.953949 0.696334 -0.145530
C78   C     C_R   0.743489 0.045707 0.696167 -0.141978
C79   C     C_R   0.243489 0.454289 0.696175 -0.141991
C80   C     C_R   0.244443 0.546047 0.696333 -0.145534
C81   C     C_3   0.575372 0.943353 0.472443 -0.408409
C82   C     C_3   0.583252 0.045911 0.453277 -0.389644
C83   C     C_3   0.083229 0.454035 0.453335 -0.389684
C84   C     C_3   0.075390 0.556612 0.472384 -0.408342
C85   C     C_3   0.432714 0.005208 0.470465 -0.389854
C86   C     C_3   0.932702 0.494815 0.470454 -0.389813
C87   C     C_3   0.425259 0.999028 0.363648 0.402546
C88   C     C_3   0.925256 0.500958 0.363637 0.402551
C89   C     C_3   0.600245 0.999332 0.533449 0.396553
C90   C     C_3   0.100238 0.500654 0.533450 0.396601
C91   C     C_3   0.535307 0.008279 0.569280 -0.405097
C92   C     C_3   0.035292 0.491758 0.569282 -0.405129
C93   C     C_R   0.026710 0.046701 0.289587 -0.156525
C94   C     C_R   0.026689 0.954357 0.290941 -0.155000
C95   C     C_R   0.526832 0.545641 0.291039 -0.155038
C96   C     C_R   0.526864 0.453297 0.289681 -0.156660
C97   C     C_R   0.813441 0.861395 0.997857 -0.010040
C98   C     C_R   0.813532 0.138845 0.997682 -0.009663
C99   C     C_R   0.313526 0.361167 0.997685 -0.009662
C100  C     C_R   0.313426 0.638586 0.997859 -0.010042
C101  C     C_R   0.696623 0.999667 0.634058 0.004485
C102  C     C_R   0.196616 0.500325 0.634062 0.004482
C103  C     C_R   0.019054 0.000990 0.336881 0.031222
C104  C     C_R   0.519315 0.499006 0.337061 0.031278
C105  C     C_R   0.267325 0.953475 0.247069 -0.138847
C106  C     C_R   0.268100 0.045861 0.247140 -0.141010
C107  C     C_R   0.768094 0.454135 0.247128 -0.141011
C108  C     C_R   0.767326 0.546520 0.247061 -0.138844
C109  C     C_R   0.956427 0.046679 0.700572 -0.139321
C110  C     C_R   0.956227 0.954390 0.699087 -0.144025
C111  C     C_R   0.456355 0.545609 0.699151 -0.144049
C112  C     C_R   0.456554 0.453313 0.700647 -0.139317
H1    H     H_    0.932636 0.863720 0.173829 0.084061
H2    H     H_    0.932674 0.137082 0.173392 0.084455
H3    H     H_    0.432657 0.362958 0.173404 0.084465
H4    H     H_    0.432612 0.636237 0.173839 0.084075
H5    H     H_    0.896375 0.070576 0.332847 0.163275
H6    H     H_    0.852820 0.970020 0.297559 0.166519
H7    H     H_    0.352865 0.529580 0.297646 0.166609
H8    H     H_    0.397237 0.429129 0.333441 0.163182
H9    H     H_    0.984759 0.090945 0.562601 0.094035
H10   H     H_    0.922264 0.914926 0.506251 0.093701
H11   H     H_    0.422311 0.585009 0.506130 0.093792
H12   H     H_    0.485315 0.409054 0.563102 0.094006
H13   H     H_    0.142952 0.017675 0.551847 0.160650
H14   H     H_    0.111989 0.945847 0.527370 0.157427
H15   H     H_    0.611824 0.554457 0.527263 0.157419
H16   H     H_    0.643390 0.482713 0.552093 0.160658
H17   H     H_    0.108798 0.020954 0.674161 0.169948
H18   H     H_    0.083893 0.948653 0.654182 0.165687
H19   H     H_    0.583982 0.551485 0.654288 0.165650
H20   H     H_    0.609133 0.479206 0.674316 0.169986
H21   H     H_    0.651384 0.185715 0.817177 0.144273
H22   H     H_    0.650917 0.814684 0.817417 0.143822
H23   H     H_    0.150905 0.685298 0.817420 0.143819
H24   H     H_    0.151392 0.314290 0.817180 0.144271
H25   H     H_    0.617717 0.143547 0.885961 0.153682
H26   H     H_    0.617697 0.856815 0.886691 0.153266
H27   H     H_    0.117681 0.643179 0.886700 0.153266
H28   H     H_    0.117711 0.356442 0.885970 0.153684
H29   H     H_    0.536989 0.217649 0.887182 0.152113
H30   H     H_    0.537052 0.782780 0.888320 0.151908
H31   H     H_    0.037042 0.717225 0.888311 0.151904
H32   H     H_    0.037004 0.282325 0.887170 0.152106
H33   H     H_    0.072554 0.756437 0.817975 0.143980
H34   H     H_    0.073488 0.243028 0.817887 0.145111
H35   H     H_    0.573442 0.256957 0.817882 0.145114
H36   H     H_    0.572546 0.743559 0.817972 0.143977
H37   H     H_    0.307860 0.740793 0.932059 0.153281
H38   H     H_    0.308284 0.258827 0.932523 0.153690
H39   H     H_    0.808264 0.241184 0.932521 0.153689
H40   H     H_    0.807866 0.759186 0.932058 0.153281
H41   H     H_    0.754560 0.132612 0.821757 0.088243
H42   H     H_    0.754402 0.867542 0.821859 0.088333
H43   H     H_    0.254395 0.632449 0.821862 0.088332
H44   H     H_    0.254560 0.367389 0.821760 0.088237
H45   H     H_    0.227280 0.813141 0.930793 0.154666
H46   H     H_    0.228210 0.186418 0.932045 0.154936
H47   H     H_    0.728153 0.313580 0.932023 0.154935
H48   H     H_    0.727268 0.686848 0.930781 0.154668
H49   H     H_    0.823363 0.178333 0.175260 0.144530
H50   H     H_    0.823786 0.821591 0.175546 0.142724
H51   H     H_    0.323778 0.678403 0.175548 0.142714
H52   H     H_    0.323372 0.321663 0.175264 0.144532
H53   H     H_    0.715858 0.140227 0.091576 0.156811
H54   H     H_    0.716217 0.859707 0.092403 0.156286
H55   H     H_    0.216209 0.640287 0.092413 0.156284
H56   H     H_    0.215861 0.359766 0.091587 0.156824
H57   H     H_    0.637723 0.215007 0.095332 0.154430
H58   H     H_    0.638505 0.784782 0.096525 0.153162
H59   H     H_    0.138490 0.715216 0.096515 0.153154
H60   H     H_    0.137731 0.284979 0.095322 0.154429
H61   H     H_    0.248509 0.751737 0.175929 0.144742
H62   H     H_    0.247759 0.248531 0.175749 0.146012
H63   H     H_    0.747742 0.251463 0.175747 0.146008
H64   H     H_    0.748522 0.748257 0.175929 0.144748
H65   H     H_    0.378377 0.738860 0.078619 0.152740
H66   H     H_    0.378711 0.261069 0.079063 0.153329
H67   H     H_    0.878684 0.238946 0.079062 0.153327
H68   H     H_    0.878380 0.761119 0.078618 0.152736
H69   H     H_    0.298945 0.811629 0.077536 0.153417
H70   H     H_    0.299431 0.188472 0.078744 0.153760
H71   H     H_    0.799381 0.311535 0.078723 0.153755
H72   H     H_    0.798938 0.688355 0.077523 0.153415
H73   H     H_    0.437901 0.907654 0.370615 0.142036
H74   H     H_    0.448452 0.087643 0.354535 0.146258
H75   H     H_    0.948409 0.412332 0.354546 0.146225
H76   H     H_    0.937929 0.592328 0.370561 0.142045
H77   H     H_    0.473406 0.940876 0.294820 0.160266
H78   H     H_    0.471535 0.044142 0.277257 0.157519
H79   H     H_    0.971558 0.455811 0.277305 0.157513
H80   H     H_    0.973405 0.559074 0.294763 0.160241
H81   H     H_    0.624795 0.934093 0.451710 0.166947
H82   H     H_    0.627652 0.038811 0.424499 0.177942
H83   H     H_    0.127671 0.461070 0.424592 0.177861
H84   H     H_    0.124808 0.565829 0.451627 0.166972
H85   H     H_    0.732693 0.911428 0.670416 0.083459
H86   H     H_    0.729406 0.088197 0.670021 0.082587
H87   H     H_    0.229419 0.411797 0.670034 0.082592
H88   H     H_    0.232677 0.588567 0.670410 0.083455
H89   H     H_    0.580963 0.909322 0.525142 0.145246
H90   H     H_    0.602459 0.086859 0.493736 0.142246
H91   H     H_    0.102370 0.413100 0.493837 0.142219
H92   H     H_    0.081012 0.590673 0.525051 0.145211
H93   H     H_    0.398376 0.969520 0.480031 0.155193
H94   H     H_    0.395958 0.043129 0.468125 0.151150
H95   H     H_    0.895945 0.456901 0.468140 0.151153
H96   H     H_    0.898355 0.530514 0.479984 0.155176
H97   H     H_    0.548873 0.976459 0.630010 0.154835
H98   H     H_    0.549250 0.049260 0.609265 0.153274
H99   H     H_    0.049226 0.450793 0.609323 0.153275
H100  H     H_    0.048856 0.523608 0.629967 0.154831
H101  H     H_    0.037795 0.089027 0.316020 0.086092
H102  H     H_    0.036570 0.912376 0.319360 0.082164
H103  H     H_    0.536701 0.587627 0.319442 0.082150
H104  H     H_    0.537944 0.410965 0.316084 0.086151
H105  H     H_    0.287103 0.910671 0.261324 0.089006
H106  H     H_    0.290172 0.088382 0.263545 0.089013
H107  H     H_    0.790158 0.411613 0.263522 0.089014
H108  H     H_    0.787112 0.589324 0.261321 0.089004
H109  H     H_    0.946980 0.089667 0.678069 0.087238
H110  H     H_    0.948754 0.911749 0.674672 0.081737
H111  H     H_    0.448906 0.588247 0.674729 0.081747
H112  H     H_    0.447132 0.410321 0.678167 0.087266
H113  H     H_    0.017487 0.836985 0.822566 0.084429
H114  H     H_    0.017252 0.163133 0.822706 0.085181
H115  H     H_    0.517222 0.336857 0.822707 0.085181
H116  H     H_    0.517482 0.663015 0.822567 0.084426
H117  H     H_    0.191872 0.165873 0.174638 0.084347
H118  H     H_    0.190917 0.833793 0.174340 0.083245
H119  H     H_    0.690919 0.666206 0.174341 0.083251
H120  H     H_    0.691841 0.334120 0.174634 0.084347
H121  H     H_    0.013842 0.091443 0.442228 0.137789
H122  H     H_    0.938216 0.916818 0.371714 0.134794
H123  H     H_    0.437868 0.583031 0.371252 0.134789
H124  H     H_    0.514845 0.408627 0.443117 0.137908
N1    N     N_R   0.950530 0.896220 0.057200 -0.035494
N2    N     N_R   0.950530 0.103780 0.057200 -0.035383
N3    N     N_R   0.450530 0.396220 0.057200 -0.035383
N4    N     N_R   0.450530 0.603780 0.057200 -0.035501
N5    N     N_R   0.893330 0.103780 0.942800 -0.035913
N6    N     N_R   0.893330 0.896220 0.942800 -0.035929
N7    N     N_R   0.393330 0.603780 0.942800 -0.035934
N8    N     N_R   0.393330 0.396220 0.942800 -0.035913
N9    N     N_R   0.818150 0.971400 0.792440 -0.031428
N10   N     N_R   0.818150 0.028600 0.792440 -0.031526
N11   N     N_R   0.318150 0.471400 0.792440 -0.031528
N12   N     N_R   0.318150 0.528600 0.792440 -0.031432
N13   N     N_R   0.025710 0.028600 0.207560 -0.032267
N14   N     N_R   0.025710 0.971400 0.207560 -0.032103
N15   N     N_R   0.525710 0.528600 0.207560 -0.032088
N16   N     N_R   0.525710 0.471400 0.207560 -0.032249
N17   N     N_R   0.181850 0.971400 0.207560 -0.037954
N18   N     N_R   0.181850 0.028600 0.207560 -0.037673
N19   N     N_R   0.681850 0.471400 0.207560 -0.037662
N20   N     N_R   0.681850 0.528600 0.207560 -0.037944
N21   N     N_R   0.974290 0.028600 0.792440 -0.035955
N22   N     N_R   0.974290 0.971400 0.792440 -0.034489
N23   N     N_R   0.474290 0.528600 0.792440 -0.034480
N24   N     N_R   0.474290 0.471400 0.792440 -0.035955
N25   N     N_R   0.049470 0.896220 0.942800 -0.034076
N26   N     N_R   0.049470 0.103780 0.942800 -0.034498
N27   N     N_R   0.549470 0.396220 0.942800 -0.034498
N28   N     N_R   0.549470 0.603780 0.942800 -0.034074
N29   N     N_R   0.106670 0.103780 0.057200 -0.032858
N30   N     N_R   0.106670 0.896220 0.057200 -0.033005
N31   N     N_R   0.606670 0.603780 0.057200 -0.033005
N32   N     N_R   0.606670 0.396220 0.057200 -0.032859
Ni1   Ni    Ni4+2 0.065600 0.934400 0.131190 0.204103
Ni2   Ni    Ni4+2 0.065600 0.065600 0.131190 0.204576
Ni3   Ni    Ni4+2 0.565600 0.434400 0.131190 0.204576
Ni4   Ni    Ni4+2 0.565600 0.565600 0.131190 0.204111
Ni5   Ni    Ni4+2 0.934400 0.065600 0.868810 0.207855
Ni6   Ni    Ni4+2 0.934400 0.934400 0.868810 0.206363
Ni7   Ni    Ni4+2 0.434400 0.565600 0.868810 0.206371
Ni8   Ni    Ni4+2 0.434400 0.434400 0.868810 0.207863
C113  C     C_1   0.839525 0.079972 0.448663 0.040329
N33   N     N_1   0.763770 0.095777 0.409175 -0.107669
C114  C     C_1   0.796463 0.959071 0.414304 0.045000
N34   N     N_1   0.716308 0.961382 0.372470 -0.113326
C115  C     C_1   0.296607 0.540759 0.414463 0.045017
N35   N     N_1   0.216475 0.538394 0.372736 -0.113333
C116  C     C_1   0.340068 0.419897 0.448923 0.040380
N36   N     N_1   0.264327 0.404037 0.409347 -0.107605

loop_
_geom_bond_atom_site_label_1
_geom_bond_atom_site_label_2
_ccdc_geom_bond_type
C44   H24   S    
C28   C116  S    
C30   C32   S    
C37   N7    A    
C55   C59   S    
N22   Ni6   S    
N26   Ni5   S    
C95   H103  S    
C56   H52   S    
C15   C109  A    
C77   C101  A    
C52   H68   S    
C38   H44   S    
C91   H97   S    
C60   C99   S    
C75   C83   S    
C76   C84   S    
N26   N29   A    
C41   H21   S    
C85   C91   S    
C36   H42   S    
N15   N16   A    
C106  H106  S    
N19   Ni3   S    
N4    Ni4   S    
C96   H104  S    
C21   C31   S    
N2    N5    A    
N13   N14   A    
C33   C39   S    
C82   C89   S    
C1    H1    S    
N1    N6    A    
C46   C62   S    
C34   C40   S    
C64   C68   S    
C50   H66   S    
C54   H54   S    
C110  N22   A    
C29   H13   S    
C23   H7    S    
N17   N18   A    
C86   C88   S    
C36   N6    A    
C48   C64   S    
C5    C17   A    
C10   C17   A    
C80   H88   S    
C48   H36   S    
C10   H118  S    
C62   C70   S    
C9    H117  S    
N21   N22   A    
C69   H59   S    
N5    Ni5   S    
C49   C65   S    
N2    Ni2   S    
C70   H60   S    
C90   C102  S    
C80   N12   A    
C21   H5    S    
C16   C34   S    
C22   H122  S    
C38   N8    A    
C30   H16   S    
C21   H121  S    
C105  N17   A    
N17   Ni1   S    
C114  N34   T    
C71   H57   S    
C79   C102  A    
C7    N27   A    
N3    N8    A    
C51   C57   S    
C55   H55   S    
C74   C87   S    
C8    N28   A    
C35   C98   A    
C81   H89   S    
C76   C88   S    
C41   H25   S    
C76   H76   S    
C43   C59   S    
C49   C59   S    
C81   C89   S    
C84   H92   S    
C14   C108  A    
C14   C88   S    
C66   H70   S    
C28   C34   S    
C106  N18   A    
C44   H28   S    
C74   H78   S    
C113  N33   T    
C108  N20   A    
C78   C101  A    
C5    N25   A    
C59   C100  S    
C112  H112  S    
C15   C110  A    
C42   C58   S    
C84   H84   S    
C58   C97   S    
C84   C90   S    
C37   H43   S    
C74   C82   S    
C91   H98   S    
C51   H67   S    
C94   N14   A    
C111  N23   A    
C26   C114  S    
C93   N13   A    
C85   H94   S    
C12   H120  S    
C49   H65   S    
C23   C27   S    
C85   C87   S    
C27   C34   S    
C4    N4    A    
N27   N32   A    
C6    C18   A    
C47   H35   S    
C11   C20   A    
C94   H102  S    
N28   Ni7   S    
C24   H8    S    
C22   C31   S    
C62   C66   S    
C93   H101  S    
C13   C106  A    
N16   Ni3   S    
C35   H41   S    
C30   C40   S    
C79   H87   S    
N6    Ni6   S    
N12   Ni7   S    
C25   C113  S    
C19   C63   S    
C82   H90   S    
C27   H11   S    
C18   C62   S    
C65   H69   S    
N25   Ni6   S    
C44   C46   S    
C1    N1    A    
C115  N35   T    
C92   H99   S    
C73   C87   S    
C9    N29   A    
N18   Ni2   S    
C69   H61   S    
C75   H75   S    
C73   H73   S    
C56   C60   S    
C80   C102  A    
N9    Ni6   S    
C79   N11   A    
C20   C64   S    
C42   C48   S    
C75   H79   S    
N29   Ni2   S    
C24   C32   S    
C63   C67   S    
C86   H96   S    
C76   H80   S    
C3    C99   A    
C43   C45   S    
N31   Ni4   S    
C50   H38   S    
C26   C33   S    
C90   C92   S    
N32   Ni3   S    
C1    C97   A    
C52   H40   S    
C77   H85   S    
C13   C87   S    
C32   C104  S    
C41   C47   S    
C107  N19   A    
C6    N26   A    
C51   C67   S    
C54   H50   S    
C67   H47   S    
N23   Ni7   S    
C70   H62   S    
C36   C97   A    
C52   C58   S    
C73   C81   S    
C107  H107  S    
C13   C105  A    
C14   C107  A    
C8    C20   A    
C40   H19   S    
C63   C71   S    
C94   C103  A    
C35   N5    A    
C56   C70   S    
C23   H123  S    
C96   C104  A    
C116  N36   T    
C45   H33   S    
C26   H10   S    
C92   H100  S    
C89   C91   S    
C96   N16   A    
C17   C61   S    
C95   N15   A    
N19   N20   A    
C53   C71   S    
C111  H111  S    
N7    Ni7   S    
C66   H46   S    
C83   H91   S    
C109  H109  S    
C95   C104  A    
C16   C112  A    
N8    Ni8   S    
C54   C58   S    
C61   C69   S    
C29   C39   S    
C22   H6    S    
C83   C90   S    
C21   C25   S    
C30   H15   S    
C68   H72   S    
C11   H119  S    
C24   H124  S    
C10   N30   A    
C89   C101  S    
N21   Ni5   S    
C12   N32   A    
C4    H4    S    
N10   Ni5   S    
C2    N2    A    
C24   C28   S    
C81   H81   S    
N9    N10   A    
C38   C99   A    
N20   Ni4   S    
N30   Ni1   S    
C52   C68   S    
N15   Ni4   S    
C27   C115  S    
C53   H53   S    
C46   H32   S    
N11   N12   A    
C50   C66   S    
N13   Ni2   S    
C8    H116  S    
C39   H18   S    
C49   H37   S    
C43   H27   S    
C43   H23   S    
C65   H45   S    
C39   H17   S    
C47   H29   S    
C86   H95   S    
C7    C19   A    
C31   C103  S    
C109  N21   A    
N3    Ni3   S    
C42   H22   S    
C50   C60   S    
C23   C32   S    
C55   C69   S    
C4    C100  A    
C41   C57   S    
N25   N30   A    
C29   C31   S    
C3    H3    S    
C108  H108  S    
C112  N24   A    
C105  H105  S    
C47   C63   S    
C2    H2    S    
C53   H49   S    
C5    H113  S    
C46   H34   S    
C7    H115  S    
C44   C60   S    
N28   N31   A    
C57   C98   S    
C6    H114  S    
C12   C19   A    
C45   C61   S    
C78   N10   A    
C68   H48   S    
C53   C57   S    
C77   N9    A    
C85   H93   S    
N4    N7    A    
C75   C88   S    
C83   H83   S    
C72   H64   S    
C73   H77   S    
C82   H82   S    
C64   C72   S    
C25   C33   S    
C86   C92   S    
C55   H51   S    
N24   Ni8   S    
C61   C65   S    
C9    C18   A    
C48   H30   S    
C54   C72   S    
C51   H39   S    
C2    C98   A    
C40   H20   S    
N27   Ni8   S    
C22   C26   S    
C3    N3    A    
C56   H56   S    
C45   H31   S    
C11   N31   A    
C67   H71   S    
N1    Ni1   S    
C42   H26   S    
C78   H86   S    
N14   Ni1   S    
C28   H12   S    
N11   Ni8   S    
C29   H14   S    
C25   H9    S    
C15   C33   S    
C37   C100  A    
C71   H63   S    
N23   N24   A    
C16   C111  A    
C72   H58   S    
C93   C103  A    
C74   H74   S    
C110  H110  S    
