data_mof_unit_37256.cif
_audit_creation_date              2012-12-11T14:41:01-0500
_audit_creation_method            fapswitch 2.2
_symmetry_space_group_name_H-M    P1
_symmetry_Int_Tables_number       1
_space_group_crystal_system       triclinic
_cell_length_a                    6.955847
_cell_length_b                    17.043192
_cell_length_c                    19.702508
_cell_angle_alpha                 90.001862
_cell_angle_beta                  90.032098
_cell_angle_gamma                 90.07087
_cell_volume                      2335.72693648

loop_
_atom_site_label
_atom_site_type_symbol
_atom_type_description
_atom_site_fract_x
_atom_site_fract_y
_atom_site_fract_z
_atom_type_partial_charge
O1    O     O_R   0.377350 0.828520 0.186660 -0.519335
O2    O     O_R   0.622650 0.171480 0.813340 -0.519996
O3    O     O_R   0.122650 0.171480 0.686660 -0.520630
O4    O     O_R   0.877350 0.828520 0.313340 -0.519434
O5    O     O_R   0.877350 0.671480 0.313340 -0.519729
O6    O     O_R   0.122650 0.328520 0.686660 -0.519247
O7    O     O_R   0.622650 0.328520 0.813340 -0.520427
O8    O     O_R   0.377350 0.671480 0.186660 -0.519014
O9    O     O_R   0.707090 0.671930 0.178410 -0.529085
O10   O     O_R   0.292910 0.328070 0.821590 -0.524745
O11   O     O_R   0.792910 0.328070 0.678410 -0.530502
O12   O     O_R   0.207090 0.671930 0.321590 -0.529315
O13   O     O_R   0.207090 0.828070 0.321590 -0.529399
O14   O     O_R   0.792910 0.171930 0.678410 -0.526470
O15   O     O_R   0.292910 0.171930 0.821590 -0.526265
O16   O     O_R   0.707090 0.828070 0.178410 -0.529348
C1    C     C_R   0.540568 0.642502 0.163502 0.819154
C2    C     C_R   0.459477 0.357155 0.836886 0.820310
C3    C     C_R   0.959362 0.357481 0.663375 0.819422
C4    C     C_R   0.040645 0.642423 0.336428 0.818367
C5    C     C_R   0.040840 0.857616 0.336354 0.819532
C6    C     C_R   0.959226 0.142821 0.663060 0.821469
C7    C     C_R   0.459281 0.142837 0.836948 0.822955
C8    C     C_R   0.540784 0.857611 0.163647 0.819437
O17   O     O_3   0.543850 0.750000 0.294270 -0.372300
O18   O     O_3   0.456150 0.250000 0.705730 -0.370612
O19   O     O_3   0.956150 0.250000 0.794270 -0.366299
O20   O     O_3   0.043850 0.750000 0.205730 -0.371591
V1    V     V_3+5 0.818700 0.750000 0.241790 1.747583
V2    V     V_3+5 0.181300 0.250000 0.758210 1.753742
V3    V     V_3+5 0.681300 0.250000 0.741790 1.745163
V4    V     V_3+5 0.318700 0.750000 0.258210 1.747699
C9    C     C_R   0.956212 0.422998 0.611345 -0.188099
C10   C     C_R   0.043587 0.576654 0.388079 -0.191868
C11   C     C_R   0.543401 0.576788 0.111816 -0.193477
C12   C     C_R   0.456425 0.422591 0.888878 -0.193252
C13   C     C_R   0.455762 0.077588 0.889218 -0.192105
C14   C     C_R   0.543926 0.923402 0.112074 -0.193432
C15   C     C_R   0.044080 0.923384 0.387954 -0.193552
C16   C     C_R   0.955636 0.077586 0.610768 -0.192033
C17   C     C_R   0.209522 0.467796 0.447464 0.149908
C18   C     C_R   0.789740 0.531471 0.551488 0.149181
C19   C     C_R   0.292020 0.532404 0.947458 0.126913
C20   C     C_R   0.709052 0.467793 0.052701 0.147942
C21   C     C_R   0.709374 0.032618 0.052953 0.148326
C22   C     C_R   0.291223 0.967852 0.948228 0.123608
C23   C     C_R   0.791320 0.967782 0.551701 0.124074
C24   C     C_R   0.209400 0.032630 0.447150 0.148511
C25   C     C_R   0.189124 0.517299 0.389628 0.391239
C26   C     C_R   0.809949 0.482118 0.609378 0.411060
C27   C     C_R   0.312703 0.482691 0.889700 0.366662
C28   C     C_R   0.688932 0.517445 0.110394 0.393485
C29   C     C_R   0.689600 0.982827 0.110607 0.393320
C30   C     C_R   0.311437 0.017523 0.890444 0.389234
C31   C     C_R   0.811406 0.017480 0.609486 0.390271
C32   C     C_R   0.189730 0.982821 0.389490 0.393543
C33   C     C_R   0.912447 0.579156 0.441717 -0.152481
C34   C     C_R   0.087553 0.420414 0.557666 -0.155032
C35   C     C_R   0.584915 0.419082 0.943359 -0.232920
C36   C     C_R   0.412904 0.579541 0.057905 -0.158021
C37   C     C_R   0.413096 0.920671 0.058327 -0.156547
C38   C     C_R   0.584633 0.081236 0.943627 -0.232720
C39   C     C_R   0.084507 0.081256 0.556408 -0.232898
C40   C     C_R   0.913255 0.920634 0.441649 -0.155810
C41   C     C_R   0.924284 0.527408 0.497907 0.003889
C42   C     C_R   0.075453 0.471971 0.501275 0.005582
C43   C     C_R   0.574388 0.471578 0.999042 0.006627
C44   C     C_R   0.424746 0.527727 0.001718 0.029320
C45   C     C_R   0.424577 0.972565 0.002229 0.027821
C46   C     C_R   0.574333 0.028792 0.999390 0.006220
C47   C     C_R   0.074320 0.028795 0.500648 0.006130
C48   C     C_R   0.924660 0.972530 0.497752 0.027827
H1    H     H_    0.194087 0.374579 0.559578 0.171325
H2    H     H_    0.806370 0.625166 0.439947 0.170339
H3    H     H_    0.307426 0.625772 0.059531 0.172971
H4    H     H_    0.688803 0.372185 0.942398 0.181746
H5    H     H_    0.688819 0.128123 0.942511 0.182766
H6    H     H_    0.307608 0.874351 0.060018 0.172584
H7    H     H_    0.807802 0.874302 0.439907 0.172217
H8    H     H_    0.188628 0.128166 0.557562 0.182368
S1    S     S_3+6 0.644070 0.494844 0.676743 0.092961
O21   O     O_2   0.458100 0.458432 0.654250 -0.318884
O22   O     O_2   0.710550 0.456992 0.740889 -0.317674
O23   O     O_3   0.610359 0.590573 0.693712 -0.430944
H9    H     H_    0.502156 0.591933 0.726365 0.414037
S2    S     S_3+6 0.353071 0.504572 0.321591 0.062649
O24   O     O_2   0.283882 0.542179 0.257617 -0.310439
O25   O     O_2   0.539496 0.541346 0.343145 -0.314802
O26   O     O_3   0.387263 0.408860 0.304692 -0.461863
H10   H     H_    0.494231 0.407612 0.271529 0.407693
S3    S     S_3+6 0.853333 0.504989 0.178397 0.064377
O27   O     O_2   0.038841 0.542652 0.157067 -0.313942
O28   O     O_2   0.783176 0.541997 0.242477 -0.310600
O29   O     O_3   0.889867 0.409334 0.194927 -0.460429
H11   H     H_    0.996609 0.408353 0.228227 0.408015
S4    S     S_3+6 0.149584 0.494503 0.821171 0.082709
O30   O     O_2   0.110827 0.579675 0.806844 -0.269750
O31   O     O_2   0.223456 0.458920 0.757025 -0.288506
O32   O     O_3   0.945691 0.448937 0.844042 -0.485481
H12   H     H_    0.860517 0.490987 0.861130 0.376533
S5    S     S_3+6 0.146476 0.005471 0.822583 0.107890
O33   O     O_2   0.216869 0.041989 0.758387 -0.295986
O34   O     O_2   0.109864 0.920176 0.807900 -0.250377
O35   O     O_3   0.942191 0.049614 0.846793 -0.490248
H13   H     H_    0.856391 0.006639 0.861813 0.380238
S6    S     S_3+6 0.854461 0.995174 0.178501 0.063514
O36   O     O_2   0.784262 0.958115 0.242586 -0.310856
O37   O     O_2   0.039540 0.957457 0.157024 -0.314514
O38   O     O_3   0.891889 0.090791 0.195111 -0.460582
H14   H     H_    0.999738 0.091708 0.227986 0.408006
S7    S     S_3+6 0.354686 0.995185 0.321688 0.063649
O39   O     O_2   0.539840 0.957575 0.343294 -0.314169
O40   O     O_2   0.284734 0.958057 0.257570 -0.311136
O41   O     O_3   0.391888 0.090810 0.305069 -0.460706
H15   H     H_    0.498761 0.091731 0.271859 0.408023
S8    S     S_3+6 0.646410 0.005335 0.677259 0.108216
O42   O     O_2   0.610635 0.920002 0.692021 -0.250968
O43   O     O_2   0.716192 0.042085 0.741467 -0.295709
O44   O     O_3   0.441737 0.049076 0.652824 -0.490334
H16   H     H_    0.355971 0.005893 0.638189 0.380747
I1    I     I_    0.456012 0.391128 0.457583 -0.212191
I2    I     I_    0.542411 0.607756 0.540799 -0.183165
I3    I     I_    0.048303 0.610705 0.956997 -0.236161
I4    I     I_    0.957736 0.392500 0.041908 -0.217022
I5    I     I_    0.957892 0.108196 0.042076 -0.218232
I6    I     I_    0.047276 0.889361 0.958198 -0.227811
I7    I     I_    0.547641 0.889134 0.541675 -0.228428
I8    I     I_    0.457818 0.108261 0.458141 -0.221205

loop_
_geom_bond_atom_site_label_1
_geom_bond_atom_site_label_2
_ccdc_geom_bond_type
C9    C34   A    
O13   V4    S    
S7    O39   D    
O14   V3    S    
C12   C35   A    
O41   H15   S    
O5    C4    A    
O6    C3    A    
O11   C3    A    
S5    O33   D    
C16   C39   A    
O20   V1    S    
S2    O25   D    
C24   I8    S    
C31   S8    S    
S4    O32   S    
S8    O42   D    
C38   C46   A    
C17   I1    S    
C22   C45   A    
C38   H5    S    
C35   C43   A    
C30   S5    S    
C29   S6    S    
C34   C42   A    
C15   C32   A    
C21   I5    S    
C19   C44   A    
S4    O31   D    
C18   C41   A    
C8    C14   S    
C32   S7    S    
O4    V1    S    
O9    V1    S    
C27   S4    S    
C14   C37   A    
C4    C10   S    
C20   C28   A    
O17   V4    S    
O15   C7    A    
O11   V3    S    
O18   V3    S    
S5    O34   D    
O12   V4    S    
O19   V2    S    
C22   C30   A    
C45   C46   A    
C17   C25   A    
O35   H13   S    
S1    O22   D    
S1    O21   D    
O5    V1    S    
C39   H8    S    
O17   V1    S    
O7    V3    S    
C20   C43   A    
O19   V3    S    
C43   C44   A    
O8    V4    S    
O20   V4    S    
O23   H9    S    
C3    C9    S    
S3    O27   D    
S2    O24   D    
O16   V1    S    
C7    C13   S    
C34   H1    S    
C20   I4    S    
O1    V4    S    
C11   C36   A    
C33   H2    S    
O3    V2    S    
C15   C40   A    
S3    O28   D    
O10   V2    S    
O32   H12   S    
C5    C15   S    
C37   H6    S    
O7    C2    A    
C6    C16   S    
S4    O30   D    
O12   C4    A    
O13   C5    A    
S7    O40   D    
C12   C27   A    
C18   C26   A    
C13   C30   A    
O9    C1    A    
O6    V2    S    
C39   C47   A    
O18   V2    S    
S5    O35   S    
C40   H7    S    
C24   C47   A    
C19   I3    S    
O2    C7    A    
S1    O23   S    
C18   I2    S    
O15   V2    S    
C23   C31   A    
C37   C45   A    
C24   C32   A    
C10   C25   A    
C21   C46   A    
C25   S2    S    
C22   I6    S    
C33   C41   A    
C28   S3    S    
S2    O26   S    
C16   C31   A    
O44   H16   S    
C23   I7    S    
C17   C42   A    
C36   H3    S    
O8    C1    A    
S8    O44   S    
O14   C6    A    
C9    C26   A    
C47   C48   A    
O38   H14   S    
S3    O29   S    
O4    C5    A    
C19   C27   A    
C14   C29   A    
S6    O37   D    
O10   C2    A    
C10   C33   A    
S8    O43   D    
S7    O41   S    
C40   C48   A    
O29   H11   S    
C23   C48   A    
C21   C29   A    
C36   C44   A    
O1    C8    A    
O16   C8    A    
C41   C42   A    
S6    O36   D    
C11   C28   A    
C13   C38   A    
O2    V3    S    
O3    C6    A    
C1    C11   S    
O26   H10   S    
C2    C12   S    
C35   H4    S    
C26   S1    S    
S6    O38   S    
