data_mof_unit_53966.cif
_audit_creation_date              2012-12-10T18:09:45-0500
_audit_creation_method            fapswitch 2.2
_symmetry_space_group_name_H-M    P1
_symmetry_Int_Tables_number       1
_space_group_crystal_system       triclinic
_cell_length_a                    10.632838
_cell_length_b                    12.59854
_cell_length_c                    13.124552
_cell_angle_alpha                 82.28094
_cell_angle_beta                  90.556038
_cell_angle_gamma                 102.519174
_cell_volume                      1700.44450049

loop_
_atom_site_label
_atom_site_type_symbol
_atom_type_description
_atom_site_fract_x
_atom_site_fract_y
_atom_site_fract_z
_atom_type_partial_charge
C1    C     C_R   0.480611 0.438759 0.691174 0.828489
C2    C     C_3   0.120728 0.495787 0.510722 0.095720
C3    C     C_3   0.069216 0.501984 0.400057 -0.499211
C4    C     C_3   0.098835 0.597724 0.558191 -0.372168
C5    C     C_R   0.410094 0.702017 0.063722 -0.198903
C6    C     C_R   0.502835 0.596696 0.199913 -0.054663
C7    C     C_R   0.499062 0.299728 0.838163 -0.195546
C8    C     C_R   0.510814 0.271085 0.943042 -0.146421
C9    C     C_R   0.497799 0.344528 0.010395 -0.195913
C10   C     C_R   0.466243 0.446497 0.973550 0.083372
C11   C     C_R   0.434360 0.466878 0.869518 0.091644
C12   C     C_R   0.740829 0.498261 0.506937 0.855783
C13   C     C_R   0.465643 0.529129 0.036283 0.077606
C14   C     C_R   0.413615 0.621651 0.999962 0.175881
C15   C     C_R   0.364362 0.631576 0.901292 -0.256703
C16   C     C_R   0.374553 0.555144 0.836639 -0.206548
C17   C     C_R   0.517992 0.523140 0.133765 -0.257977
C18   C     C_R   0.452962 0.688667 0.164373 -0.216267
C19   C     C_R   0.465356 0.399232 0.800728 -0.112808
C20   C     C_R   0.315904 0.088125 0.349443 -0.303143
C21   C     C_R   0.652798 0.800141 0.629542 0.030567
C22   C     C_R   0.684129 0.904928 0.657456 -0.257115
C23   C     C_R   0.513337 0.561098 0.308728 0.867151
C24   C     C_R   0.625642 0.985983 0.608296 -0.186138
C25   C     C_R   0.534937 0.962304 0.530297 0.014479
C26   C     C_R   0.506905 0.854320 0.504683 0.186242
C27   C     C_R   0.471366 0.040951 0.477198 -0.062014
C28   C     C_R   0.378803 0.009750 0.401057 0.168362
C29   C     C_R   0.351627 0.901398 0.377814 0.139603
C30   C     C_R   0.417949 0.826689 0.428300 -0.241716
C31   C     C_R   0.496072 0.150412 0.496747 -0.039440
C32   C     C_R   0.344888 0.194394 0.372742 -0.002942
C33   C     C_R   0.257990 0.498384 0.503408 0.847463
C34   C     C_3   0.898938 0.383527 0.571563 0.061727
C35   C     C_3   0.046745 0.387081 0.576328 0.034601
C36   C     C_3   0.927332 0.508526 0.401850 -0.539217
C37   C     C_3   0.954737 0.596473 0.564907 0.050113
C38   C     C_3   0.877052 0.496321 0.514762 0.117115
H1    H     H_    0.858862 0.320747 0.520585 0.139385
H2    H     H_    0.146916 0.674495 0.508612 0.173870
H3    H     H_    0.916511 0.588532 0.359053 0.188110
H4    H     H_    0.441535 0.746762 0.215336 0.161939
H5    H     H_    0.320261 0.699574 0.873326 0.148468
H6    H     H_    0.369891 0.772614 0.037071 0.137019
H7    H     H_    0.520315 0.245694 0.786215 0.152061
H8    H     H_    0.509750 0.318248 0.090892 0.134363
H9    H     H_    0.535573 0.193755 0.971923 0.141300
H10   H     H_    0.334017 0.565325 0.760952 0.167528
H11   H     H_    0.297189 0.255417 0.333532 0.134495
H12   H     H_    0.245155 0.068790 0.291173 0.159779
H13   H     H_    0.564452 0.181690 0.552265 0.124090
H14   H     H_    0.697265 0.736591 0.667765 0.138399
H15   H     H_    0.653082 0.065574 0.633467 0.131104
H16   H     H_    0.753222 0.923255 0.717211 0.146600
H17   H     H_    0.398391 0.746617 0.406236 0.219217
H18   H     H_    0.062997 0.316861 0.538595 0.144953
H19   H     H_    0.870700 0.443021 0.360223 0.194812
H20   H     H_    0.079360 0.428343 0.365172 0.186600
H21   H     H_    0.940120 0.672801 0.516962 0.165276
H22   H     H_    0.145267 0.601522 0.634294 0.181474
N1    N     N_R   0.433240 0.222190 0.444680 -0.099956
N2    N     N_R   0.566070 0.776970 0.554790 -0.123560
O1    O     O_R   0.468120 0.366740 0.627160 -0.619993
O2    O     O_R   0.510770 0.544830 0.662520 -0.615727
O3    O     O_R   0.663880 0.410950 0.482330 -0.629425
O4    O     O_R   0.706530 0.589040 0.517700 -0.623147
O5    O     O_R   0.489230 0.455170 0.337480 -0.611448
O6    O     O_R   0.531880 0.633260 0.372840 -0.632251
O7    O     O_R   0.293470 0.410960 0.482300 -0.623819
O8    O     O_R   0.336120 0.589050 0.517670 -0.651121
Zn1   Zn    Zn3+2 0.471520 0.381090 0.476390 0.924613
Zn2   Zn    Zn3+2 0.528480 0.618910 0.523610 0.915759
H23   H     H_    0.125520 0.575337 0.350581 0.185413
H24   H     H_    0.567048 0.458872 0.162104 0.147642
C39   C     C_3   0.822234 0.339371 0.673852 -0.930008
H25   H     H_    0.828678 0.252832 0.698072 0.231880
H26   H     H_    0.857668 0.386597 0.737167 0.267796
H27   H     H_    0.718547 0.338929 0.664618 0.241190
C40   C     C_3   0.252344 0.863084 0.299793 -0.970051
H28   H     H_    0.241266 0.774499 0.293658 0.231848
H29   H     H_    0.156826 0.875288 0.322853 0.247524
H30   H     H_    0.281322 0.909789 0.222687 0.246960
C41   C     C_3   0.100259 0.368548 0.685914 -0.901650
H31   H     H_    0.204686 0.370008 0.682565 0.231496
H32   H     H_    0.086140 0.431509 0.733198 0.244445
H33   H     H_    0.053178 0.286344 0.725715 0.249976
C42   C     C_3   0.912611 0.605124 0.675464 -0.913949
H34   H     H_    0.938779 0.692290 0.689025 0.228866
H35   H     H_    0.961839 0.558628 0.734638 0.241980
H36   H     H_    0.807282 0.575989 0.688732 0.256808

loop_
_geom_bond_atom_site_label_1
_geom_bond_atom_site_label_2
_ccdc_geom_bond_type
C2    C35   S    
C42   H34   S    
C31   N1    A    
C16   H10   S    
C7    C8    A    
C22   H16   S    
C11   C19   A    
C29   C30   A    
C7    H7    S    
C28   C29   A    
C32   N1    A    
C18   H4    S    
C20   C32   A    
C15   C16   A    
C34   C35   S    
C23   O5    A    
O7    Zn1   S    
C20   H12   S    
O4    Zn2   S    
C4    H2    S    
C8    C9    A    
C9    C10   A    
C33   O7    A    
C34   C39   S    
N1    Zn1   S    
C9    H8    S    
C21   C22   A    
C36   H3    S    
C1    O1    A    
C25   C26   A    
C6    C18   A    
C1    C19   S    
C27   C31   A    
C34   H1    S    
C24   C25   A    
C36   H19   S    
C40   H29   S    
C35   C41   S    
C5    C18   A    
C20   C28   A    
C24   H15   S    
O3    Zn1   S    
C12   O4    A    
C23   O6    A    
C2    C4    S    
C39   H25   S    
C37   C38   S    
C11   C16   A    
C41   H31   S    
C29   C40   S    
O6    Zn2   S    
C4    H22   S    
C21   N2    A    
N2    Zn2   S    
C39   H26   S    
C5    C14   A    
C37   H21   S    
C33   O8    A    
C2    C33   S    
C41   H32   S    
C5    H6    S    
O1    Zn1   S    
C26   C30   A    
C7    C19   A    
C42   H35   S    
C17   H24   S    
C22   C24   A    
C1    O2    A    
C12   O3    A    
C6    C17   A    
C35   H18   S    
C34   C38   S    
C37   C42   S    
C31   H13   S    
C10   C13   A    
C40   H30   S    
C25   C27   A    
C30   H17   S    
C13   C17   A    
C36   C38   S    
C2    C3    S    
C26   N2    A    
C8    H9    S    
C15   H5    S    
C3    C36   S    
C6    C23   S    
O5    Zn1   S    
O2    Zn2   S    
C12   C38   S    
C3    H23   S    
C39   H27   S    
C32   H11   S    
C10   C11   A    
C40   H28   S    
C3    H20   S    
C41   H33   S    
C4    C37   S    
C42   H36   S    
C27   C28   A    
C14   C15   A    
O8    Zn2   S    
C13   C14   A    
C21   H14   S    
