data_mof_unit_52338.cif
_audit_creation_date              2012-12-10T18:08:23-0500
_audit_creation_method            fapswitch 2.2
_symmetry_space_group_name_H-M    P1
_symmetry_Int_Tables_number       1
_space_group_crystal_system       triclinic
_cell_length_a                    12.652529
_cell_length_b                    13.101323
_cell_length_c                    14.160175
_cell_angle_alpha                 90.212322
_cell_angle_beta                  102.193583
_cell_angle_gamma                 82.959467
_cell_volume                      2276.40913287

loop_
_atom_site_label
_atom_site_type_symbol
_atom_type_description
_atom_site_fract_x
_atom_site_fract_y
_atom_site_fract_z
_atom_type_partial_charge
C1    C     C_R   0.439144 0.691226 0.485658 0.846145
C2    C     C_1   0.496801 0.499179 0.227402 -0.204311
C3    C     C_R   0.697105 0.069119 0.426162 -0.210961
C4    C     C_R   0.596825 0.200003 0.504362 -0.080855
C5    C     C_R   0.296712 0.838673 0.487018 -0.186002
C6    C     C_R   0.263978 0.944142 0.483646 -0.154227
C7    C     C_R   0.337828 0.011854 0.473824 -0.171629
C8    C     C_R   0.444893 0.974033 0.466277 0.075526
C9    C     C_R   0.467683 0.869509 0.446537 0.063475
C10   C     C_R   0.529095 0.036798 0.473840 0.041890
C11   C     C_R   0.619322 0.003441 0.431185 0.144353
C12   C     C_R   0.501232 0.500195 0.670610 0.887333
C13   C     C_R   0.630363 0.905041 0.393782 -0.264546
C14   C     C_R   0.557109 0.837438 0.403947 -0.214296
C15   C     C_R   0.530326 0.129196 0.525786 0.030976
C16   C     C_R   0.682799 0.168916 0.458371 -0.228771
C17   C     C_R   0.399743 0.800650 0.470131 -0.124551
C18   C     C_R   0.091496 0.341637 0.372553 -0.317053
C19   C     C_R   0.799288 0.631618 0.609105 0.642176
C20   C     C_R   0.906198 0.654944 0.637217 -0.354484
C21   C     C_R   0.987025 0.604336 0.596175 -0.276484
C22   C     C_R   0.962962 0.528190 0.527145 0.023890
C23   C     C_R   0.560618 0.308863 0.509809 0.837704
C24   C     C_R   0.854911 0.503174 0.503483 0.143079
C25   C     C_R   0.042344 0.475251 0.482008 0.010602
C26   C     C_R   0.013530 0.395745 0.416590 0.192200
C27   C     C_R   0.907240 0.371440 0.395524 -0.286113
C28   C     C_R   0.828866 0.425143 0.437900 -0.183090
C29   C     C_R   0.149887 0.498507 0.498621 -0.052662
C30   C     C_R   0.196652 0.367528 0.393025 0.010167
C31   C     C_R   0.498814 0.499736 0.329392 0.866715
C32   C     C_1   0.503440 0.500493 0.772637 -0.198532
C33   C     C_1   0.503151 0.500325 0.857912 -0.010123
C34   C     C_1   0.501285 0.499880 0.957583 0.004646
C35   C     C_1   0.499271 0.499479 0.042515 0.005305
C36   C     C_1   0.497277 0.499158 0.142162 -0.010933
H1    H     H_    0.736149 0.222678 0.443874 0.157031
H2    H     H_    0.884310 0.311125 0.345491 0.149202
H3    H     H_    0.071320 0.280340 0.322899 0.146120
H4    H     H_    0.179183 0.558668 0.545098 0.124755
H5    H     H_    0.067480 0.625867 0.621268 0.161082
H6    H     H_    0.927438 0.711905 0.690964 0.172828
H7    H     H_    0.748454 0.403900 0.418087 0.204601
H8    H     H_    0.697922 0.879029 0.360049 0.152152
H9    H     H_    0.764947 0.045415 0.392079 0.141935
H10   H     H_    0.241604 0.787085 0.502610 0.154277
H11   H     H_    0.309184 0.093018 0.467474 0.132854
H12   H     H_    0.182643 0.973493 0.491654 0.141320
H13   H     H_    0.569373 0.761134 0.375599 0.174268
H14   H     H_    0.258416 0.326516 0.359854 0.138340
N1    N     N_R   0.222200 0.444680 0.454480 -0.098104
N2    N     N_R   0.776970 0.554780 0.545050 -0.162106
O1    O     O_R   0.366740 0.627160 0.478260 -0.610618
O2    O     O_R   0.544830 0.662520 0.507340 -0.580994
O3    O     O_R   0.410930 0.482320 0.611740 -0.603823
O4    O     O_R   0.589030 0.517680 0.640820 -0.541510
O5    O     O_R   0.455170 0.337480 0.492660 -0.612606
O6    O     O_R   0.633260 0.372840 0.521740 -0.628191
O7    O     O_R   0.410970 0.482320 0.359180 -0.588833
O8    O     O_R   0.589070 0.517680 0.388260 -0.624937
Zn1   Zn    Zn3+2 0.381090 0.476390 0.480580 0.930911
Zn2   Zn    Zn3+2 0.618910 0.523610 0.519420 0.957871
O9    O     O_3   0.717109 0.680101 0.650801 -0.611780
C37   C     C_3   0.709799 0.788792 0.641556 0.093927
H15   H     H_    0.622559 0.819307 0.617169 0.159722
H16   H     H_    0.750430 0.814884 0.584681 0.137727
C38   C     C_3   0.751329 0.836422 0.739645 -0.386650
H17   H     H_    0.681691 0.858267 0.775221 0.211528
H18   H     H_    0.810285 0.779829 0.788437 0.239580
C39   C     C_3   0.806617 0.931587 0.728022 -0.958234
H19   H     H_    0.884137 0.908916 0.704076 0.265189
H20   H     H_    0.825061 0.970570 0.798286 0.268492
H21   H     H_    0.753109 0.986352 0.673527 0.268993
C40   C     C_3   0.474949 0.149898 0.611830 -0.384750
C41   C     C_3   0.506428 0.062765 0.688729 -0.363251
C42   C     C_3   0.444447 0.082825 0.769761 -0.867314
H22   H     H_    0.462051 0.156547 0.805044 0.263030
H23   H     H_    0.355371 0.086066 0.740626 0.264696
H24   H     H_    0.470108 0.019565 0.824874 0.250306
H25   H     H_    0.489006 0.987545 0.657081 0.233278
H26   H     H_    0.594935 0.057591 0.720444 0.231830
H27   H     H_    0.501156 0.220156 0.649357 0.192835
H28   H     H_    0.385631 0.167629 0.589111 0.206463

loop_
_geom_bond_atom_site_label_1
_geom_bond_atom_site_label_2
_ccdc_geom_bond_type
O6    Zn2   S    
C23   O6    A    
C30   N1    A    
C24   N2    A    
C35   C36   S    
N1    Zn1   S    
C42   H24   S    
C40   H28   S    
C18   H3    S    
C7    C8    A    
C26   C27   A    
C6    H12   S    
C42   H23   S    
C10   C15   A    
C5    C6    A    
C14   H13   S    
C5    C17   A    
C27   H2    S    
O8    Zn2   S    
C34   C35   T    
C31   O7    A    
C1    O1    A    
O1    Zn1   S    
C19   N2    A    
C19   C20   A    
C19   O9    S    
C8    C9    A    
C22   C25   A    
C18   C26   A    
C39   H19   S    
C18   C30   A    
C41   H25   S    
C16   H1    S    
C30   H14   S    
C21   C22   A    
C12   C32   S    
C40   H27   S    
C25   C29   A    
O7    Zn1   S    
C40   C41   S    
C38   H17   S    
C37   C38   S    
C42   H22   S    
C4    C23   S    
C41   H26   S    
O2    Zn2   S    
C25   C26   A    
C3    H9    S    
C2    C31   S    
C38   H18   S    
C37   H16   S    
C31   O8    A    
C4    C16   A    
C41   C42   S    
C39   H21   S    
C33   C34   S    
C9    C14   A    
C12   O4    A    
C1    O2    A    
C21   H5    S    
C9    C17   A    
C22   C24   A    
C29   N1    A    
C2    C36   T    
C23   O5    A    
C24   C28   A    
C20   H6    S    
O5    Zn1   S    
C6    C7    A    
C5    H10   S    
C28   H7    S    
C1    C17   S    
C38   C39   S    
C32   C33   T    
C4    C15   A    
N2    Zn2   S    
C37   H15   S    
C11   C13   A    
O3    Zn1   S    
C29   H4    S    
O4    Zn2   S    
C12   O3    A    
C3    C11   A    
C10   C11   A    
O9    C37   S    
C15   C40   S    
C20   C21   A    
C8    C10   A    
C27   C28   A    
C39   H20   S    
C13   C14   A    
C13   H8    S    
C3    C16   A    
C7    H11   S    
