data_mof_unit_35148.cif
_audit_creation_date              2012-12-11T14:48:03-0500
_audit_creation_method            fapswitch 2.2
_symmetry_space_group_name_H-M    P1
_symmetry_Int_Tables_number       1
_space_group_crystal_system       triclinic
_cell_length_a                    11.570866
_cell_length_b                    11.610363
_cell_length_c                    19.509015
_cell_angle_alpha                 89.892531
_cell_angle_beta                  89.344444
_cell_angle_gamma                 60.244389
_cell_volume                      2275.14608846

loop_
_atom_site_label
_atom_site_type_symbol
_atom_type_description
_atom_site_fract_x
_atom_site_fract_y
_atom_site_fract_z
_atom_type_partial_charge
C1    C     C_R   0.640066 0.116683 0.599255 0.547829
C2    C     C_1   0.650227 0.683354 0.663837 -0.000048
C3    C     C_1   0.126863 0.200364 0.859402 0.003574
C4    C     C_1   0.170883 0.170083 0.727680 -0.031219
C5    C     C_1   0.150063 0.183244 0.798976 -0.031400
C6    C     C_1   0.194543 0.160084 0.667206 0.005649
C7    C     C_1   0.679295 0.191907 0.860743 0.002220
C8    C     C_1   0.658711 0.167070 0.728919 -0.030772
C9    C     C_1   0.666239 0.181235 0.800298 -0.031210
C10   C     C_1   0.652798 0.149194 0.668542 0.003817
C11   C     C_R   0.507467 0.794768 0.278736 0.230840
C12   C     C_R   0.613148 0.743645 0.597795 0.555839
C13   C     C_R   0.529089 0.775270 0.208194 0.008321
C14   C     C_R   0.657740 0.686020 0.186192 -0.016986
C15   C     C_R   0.765466 0.648321 0.228898 -0.152836
C16   C     C_R   0.747825 0.702895 0.293534 -0.054449
C17   C     C_R   0.616294 0.762294 0.322209 0.003275
C18   C     C_R   0.258524 0.224504 0.283559 0.248330
C19   C     C_R   0.220749 0.241409 0.215635 -0.149174
C20   C     C_R   0.146687 0.186228 0.190853 -0.031751
C21   C     C_R   0.120437 0.101487 0.234095 -0.001638
C22   C     C_R   0.146979 0.097431 0.303382 -0.120760
C23   C     C_R   0.240642 0.144982 0.597955 0.546685
C24   C     C_R   0.216500 0.155885 0.328004 0.037729
C25   C     C_R   0.661637 0.051367 0.280550 -0.101671
C26   C     C_R   0.664466 0.078637 0.211477 -0.145441
C27   C     C_R   0.658382 0.197336 0.192735 0.025881
C28   C     C_R   0.632557 0.295240 0.242515 -0.129303
C29   C     C_R   0.631653 0.266502 0.311673 -0.126490
C30   C     C_R   0.653405 0.141480 0.330705 0.063532
C31   C     C_R   0.081645 0.232032 0.928717 0.536799
C32   C     C_R   0.709140 0.547323 0.922683 0.555924
C33   C     C_R   0.708986 0.207403 0.930067 0.538913
C34   C     C_R   0.643702 0.111066 0.401715 0.537123
C35   C     C_R   0.082194 0.234696 0.125183 0.541528
C36   C     C_R   0.681696 0.614648 0.123463 0.551411
C37   C     C_R   0.704499 0.211812 0.125626 0.537941
C38   C     C_R   0.586720 0.796636 0.394665 0.587480
C39   C     C_R   0.256493 0.136269 0.398627 0.570131
C40   C     C_1   0.699857 0.581725 0.851706 0.001373
C41   C     C_1   0.672320 0.644724 0.722050 -0.030849
C42   C     C_1   0.689721 0.609059 0.791744 -0.031717
Cr1   Cr    Cr6+3 0.404720 0.198220 0.499960 1.013065
Cr2   Cr    Cr6+3 0.698290 0.897110 0.500380 1.004028
Cr3   Cr    Cr6+3 0.396970 0.904720 0.499610 1.012393
Cr4   Cr    Cr6+3 0.926180 0.152240 0.028110 1.004441
Cr5   Cr    Cr6+3 0.921340 0.452070 0.027460 1.019330
Cr6   Cr    Cr6+3 0.626260 0.447120 0.028700 1.014017
H1    H     H_    0.681510 0.003781 0.173445 0.108312
H2    H     H_    0.625857 0.388691 0.228393 0.122367
H3    H     H_    0.618630 0.339329 0.350098 0.093938
H4    H     H_    0.864430 0.577013 0.211078 0.159160
H5    H     H_    0.246763 0.300770 0.182812 0.136523
H6    H     H_    0.120167 0.041605 0.337998 0.135561
H7    H     H_    0.667136 0.959617 0.295077 0.116460
O1    O     O_R   0.267740 0.231990 0.575440 -0.510089
O2    O     O_R   0.685970 0.784630 0.430010 -0.533662
O3    O     O_R   0.502530 0.766960 0.423990 -0.494206
O4    O     O_R   0.288330 0.026310 0.429250 -0.520212
O5    O     O_3   0.499990 0.000020 0.499980 -0.273815
O6    O     O_R   0.821500 0.119550 0.952820 -0.502917
O7    O     O_R   0.037130 0.162750 0.957360 -0.497359
O8    O     O_R   0.056440 0.344950 0.951330 -0.510295
O9    O     O_R   0.797900 0.560570 0.957460 -0.491589
O10   O     O_R   0.596140 0.579600 0.952720 -0.504868
O11   O     O_R   0.639070 0.321380 0.958660 -0.509912
O12   O     O_R   0.527280 0.186680 0.570530 -0.498960
O13   O     O_R   0.821240 0.124490 0.104360 -0.522794
O14   O     O_R   0.036900 0.167320 0.097830 -0.510502
O15   O     O_R   0.056190 0.349890 0.102870 -0.523090
O16   O     O_R   0.797670 0.565150 0.097930 -0.506665
O17   O     O_R   0.595880 0.584540 0.104260 -0.523539
O18   O     O_R   0.638830 0.325960 0.099140 -0.499530
O19   O     O_3   0.824590 0.350480 0.028090 -0.271836
O20   O     O_R   0.728090 0.003480 0.576380 -0.503093
O21   O     O_R   0.682970 0.789220 0.570490 -0.487720
O22   O     O_R   0.499290 0.771920 0.575530 -0.506267
O23   O     O_R   0.285330 0.030900 0.569730 -0.497247
O24   O     O_R   0.270980 0.227040 0.423900 -0.501983
O25   O     O_R   0.530280 0.182090 0.430050 -0.486967
O26   O     O_R   0.731330 0.998530 0.424830 -0.551737
O27   O     O_3   0.380911 0.841832 0.305447 -0.568801
C43   C     C_3   0.360520 0.732806 0.318093 0.014830
H8    H     H_    0.453672 0.640277 0.332405 0.130005
H9    H     H_    0.322939 0.708574 0.271295 0.106306
C44   C     C_3   0.260148 0.767697 0.377071 -0.337758
H10   H     H_    0.237891 0.860146 0.403210 0.205785
H11   H     H_    0.164775 0.781105 0.358153 0.077017
H12   H     H_    0.301113 0.690351 0.417231 0.106763
C45   C     C_3   0.417221 0.847177 0.157955 -0.265297
C46   C     C_3   0.448636 0.924089 0.104181 -0.431900
H13   H     H_    0.476927 0.991929 0.129578 0.149993
H14   H     H_    0.530295 0.856154 0.069171 0.170536
H15   H     H_    0.358882 0.984591 0.072886 0.145926
H16   H     H_    0.387911 0.779673 0.133345 0.160831
H17   H     H_    0.331226 0.921525 0.186051 0.183731
C47   C     C_3   0.870112 0.694611 0.327415 -0.263326
C48   C     C_3   0.967638 0.701253 0.275730 -0.477986
H18   H     H_    0.023545 0.607999 0.246155 0.132420
H19   H     H_    0.912709 0.783225 0.239175 0.159543
H20   H     H_    0.040748 0.718753 0.302781 0.127801
H21   H     H_    0.842232 0.781789 0.360277 0.204723
H22   H     H_    0.921037 0.603273 0.358768 0.148825
O28   O     O_3   0.332864 0.279365 0.307249 -0.527432
C49   C     C_3   0.247512 0.417411 0.315033 0.011632
H23   H     H_    0.142967 0.443748 0.328033 0.121663
H24   H     H_    0.248930 0.468174 0.266939 0.121139
C50   C     C_3   0.293966 0.469865 0.373315 -0.340467
H25   H     H_    0.379685 0.480550 0.356264 0.116554
H26   H     H_    0.209590 0.566568 0.389784 0.071001
H27   H     H_    0.323033 0.404705 0.418608 0.211743
C51   C     C_3   0.084510 0.998275 0.210663 -0.259010
C52   C     C_3   0.958105 0.018467 0.244720 -0.419592
H28   H     H_    0.887254 0.125696 0.249069 0.179543
H29   H     H_    0.918183 0.967900 0.213133 0.157125
H30   H     H_    0.976918 0.974712 0.296820 0.130209
H31   H     H_    0.081011 0.986278 0.154961 0.183676
H32   H     H_    0.163466 0.899095 0.226616 0.139077

loop_
_geom_bond_atom_site_label_1
_geom_bond_atom_site_label_2
_ccdc_geom_bond_type
Cr3   O5    S    
C13   C45   S    
C41   C42   S    
C19   C20   A    
C2    C12   S    
C47   C48   S    
C45   H16   S    
C22   H6    S    
C49   H24   S    
C26   C27   A    
Cr4   O7    S    
C18   C24   A    
C28   C29   A    
Cr2   O5    S    
Cr5   O8    S    
C51   H31   S    
C44   H11   S    
C16   C47   S    
C2    C41   T    
Cr1   O24   S    
C15   C16   A    
C37   O13   A    
C24   C39   S    
C50   H25   S    
C18   C19   A    
Cr2   O21   S    
C51   C52   S    
Cr4   O14   S    
C34   O25   A    
C38   O3    A    
C20   C35   S    
C28   H2    S    
C11   C17   A    
C35   O15   A    
C8    C9    S    
C14   C36   S    
Cr3   O23   S    
C34   O26   A    
Cr6   O10   S    
C47   H21   S    
C36   O16   A    
C52   H30   S    
C19   H5    S    
C40   C42   T    
C21   C22   A    
C7    C33   S    
C31   O7    A    
Cr6   O17   S    
O28   C49   S    
C33   O11   A    
C11   O27   S    
C49   C50   S    
Cr3   O3    S    
C30   C34   S    
Cr4   O6    S    
C1    O20   A    
Cr6   O19   S    
C23   O1    A    
C32   O9    A    
C4    C6    T    
Cr2   O26   S    
C26   H1    S    
C46   H13   S    
C44   H10   S    
C16   C17   A    
Cr1   O25   S    
C39   O24   A    
Cr2   O20   S    
Cr5   O15   S    
Cr4   O13   S    
C29   C30   A    
C31   O8    A    
C46   H14   S    
C38   O2    A    
C43   H8    S    
Cr2   O2    S    
C39   O4    A    
C12   O22   A    
C18   O28   S    
C15   H4    S    
C3    C31   S    
Cr5   O16   S    
C47   H22   S    
Cr1   O5    S    
C8    C10   T    
C43   H9    S    
C48   H18   S    
C48   H19   S    
C12   O21   A    
C22   C24   A    
Cr4   O19   S    
C21   C51   S    
C52   H28   S    
C29   H3    S    
C25   C30   A    
C7    C9    T    
C37   O18   A    
Cr3   O4    S    
Cr6   O18   S    
C1    C10   S    
C25   H7    S    
Cr5   O19   S    
C4    C5    S    
C3    C5    T    
C44   H12   S    
Cr5   O9    S    
C45   H17   S    
C48   H20   S    
C49   H23   S    
C50   H27   S    
C25   C26   A    
C46   H15   S    
C51   H32   S    
C11   C13   A    
C45   C46   S    
C27   C37   S    
C33   O6    A    
C6    C23   S    
C1    O12   A    
C50   H26   S    
C17   C38   S    
C32   C40   S    
C23   O23   A    
Cr1   O1    S    
C43   C44   S    
C20   C21   A    
C35   O14   A    
Cr1   O12   S    
O27   C43   S    
C27   C28   A    
C14   C15   A    
Cr3   O22   S    
Cr6   O11   S    
C13   C14   A    
C36   O17   A    
C32   O10   A    
C52   H29   S    
