data_mof_unit_63815.cif
_audit_creation_date              2013-03-05T16:09:34-0500
_audit_creation_method            fapswitch 2.2
_symmetry_space_group_name_H-M    P1
_symmetry_Int_Tables_number       1
_space_group_crystal_system       triclinic
_cell_length_a                    12.768259
_cell_length_b                    13.93275
_cell_length_c                    15.958104
_cell_angle_alpha                 90.184093
_cell_angle_beta                  92.774464
_cell_angle_gamma                 98.135729
_cell_volume                      2806.88677704

loop_
_atom_site_label
_atom_site_type_symbol
_atom_site_description
_atom_site_fract_x
_atom_site_fract_y
_atom_site_fract_z
_atom_type_partial_charge
O1    O     O_R   0.399110 0.356330 0.494870 -0.555911
O2    O     O_R   0.575900 0.366540 0.503830 -0.559209
C1    C     C_R   0.483400 0.315996 0.499271 0.829200
O3    O     O_R   0.411570 0.494900 0.374960 -0.573745
O4    O     O_R   0.588350 0.505100 0.383910 -0.535677
C2    C     C_R   0.500659 0.499996 0.340187 0.814531
Cu1   Cu    Cu3+1 0.395330 0.493960 0.494700 1.069753
Cu2   Cu    Cu3+1 0.604670 0.506040 0.505300 1.085762
O5    O     O_R   0.424100 0.633460 0.496170 -0.554136
O6    O     O_R   0.600890 0.643670 0.505130 -0.575566
O7    O     O_R   0.411650 0.494900 0.616090 -0.562912
O8    O     O_R   0.588430 0.505100 0.625040 -0.553760
C3    C     C_R   0.516561 0.684002 0.500880 0.805683
C4    C     C_R   0.499375 0.499838 0.659816 0.806967
C5    C     C_3   0.401604 0.424628 0.046977 -0.251343
C6    C     C_3   0.611279 0.455502 0.054820 0.350089
C7    C     C_3   0.616240 0.469064 0.953090 0.321977
C8    C     C_1   0.498062 0.497279 0.748757 -0.031976
C9    C     C_3   0.505337 0.493632 0.083640 -0.113805
C10   C     C_3   0.405827 0.412841 0.946819 0.072896
C11   C     C_3   0.500931 0.490579 0.916397 -0.137469
C12   C     C_3   0.479679 0.592368 0.951535 -0.282894
C13   C     C_3   0.505274 0.599077 0.047593 -0.283714
C14   C     C_1   0.498664 0.494237 0.823862 0.164181
C15   C     C_1   0.503947 0.496737 0.176228 0.099093
C16   C     C_1   0.502289 0.498608 0.251240 -0.060239
H1    H     H_    0.584193 0.641564 0.060071 0.240079
H2    H     H_    0.394589 0.598766 0.940703 0.218783
C17   C     C_1   0.526018 0.787016 0.502514 -0.074833
C18   C     C_2   0.540588 0.977426 0.507042 -0.158717
C19   C     C_2   0.452695 0.021856 0.506193 0.302119
C20   C     C_1   0.463681 0.126152 0.502996 -0.005090
C21   C     C_1   0.533437 0.873804 0.504443 0.092889
C22   C     C_1   0.473356 0.212980 0.500887 -0.085357
N1    N     N_1   0.238030 0.484880 0.486720 -0.135293
C23   C     C_2   0.028367 0.473493 0.471091 0.195064
C24   C     C_2   0.971198 0.524699 0.521770 -0.246781
C25   C     C_1   0.854316 0.518603 0.516394 0.346832
C26   C     C_1   0.145663 0.480767 0.481178 0.227814
N2    N     N_1   0.761970 0.515120 0.513270 -0.133732
C27   C     C_1   0.422382 0.313670 0.921330 0.400802
N3    N     N_1   0.432201 0.235739 0.900858 -0.121252
C28   C     C_1   0.305778 0.466682 0.069390 0.374767
N4    N     N_1   0.230718 0.498661 0.086899 -0.144645
N5    N     N_R   0.301055 0.424196 0.905397 0.126441
O9    O     O_R   0.289436 0.488602 0.848034 -0.339095
O10   O     O_R   0.218290 0.362109 0.921443 -0.282005
C29   C     C_1   0.534004 0.677857 0.908284 0.382770
N6    N     N_1   0.576052 0.744753 0.874372 -0.165924
N7    N     N_R   0.346971 0.968797 0.507154 0.154526
O11   O     O_R   0.266552 0.009870 0.480035 -0.279003
O12   O     O_R   0.328695 0.885844 0.544854 -0.316277
C30   C     C_1   0.646002 0.031905 0.507143 0.288558
N8    N     N_1   0.730212 0.075456 0.507219 -0.167661
C31   C     C_1   0.025541 0.588459 0.586565 0.285301
N9    N     N_1   0.069067 0.639493 0.638436 -0.149523
N10   N     N_R   0.976678 0.409621 0.405324 0.157769
O13   O     O_R   0.027675 0.345758 0.371937 -0.276278
O14   O     O_R   0.883745 0.420414 0.372647 -0.279398
C32   C     C_1   0.386365 0.329514 0.089947 0.335642
N11   N     N_1   0.373781 0.255566 0.123602 -0.145813
N12   N     N_R   0.709101 0.508765 0.096649 0.185451
O15   O     O_R   0.799865 0.480644 0.083077 -0.176356
O16   O     O_R   0.707476 0.576054 0.153195 -0.317731
N13   N     N_R   0.608766 0.353695 0.084092 0.129855
O17   O     O_R   0.585347 0.277931 0.035482 -0.300331
O18   O     O_R   0.629283 0.338492 0.163318 -0.266023
N14   N     N_R   0.652235 0.382750 0.914871 0.163522
O19   O     O_R   0.742746 0.358801 0.942083 -0.179704
O20   O     O_R   0.615810 0.349405 0.841309 -0.339218
N15   N     N_R   0.695879 0.551980 0.928379 0.148591
O21   O     O_R   0.729961 0.626246 0.976830 -0.296003
O22   O     O_R   0.728830 0.554235 0.852316 -0.271337
C33   C     C_1   0.434131 0.657802 0.089016 0.294263
N16   N     N_1   0.378978 0.704035 0.121410 -0.186233

loop_
_geom_bond_atom_site_label_1
_geom_bond_atom_site_label_2
_geom_bond_distance
_ccdc_geom_bond_type
O4    Cu2   1.938080 S    
C9    C13   1.579549 S    
C31   N9    1.157359 T    
Cu2   O6    1.924994 S    
C5    C9    1.606811 S    
C20   C22   1.199268 T    
N12   O15   1.302195 A    
C13   H1    1.102917 S    
C27   N3    1.158270 T    
C4    C8    1.420743 S    
C12   C29   1.481207 S    
C19   C20   1.441302 S    
C1    C22   1.423253 S    
C18   C19   1.355730 D    
Cu2   O8    1.931881 S    
O1    Cu1   1.924995 S    
C32   N11   1.157949 T    
O2    C1    1.285329 A    
C5    C28   1.487339 S    
N15   O21   1.301030 A    
C12   H2    1.107944 S    
C11   C12   1.586779 S    
Cu1   O7    1.938078 S    
C19   N7    1.445204 S    
N13   O18   1.302799 A    
N10   O13   1.301583 A    
C2    C16   1.420697 S    
C6    N12   1.486640 S    
C18   C30   1.448573 S    
O3    Cu1   1.931883 S    
C8    C14   1.199105 T    
O4    C2    1.283372 A    
O3    C2    1.282723 A    
C29   N6    1.157400 T    
C25   N2    1.171840 T    
C24   C25   1.481028 S    
O8    C4    1.282207 A    
C7    N15   1.494440 S    
N5    O10   1.303653 A    
C28   N4    1.158055 T    
C6    C9    1.607974 S    
C5    C10   1.610497 S    
C9    C15   1.479060 S    
O7    C4    1.283926 A    
C7    C11   1.625724 S    
N10   O14   1.301400 A    
C6    C7    1.638207 S    
C33   N16   1.157401 T    
C13   C33   1.482083 S    
C24   C31   1.445668 S    
C17   C21   1.199639 T    
N15   O22   1.302806 A    
Cu1   Cu2   2.651432 S    
C10   C27   1.485492 S    
C10   C11   1.603614 S    
C23   N10   1.445575 S    
N14   O20   1.301038 A    
N13   O17   1.299383 A    
C5    C32   1.486608 S    
C11   C14   1.476749 S    
C3    C17   1.423252 S    
N7    O12   1.301509 A    
Cu1   O5    1.926118 S    
O5    C3    1.284926 A    
C12   C13   1.551551 S    
C23   C24   1.377224 D    
C7    N14   1.486033 S    
N12   O16   1.302121 A    
C6    N13   1.491327 S    
Cu2   N2    1.992308 S    
C18   C21   1.434015 S    
N7    O11   1.301529 A    
C15   C16   1.198538 T    
C30   N8    1.157361 T    
Cu1   N1    1.992311 S    
C23   C26   1.487538 S    
O2    Cu2   1.926121 S    
C10   N5    1.492164 S    
N1    C26   1.171651 T    
N14   O19   1.302682 A    
O1    C1    1.281849 A    
O6    C3    1.282248 A    
N5    O9    1.301921 A    
