data_mof_unit_55792.cif
_audit_creation_date              2012-10-26T21:17:56-0400
_audit_creation_method            fapswitch 2.2
_symmetry_space_group_name_H-M    P1
_symmetry_Int_Tables_number       1
_space_group_crystal_system       triclinic
_cell_length_a                    14.672933
_cell_length_b                    14.691307
_cell_length_c                    27.83873
_cell_angle_alpha                 76.947502
_cell_angle_beta                  102.799416
_cell_angle_gamma                 114.771651
_cell_volume                      5253.15844213

loop_
_atom_site_label
_atom_site_type_symbol
_atom_type_description
_atom_site_fract_x
_atom_site_fract_y
_atom_site_fract_z
_atom_type_partial_charge
C1    C     C_R   0.880263 0.312198 0.508849 0.546358
C2    C     C_R   0.962460 0.410739 0.133327 -0.036884
C3    C     C_R   0.998397 0.500626 0.645525 -0.010151
C4    C     C_R   0.002026 0.500409 0.354489 -0.002409
C5    C     C_R   0.953540 0.410967 0.030772 0.028011
C6    C     C_R   0.073964 0.587971 0.972469 0.028789
C7    C     C_R   0.067059 0.591356 0.022114 0.013971
C8    C     C_R   0.941671 0.415489 0.978375 0.014254
C9    C     C_R   0.011120 0.501424 0.051848 -0.031306
C10   C     C_R   0.005790 0.501894 0.949864 -0.031865
C11   C     C_R   0.911074 0.319398 0.063133 0.354259
C12   C     C_R   0.119720 0.687800 0.492198 0.545162
C13   C     C_R   0.147091 0.666451 0.944581 0.353691
C14   C     C_R   0.914983 0.320089 0.113361 -0.054867
C15   C     C_R   0.144554 0.664672 0.894607 -0.052888
C16   C     C_R   0.999440 0.500030 0.592550 0.597554
C17   C     C_R   0.000623 0.500132 0.407470 0.602737
C18   C     C_R   0.864576 0.338485 0.953227 -0.076489
C19   C     C_R   0.111434 0.682366 0.042491 -0.082346
C20   C     C_R   0.812769 0.204537 0.516338 0.011175
C21   C     C_R   0.187252 0.795113 0.491816 0.007449
C22   C     C_R   0.784984 0.026783 0.535790 -0.094498
C23   C     C_R   0.001977 0.502110 0.898446 -0.078420
C24   C     C_R   0.215958 0.969837 0.491312 -0.090909
C25   C     C_R   0.851056 0.128213 0.529253 -0.146047
C26   C     C_R   0.149331 0.869966 0.487591 -0.146287
C27   C     C_R   0.708231 0.178509 0.511111 -0.105536
C28   C     C_R   0.291981 0.821305 0.499127 -0.106852
C29   C     C_R   0.640187 0.077027 0.519283 -0.013983
C30   C     C_R   0.360793 0.920278 0.505427 -0.015975
C31   C     C_R   0.679837 0.000372 0.530320 0.062206
C32   C     C_R   0.321346 0.995775 0.500214 0.067693
C33   C     C_R   0.533772 0.049894 0.515019 -0.040610
C34   C     C_R   0.012060 0.501944 0.102902 -0.077359
C35   C     C_R   0.467483 0.946280 0.515797 -0.041355
C36   C     C_R   0.509957 0.871941 0.528000 -0.053634
C37   C     C_R   0.491665 0.122669 0.510977 -0.075264
C38   C     C_R   0.614074 0.898518 0.535519 0.384391
C39   C     C_R   0.387512 0.095900 0.504135 0.379044
C40   C     C_R   0.931366 0.421480 0.823941 0.446479
C41   C     C_R   0.058131 0.590352 0.174163 0.447798
C42   C     C_R   0.724544 0.681632 0.423370 0.122737
C43   C     C_R   0.287204 0.337012 0.587669 0.137512
C44   C     C_R   0.802215 0.645042 0.433862 0.101647
C45   C     C_R   0.929146 0.420169 0.874595 0.052624
C46   C     C_R   0.203795 0.365168 0.571777 0.110461
C47   C     C_R   0.713264 0.507463 0.491435 0.105916
C48   C     C_R   0.285588 0.489416 0.507532 0.110335
C49   C     C_R   0.633712 0.541913 0.485370 -0.010856
C50   C     C_R   0.375866 0.470746 0.523251 -0.012383
C51   C     C_R   0.640349 0.630118 0.449943 -0.010606
C52   C     C_R   0.373792 0.390377 0.562975 0.003229
C53   C     C_R   0.548401 0.492484 0.512733 -0.001950
C54   C     C_R   0.466339 0.526769 0.500225 -0.004830
C55   C     C_R   0.480428 0.619033 0.467322 0.373321
C56   C     C_R   0.062053 0.593274 0.123494 0.054535
C57   C     C_R   0.543327 0.413283 0.553548 0.377448
C58   C     C_R   0.564911 0.668359 0.442939 -0.027671
C59   C     C_R   0.458129 0.364098 0.577495 -0.020303
C60   C     C_R   0.068058 0.583729 0.820333 0.388997
C61   C     C_R   0.962277 0.411760 0.183469 0.389794
C62   C     C_R   0.915519 0.509754 0.710423 0.184963
C63   C     C_R   0.946141 0.544545 0.266154 0.189477
C64   C     C_R   0.915685 0.507531 0.660299 0.321065
C65   C     C_R   0.945718 0.545267 0.316426 0.302040
C66   C     C_R   0.080306 0.494762 0.681971 0.296554
C67   C     C_R   0.856934 0.340253 0.902125 0.128874
C68   C     C_R   0.059602 0.455806 0.341324 0.304715
C69   C     C_R   0.079536 0.496113 0.731689 -0.062499
C70   C     C_R   0.060625 0.456005 0.291421 -0.065558
C71   C     C_R   0.997982 0.503641 0.746225 0.144593
C72   C     C_R   0.004494 0.500049 0.253765 0.145402
C73   C     C_3   0.824685 0.836749 0.369539 -0.286104
C74   C     C_3   0.191094 0.181824 0.642299 -0.286625
C75   C     C_3   0.687910 0.288859 0.856774 -0.254771
C76   C     C_3   0.268445 0.804869 0.127744 -0.240095
C77   C     C_3   0.791549 0.519421 0.208508 -0.268086
C78   C     C_R   0.111406 0.684195 0.092442 0.122535
C79   C     C_3   0.847547 0.617533 0.730987 -0.270738
C80   C     C_R   0.071522 0.584392 0.870935 -0.036344
Cu1   Cu    Cu3+1 0.081740 0.475690 0.513040 1.038946
Cu2   Cu    Cu3+1 0.918260 0.524310 0.486960 1.030801
F1    F     F_    0.161934 0.488474 0.669832 -0.608461
F2    F     F_    0.351540 0.168965 0.500774 -0.637603
F3    F     F_    0.114266 0.410829 0.376518 -0.598125
F4    F     F_    0.418833 0.669512 0.461495 -0.680164
F5    F     F_    0.622709 0.386582 0.574671 -0.627552
F6    F     F_    0.890239 0.589915 0.327757 -0.639518
F7    F     F_    0.835130 0.512794 0.626303 -0.577216
F8    F     F_    0.872910 0.227276 0.048001 -0.640199
F9    F     F_    0.227471 0.740938 0.965819 -0.647041
F10   F     F_    0.650328 0.823758 0.547036 -0.627223
H1    H     H_    0.318075 0.762973 0.499049 0.174549
H2    H     H_    0.459413 0.304091 0.608121 0.172817
H3    H     H_    0.275938 0.540879 0.474550 0.223455
H4    H     H_    0.712613 0.438548 0.514740 0.223358
H5    H     H_    0.137450 0.328697 0.590455 0.143562
H6    H     H_    0.869062 0.683116 0.415612 0.159106
H7    H     H_    0.142730 0.490961 0.759303 0.178574
H8    H     H_    0.105598 0.421927 0.281817 0.176998
H9    H     H_    0.880729 0.248511 0.136704 0.195728
H10   H     H_    0.201624 0.726350 0.874646 0.196135
H11   H     H_    0.804677 0.278909 0.972002 0.193066
H12   H     H_    0.681246 0.238900 0.499124 0.133133
H13   H     H_    0.143843 0.754701 0.019753 0.196148
H14   H     H_    0.667142 0.757015 0.359241 0.257893
H15   H     H_    0.816523 0.906336 0.347008 0.170563
H16   H     H_    0.846372 0.799936 0.345699 0.170829
H17   H     H_    0.885042 0.859533 0.401732 0.153846
H18   H     H_    0.342096 0.281615 0.658723 0.259212
H19   H     H_    0.204809 0.117873 0.668241 0.168391
H20   H     H_    0.139636 0.151808 0.608671 0.156162
H21   H     H_    0.154950 0.213828 0.661443 0.153677
H22   H     H_    0.753267 0.192294 0.901003 0.265263
H23   H     H_    0.068410 0.851245 0.481940 0.134515
H24   H     H_    0.629442 0.227042 0.836834 0.169093
H25   H     H_    0.710732 0.359704 0.829511 0.184060
H26   H     H_    0.654448 0.299456 0.886191 0.126478
H27   H     H_    0.147407 0.837592 0.086443 0.254517
H28   H     H_    0.300364 0.875847 0.144341 0.163849
H29   H     H_    0.308934 0.816933 0.096054 0.153807
H30   H     H_    0.280965 0.743734 0.156678 0.183483
H31   H     H_    0.884669 0.652492 0.236605 0.302382
H32   H     H_    0.754601 0.560434 0.177524 0.149483
H33   H     H_    0.742111 0.483571 0.238198 0.172891
H34   H     H_    0.931810 0.146751 0.533710 0.135567
H35   H     H_    0.800058 0.459686 0.193770 0.178573
H36   H     H_    0.762984 0.481513 0.704050 0.312651
H37   H     H_    0.780705 0.614958 0.744561 0.148682
H38   H     H_    0.857253 0.668615 0.694702 0.183299
H39   H     H_    0.915417 0.648450 0.758687 0.174976
H40   H     H_    0.816384 0.969078 0.544846 0.181105
H41   H     H_    0.184759 0.026508 0.487680 0.184009
H42   H     H_    0.464700 0.791787 0.533714 0.179280
H43   H     H_    0.537451 0.201020 0.514638 0.156763
H44   H     H_    0.571352 0.739230 0.418902 0.171533
N1    N     N_R   0.998733 0.503189 0.797967 -0.385290
N2    N     N_2   0.831771 0.516481 0.725049 -0.469491
N3    N     N_R   0.008443 0.500753 0.202590 -0.384669
N4    N     N_R   0.795430 0.560780 0.467350 -0.275751
N5    N     N_R   0.204570 0.439220 0.532650 -0.270173
N6    N     N_2   0.729213 0.768863 0.386723 -0.532444
N7    N     N_2   0.286824 0.258316 0.628851 -0.523139
N8    N     N_2   0.774192 0.262280 0.878843 -0.454336
N9    N     N_2   0.161244 0.778795 0.110642 -0.457403
N10   N     N_2   0.889355 0.590072 0.227938 -0.457527
O1    O     O_R   0.977900 0.338120 0.517190 -0.518157
O2    O     O_2   0.103105 0.675785 0.195160 -0.442178
O3    O     O_2   0.914759 0.324699 0.212817 -0.497122
O4    O     O_2   0.133172 0.663243 0.793493 -0.495361
O5    O     O_R   0.022100 0.661880 0.482810 -0.523890
O6    O     O_R   0.839850 0.379180 0.495160 -0.523626
O7    O     O_R   0.160150 0.620820 0.504840 -0.507278
O8    O     O_R   0.069030 0.479490 0.580750 -0.454085
O9    O     O_R   0.930970 0.520510 0.419250 -0.451380
O10   O     O_R   0.930970 0.520550 0.558720 -0.435987
O11   O     O_R   0.069030 0.479450 0.441280 -0.449285
O12   O     O_2   0.868664 0.341236 0.800880 -0.435975

loop_
_geom_bond_atom_site_label_1
_geom_bond_atom_site_label_2
_ccdc_geom_bond_type
C24   H41   S    
C74   N7    S    
C63   C65   A    
C34   C56   A    
C23   C45   A    
C48   H3    S    
C29   C33   A    
C27   C29   A    
C43   N7    S    
C35   C36   A    
C75   H25   S    
C12   O7    A    
C21   C26   A    
Cu1   Cu2   S    
Cu1   O7    S    
C62   C71   A    
C71   N1    S    
C3    C64   A    
Cu1   N5    S    
C76   H28   S    
C30   C35   A    
C76   H29   S    
C40   O12   S    
C24   C26   A    
C39   F2    S    
C5    C11   A    
C74   H20   S    
C4    C65   A    
C11   C14   A    
C43   C52   A    
C57   C59   A    
C66   C69   A    
C20   C25   A    
C79   H37   S    
C38   F10   S    
C27   H12   S    
C56   C78   A    
C1    O6    A    
C32   C39   A    
C69   C71   A    
H36   N2    S    
C26   H23   S    
C62   C64   A    
C78   N9    S    
C66   F1    S    
C44   H6    S    
C72   N3    S    
Cu1   O1    S    
C22   C25   A    
C47   N4    A    
C16   O10   A    
C50   C52   A    
C47   H4    S    
C37   H43   S    
C59   H2    S    
C23   C80   A    
C17   O11   A    
C63   N10   S    
Cu2   N4    S    
Cu2   O5    S    
C77   H35   S    
C2    C61   A    
C60   N1    A    
Cu2   O10   S    
C2    C34   A    
C48   C50   A    
C44   N4    A    
C13   F9    S    
C68   F3    S    
C12   O5    A    
C75   H26   S    
C42   C44   A    
C64   F7    S    
C67   N8    S    
C70   H8    S    
H14   N6    S    
C46   N5    A    
C73   N6    S    
C40   C45   A    
C37   C39   A    
Cu1   O11   S    
C22   C31   A    
C47   C49   A    
C74   H19   S    
C4    C68   A    
C53   C57   A    
C61   N3    A    
C14   H9    S    
C60   O4    S    
C49   C51   A    
C18   C67   A    
C53   C54   A    
C79   H38   S    
C12   C21   S    
C33   C37   A    
Cu1   O8    S    
C57   F5    S    
C28   H1    S    
H22   N8    S    
C19   C78   A    
C25   H34   S    
C24   C32   A    
C41   C56   A    
C5    C9    A    
C52   C59   A    
C15   C80   A    
H31   N10   S    
C79   H39   S    
C40   N1    A    
C51   C58   A    
C50   C54   A    
C62   N2    S    
Cu2   O9    S    
C19   H13   S    
C8    C10   A    
C21   C28   A    
C76   N9    S    
C7    C19   A    
C13   C15   A    
C16   O8    A    
C9    C34   A    
C45   C67   A    
C1    O1    A    
C3    C66   A    
C4    C17   S    
C17   O9    A    
C69   H7    S    
C77   H33   S    
C65   F6    S    
C7    C9    A    
C54   C55   A    
C60   C80   A    
C1    C20   S    
C22   H40   S    
C46   H5    S    
C73   H16   S    
C36   H42   S    
C42   N6    S    
C6    C10   A    
C5    C8    A    
C73   H17   S    
C6    C7    A    
C20   C27   A    
C10   C23   A    
H27   N9    S    
C42   C51   A    
C31   C38   A    
C58   H44   S    
C55   F4    S    
C36   C38   A    
C76   H30   S    
C29   C31   A    
C77   H32   S    
C6    C13   A    
C30   C32   A    
C74   H21   S    
C11   F8    S    
C41   O2    S    
C49   C53   A    
C28   C30   A    
C33   C35   A    
C48   N5    A    
C18   H11   S    
C15   H10   S    
H18   N7    S    
C2    C14   A    
C43   C46   A    
C8    C18   A    
C41   N3    A    
C73   H15   S    
C75   N8    S    
C79   N2    S    
C63   C72   A    
C68   C70   A    
C55   C58   A    
C70   C72   A    
C75   H24   S    
C61   O3    S    
C77   N10   S    
Cu2   O6    S    
C3    C16   S    
