data_mof_unit_29678.cif
_audit_creation_date              2012-12-10T17:23:11-0500
_audit_creation_method            fapswitch 2.2
_symmetry_space_group_name_H-M    P1
_symmetry_Int_Tables_number       1
_space_group_crystal_system       triclinic
_cell_length_a                    15.846637
_cell_length_b                    10.780309
_cell_length_c                    9.67208
_cell_angle_alpha                 89.281418
_cell_angle_beta                  90.503032
_cell_angle_gamma                 93.029581
_cell_volume                      1649.80376943

loop_
_atom_site_label
_atom_site_type_symbol
_atom_type_description
_atom_site_fract_x
_atom_site_fract_y
_atom_site_fract_z
_atom_type_partial_charge
C1    C     C_R   0.500384 0.263055 0.500809 0.776447
C2    C     C_3   0.082768 0.500621 0.498694 0.172204
C3    C     C_3   0.976296 0.605075 0.560130 -0.170794
C4    C     C_3   0.916998 0.501101 0.500712 0.146251
C5    C     C_3   0.031297 0.601083 0.428367 -0.197537
C6    C     C_3   0.971082 0.496896 0.371033 0.033103
C7    C     C_1   0.174556 0.500255 0.498289 -0.065920
C8    C     C_1   0.825227 0.501157 0.501630 -0.062748
C9    C     C_R   0.644310 0.140467 0.618970 -0.167455
C10   C     C_R   0.714507 0.080835 0.669053 -0.128063
C11   C     C_R   0.717402 0.952541 0.659293 -0.135925
C12   C     C_R   0.340076 0.499651 0.499472 0.815945
C13   C     C_R   0.649434 0.883232 0.601799 -0.152320
C14   C     C_R   0.576046 0.940779 0.556160 0.116250
C15   C     C_R   0.574437 0.071539 0.561212 0.088920
C16   C     C_R   0.504518 0.129694 0.502620 -0.085240
C17   C     C_R   0.438319 0.060251 0.439684 -0.201329
C18   C     C_R   0.438719 0.932076 0.438601 -0.195640
C19   C     C_R   0.505981 0.871955 0.498466 -0.064558
C20   C     C_R   0.642009 0.617119 0.135322 0.022682
C21   C     C_R   0.715986 0.633682 0.057937 -0.193520
C22   C     C_R   0.708842 0.648628 0.916689 -0.219307
C23   C     C_R   0.501161 0.737326 0.499468 0.784209
C24   C     C_R   0.630684 0.626455 0.854797 -0.130011
C25   C     C_R   0.564969 0.561478 0.924849 0.195884
C26   C     C_R   0.567142 0.560051 0.073395 0.146662
C27   C     C_R   0.437129 0.441806 0.073646 -0.051688
C28   C     C_R   0.437523 0.441009 0.926321 -0.049342
C29   C     C_R   0.659872 0.500465 0.500543 0.791138
C30   C     C_3   0.968787 0.400912 0.570797 -0.163602
C31   C     C_3   0.023756 0.396371 0.439082 -0.196845
C32   C     C_1   0.250218 0.499937 0.498450 -0.182613
C33   C     C_1   0.749619 0.500934 0.501597 -0.167516
C34   C     C_3   0.029426 0.504884 0.630379 -0.132461
Cu1   Cu    Cu3+1 0.499990 0.499990 0.640660 0.937808
Cu2   Cu    Cu3+1 0.500010 0.500010 0.359340 0.957252
H1    H     H_    0.044259 0.311181 0.388622 0.134865
H2    H     H_    0.773159 0.906790 0.693778 0.125728
H3    H     H_    0.656700 0.785604 0.586137 0.113307
H4    H     H_    0.385820 0.879306 0.392429 0.142817
H5    H     H_    0.385615 0.393417 0.127919 0.134351
H6    H     H_    0.774894 0.666667 0.106411 0.163116
H7    H     H_    0.761641 0.687874 0.857399 0.155011
H8    H     H_    0.622634 0.661858 0.753481 0.189640
H9    H     H_    0.386325 0.391822 0.871989 0.136851
H10   H     H_    0.941920 0.319118 0.629447 0.137175
H11   H     H_    0.057943 0.682721 0.369195 0.134897
H12   H     H_    0.955571 0.690356 0.610103 0.134088
H13   H     H_    0.054902 0.508167 0.737633 0.138917
H14   H     H_    0.385377 0.105626 0.393343 0.139336
H15   H     H_    0.646244 0.240634 0.623924 0.150321
H16   H     H_    0.767707 0.134716 0.712406 0.136867
N1    N     N_R   0.500800 0.501210 0.147910 -0.195487
N2    N     N_R   0.500830 0.501290 0.852040 -0.193509
O1    O     O_R   0.499990 0.319640 0.618810 -0.578261
O2    O     O_R   0.500000 0.319660 0.381240 -0.566896
O3    O     O_R   0.379070 0.499980 0.618770 -0.574884
O4    O     O_R   0.379080 0.500000 0.381190 -0.582353
O5    O     O_R   0.500000 0.680340 0.618760 -0.600126
O6    O     O_R   0.500010 0.680360 0.381190 -0.567744
O7    O     O_R   0.620920 0.500000 0.618810 -0.599842
O8    O     O_R   0.620930 0.500020 0.381230 -0.573540
C35   C     C_1   0.640498 0.716295 0.232244 0.304618
N3    N     N_1   0.644657 0.800913 0.304493 -0.319549
C36   C     C_1   0.938427 0.492371 0.228670 0.208442
N4    N     N_1   0.912707 0.488721 0.116382 -0.298478

loop_
_geom_bond_atom_site_label_1
_geom_bond_atom_site_label_2
_ccdc_geom_bond_type
C17   H14   S    
C11   H2    S    
C19   C23   S    
C24   C25   A    
C27   N1    A    
Cu2   O2    S    
Cu2   N1    S    
C11   C13   A    
C9    C10   A    
C27   H5    S    
C22   H7    S    
C9    H15   S    
C4    C8    S    
C30   C31   S    
Cu1   O3    S    
C10   H16   S    
C2    C34   S    
C20   C35   S    
C17   C18   A    
C1    O1    A    
C12   O4    A    
Cu1   O7    S    
C1    C16   S    
C21   C22   A    
C12   C32   S    
Cu1   N2    S    
C23   O5    A    
C5    H11   S    
C5    C6    S    
C20   C26   A    
C25   N2    A    
Cu2   O8    S    
C12   O3    A    
Cu1   O5    S    
C1    O2    A    
C6    C31   S    
Cu2   O4    S    
C8    C33   T    
C2    C31   S    
C9    C15   A    
C23   O6    A    
C24   H8    S    
C22   C24   A    
C28   H9    S    
C13   H3    S    
C2    C5    S    
C21   H6    S    
C29   O7    A    
C30   C34   S    
Cu1   O1    S    
C15   C16   A    
C26   N1    A    
C29   C33   S    
C3    H12   S    
C20   C21   A    
C29   O8    A    
C4    C6    S    
C36   N4    T    
C10   C11   A    
C27   C28   A    
C28   N2    A    
C14   C15   A    
C18   C19   A    
C34   H13   S    
C18   H4    S    
C7    C32   T    
C3    C34   S    
Cu2   O6    S    
C25   C26   A    
C13   C14   A    
C14   C19   A    
C30   H10   S    
C6    C36   S    
C4    C30   S    
C3    C4    S    
C2    C7    S    
C16   C17   A    
C31   H1    S    
C35   N3    T    
C3    C5    S    
Cu1   Cu2   S    
