data_mof_unit_29120.cif
_audit_creation_date              2012-12-11T14:30:20-0500
_audit_creation_method            fapswitch 2.2
_symmetry_space_group_name_H-M    P1
_symmetry_Int_Tables_number       1
_space_group_crystal_system       triclinic
_cell_length_a                    12.826974
_cell_length_b                    12.793643
_cell_length_c                    27.087404
_cell_angle_alpha                 89.952979
_cell_angle_beta                  89.99667
_cell_angle_gamma                 120.136416
_cell_volume                      3844.30305573

loop_
_atom_site_label
_atom_site_type_symbol
_atom_type_description
_atom_site_fract_x
_atom_site_fract_y
_atom_site_fract_z
_atom_type_partial_charge
C1    C     C_R   0.561122 0.453704 0.823199 0.540018
C2    C     C_R   0.457037 0.558952 0.177897 0.539547
C3    C     C_R   0.935719 0.284997 0.466568 0.019924
C4    C     C_R   0.269836 0.915649 0.018038 0.026667
C5    C     C_R   0.708816 0.599757 0.463858 0.022145
C6    C     C_R   0.368308 0.097356 0.516835 0.023964
C7    C     C_R   0.052529 0.338057 0.967156 0.019941
C8    C     C_R   0.725832 0.616748 0.515384 0.023899
C9    C     C_R   0.285227 0.945008 0.966991 0.020220
C10   C     C_R   0.905778 0.270392 0.517436 0.023697
C11   C     C_R   0.672855 0.708184 0.970784 0.023958
C12   C     C_3   0.142013 0.287824 0.041373 -0.279337
C13   C     C_R   0.438040 0.891029 0.323230 0.539218
C14   C     C_3   0.055762 0.182206 0.073980 -0.466037
C15   C     C_3   0.266691 0.087758 0.434194 -0.285930
C16   C     C_3   0.331148 0.210536 0.408384 -0.432332
C17   C     C_3   0.782127 0.820713 0.049775 -0.290109
C18   C     C_3   0.754276 0.921680 0.057288 -0.442917
C19   C     C_3   0.918817 0.177777 0.435591 -0.282456
C20   C     C_3   0.796977 0.116528 0.409321 -0.434389
C21   C     C_3   0.144499 0.854015 0.040914 -0.278522
C22   C     C_3   0.124548 0.942582 0.071331 -0.465244
C23   C     C_3   0.808412 0.608155 0.430414 -0.279255
C24   C     C_R   0.103596 0.543601 0.177685 0.539050
C25   C     C_3   0.772908 0.485127 0.407535 -0.425909
C26   C     C_3   0.314400 0.169380 0.538724 -0.273913
C27   C     C_3   0.201124 0.088980 0.568760 -0.456259
C28   C     C_3   0.057551 0.240004 0.936840 -0.284833
C29   C     C_3   0.179468 0.288266 0.911433 -0.435989
C30   C     C_3   0.848603 0.706876 0.536825 -0.279895
C31   C     C_3   0.845155 0.810687 0.563042 -0.461086
C32   C     C_3   0.181054 0.934970 0.935958 -0.287616
C33   C     C_3   0.110804 0.811581 0.911192 -0.433692
C34   C     C_3   0.835968 0.144375 0.539933 -0.275240
C35   C     C_R   0.967795 0.471274 0.976319 0.035571
C36   C     C_3   0.917604 0.114769 0.570657 -0.460065
C37   C     C_3   0.749029 0.820758 0.939355 -0.280205
C38   C     C_3   0.672284 0.871791 0.919511 -0.425775
C39   C     C_R   0.478352 0.987111 0.527708 0.038124
C40   C     C_R   0.531801 0.489275 0.977787 0.041666
C41   C     C_R   0.006960 0.491565 0.527008 0.039558
C42   C     C_R   0.503985 0.039802 0.977133 0.038197
C43   C     C_R   0.507107 0.514254 0.527332 0.034575
C44   C     C_R   0.469154 0.963521 0.476870 0.033867
C45   C     C_R   0.896810 0.440684 0.677824 0.537649
C46   C     C_R   0.989182 0.479127 0.027332 0.040177
C47   C     C_R   0.492625 0.521767 0.476375 0.027915
C48   C     C_R   0.489752 0.017542 0.028092 0.041479
C49   C     C_R   0.030035 0.505290 0.476149 0.033789
C50   C     C_R   0.526270 0.500184 0.029139 0.045875
C51   C     C_R   0.864838 0.585731 0.986297 -0.139091
C52   C     C_R   0.575082 0.866217 0.539117 -0.135457
C53   C     C_R   0.404433 0.271142 0.985918 -0.139269
C54   C     C_R   0.115538 0.710851 0.536951 -0.137175
C55   C     C_R   0.721268 0.156198 0.988261 -0.135599
C56   C     C_R   0.546432 0.108024 0.823121 0.540084
C57   C     C_R   0.290997 0.426855 0.539561 -0.132593
C58   C     C_R   0.566526 0.843315 0.488457 -0.134058
C59   C     C_R   0.884427 0.592325 0.037072 -0.136709
C60   C     C_R   0.277115 0.436657 0.488915 -0.132379
C61   C     C_R   0.707272 0.137443 0.039133 -0.132922
C62   C     C_R   0.137820 0.724363 0.486311 -0.140574
C63   C     C_R   0.395819 0.282778 0.036833 -0.138565
C64   C     C_R   0.889765 0.523988 0.904700 -0.143709
C65   C     C_R   0.556958 0.976412 0.608866 -0.155579
C66   C     C_R   0.471603 0.362322 0.904724 -0.142024
C67   C     C_R   0.559154 0.456757 0.678038 0.537796
C68   C     C_R   0.014511 0.581583 0.607676 -0.156301
C69   C     C_R   0.635660 0.120453 0.905796 -0.143048
C70   C     C_R   0.419500 0.444441 0.609342 -0.156369
C71   C     C_R   0.513080 0.875902 0.405987 -0.144162
C72   C     C_R   0.984508 0.564273 0.107764 -0.156519
C73   C     C_R   0.362430 0.488892 0.406162 -0.145733
C74   C     C_R   0.579493 0.025609 0.108862 -0.154015
C75   C     C_R   0.112651 0.636593 0.404724 -0.140405
C76   C     C_R   0.429638 0.412688 0.108415 -0.154244
C77   C     C_R   0.055925 0.520421 0.127038 -0.008933
C78   C     C_R   0.893208 0.439209 0.822857 0.539862
C79   C     C_R   0.464500 0.928285 0.374782 -0.013677
C80   C     C_R   0.485076 0.529111 0.128637 -0.009242
C81   C     C_R   0.068753 0.534565 0.374270 -0.020823
C82   C     C_R   0.464694 0.945609 0.127177 -0.006077
C83   C     C_R   0.462729 0.533183 0.374593 -0.015250
C84   C     C_R   0.521166 0.055527 0.627223 -0.009022
C85   C     C_R   0.933982 0.466928 0.874048 -0.012655
C86   C     C_R   0.534476 0.478632 0.627351 -0.009839
C87   C     C_R   0.534493 0.070203 0.874751 -0.011727
C88   C     C_R   0.942910 0.465763 0.627007 -0.008299
C89   C     C_R   0.543428 0.102699 0.677948 0.537067
C90   C     C_R   0.533533 0.465496 0.874891 -0.012479
C91   C     C_R   0.907062 0.527119 0.955699 0.005002
C92   C     C_R   0.535538 0.941500 0.558933 0.012201
C93   C     C_R   0.468952 0.373647 0.956018 0.006388
C94   C     C_R   0.047393 0.595244 0.557552 0.013623
C95   C     C_R   0.620984 0.105508 0.956945 0.006377
C96   C     C_R   0.405347 0.463299 0.559145 0.009167
C97   C     C_R   0.516516 0.893787 0.457025 0.005049
C98   C     C_R   0.950673 0.543766 0.057786 0.013879
C99   C     C_R   0.376727 0.482791 0.457089 0.002073
C100  C     C_R   0.452730 0.561825 0.323288 0.539735
C101  C     C_R   0.592655 0.062036 0.059121 0.016947
C102  C     C_R   0.093945 0.622708 0.455650 0.007097
C103  C     C_R   0.451622 0.397529 0.058584 0.014682
C104  C     C_R   0.993891 0.411794 0.894620 -0.142486
C105  C     C_R   0.459177 0.094229 0.596532 -0.131470
C106  C     C_R   0.592223 0.579846 0.896641 -0.145392
C107  C     C_R   0.908323 0.364675 0.596876 -0.132920
C108  C     C_R   0.419316 0.007182 0.895049 -0.141018
C109  C     C_R   0.634894 0.537298 0.596117 -0.130387
C110  C     C_R   0.416921 0.995439 0.394659 -0.145465
C111  C     C_R   0.440300 0.896961 0.177795 0.538430
C112  C     C_R   0.086992 0.450552 0.097160 -0.132036
C113  C     C_R   0.576278 0.569750 0.393760 -0.151527
C114  C     C_R   0.363453 0.909926 0.096871 -0.128399
C115  C     C_R   0.006725 0.419368 0.394675 -0.155186
C116  C     C_R   0.571040 0.626757 0.100344 -0.131820
C117  C     C_R   0.007022 0.408168 0.945808 -0.005267
C118  C     C_R   0.434600 0.059879 0.547083 -0.001146
C119  C     C_R   0.597261 0.593953 0.948160 -0.001385
C120  C     C_R   0.940140 0.374627 0.547138 -0.004257
C121  C     C_R   0.401851 0.995508 0.946199 -0.000702
C122  C     C_R   0.108130 0.546528 0.323058 0.537978
C123  C     C_R   0.623445 0.557825 0.546496 0.004329
C124  C     C_R   0.413728 0.010228 0.445667 -0.003551
C125  C     C_R   0.052716 0.426432 0.047643 -0.002823
C126  C     C_R   0.593106 0.562987 0.444449 0.000259
C127  C     C_R   0.373242 0.947189 0.047752 0.000898
C128  C     C_R   0.989238 0.402223 0.445624 -0.011877
C129  C     C_R   0.593962 0.613872 0.051093 -0.004165
C130  C     C_R   0.080904 0.351563 0.018252 0.025912
C131  C     C_R   0.353526 0.067506 0.465940 0.021210
C132  C     C_R   0.679540 0.713946 0.023134 0.021102
Cr1   Cr    Cr6+3 0.487630 0.241180 0.750000 1.006921
Cr2   Cr    Cr6+3 0.753550 0.512370 0.750000 1.007439
Cr3   Cr    Cr6+3 0.758820 0.246450 0.750000 1.006574
Cr4   Cr    Cr6+3 0.241180 0.487630 0.250000 1.005924
Cr5   Cr    Cr6+3 0.512370 0.753550 0.250000 1.007440
Cr6   Cr    Cr6+3 0.246450 0.758820 0.250000 1.006264
H1    H     H_    0.958880 0.616830 0.130893 0.110173
H2    H     H_    0.725330 0.174575 0.890399 0.135174
H3    H     H_    0.041910 0.659914 0.631020 0.110340
H4    H     H_    0.428424 0.273020 0.888281 0.135561
H5    H     H_    0.853616 0.640931 0.059799 0.115157
H6    H     H_    0.601880 0.788725 0.473681 0.124765
H7    H     H_    0.340959 0.202681 0.058757 0.118027
H8    H     H_    0.186604 0.814368 0.470882 0.122166
H9    H     H_    0.786801 0.175087 0.062329 0.119416
H10   H     H_    0.188025 0.404413 0.474347 0.129004
H11   H     H_    0.616616 0.828741 0.562546 0.117513
H12   H     H_    0.545418 0.818994 0.390764 0.138244
H13   H     H_    0.821251 0.630637 0.970382 0.123531
H14   H     H_    0.211981 0.387625 0.563110 0.119791
H15   H     H_    0.810638 0.206749 0.973145 0.126167
H16   H     H_    0.147745 0.790890 0.559692 0.118484
H17   H     H_    0.355772 0.182556 0.969517 0.121443
H18   H     H_    0.141761 0.417550 0.113229 0.150709
H19   H     H_    0.379636 0.032973 0.369283 0.134231
H20   H     H_    0.613712 0.716565 0.115832 0.152346
H21   H     H_    0.974317 0.343767 0.369756 0.138031
H22   H     H_    0.276100 0.849362 0.112326 0.146640
H23   H     H_    0.366796 0.335828 0.130408 0.110489
H24   H     H_    0.651754 0.607280 0.368517 0.133258
H25   H     H_    0.432649 0.154702 0.612143 0.147810
H26   H     H_    0.026037 0.368116 0.869897 0.135873
H27   H     H_    0.722736 0.561225 0.610466 0.145239
H28   H     H_    0.343735 0.970686 0.870034 0.134194
H29   H     H_    0.852911 0.276899 0.613111 0.150766
H30   H     H_    0.639648 0.656565 0.872453 0.134936
H31   H     H_    0.995958 0.104487 0.050222 0.143068
H32   H     H_    0.108101 0.155723 0.098395 0.137733
H33   H     H_    0.999522 0.205271 0.097592 0.159045
H34   H     H_    0.164789 0.726506 0.389106 0.137660
H35   H     H_    0.180466 0.253385 0.013782 0.156256
H36   H     H_    0.221429 0.353477 0.062580 0.148313
H37   H     H_    0.389713 0.282198 0.434768 0.170609
H38   H     H_    0.388784 0.211389 0.377741 0.144604
H39   H     H_    0.263430 0.231370 0.392963 0.141984
H40   H     H_    0.220433 0.014659 0.406531 0.131294
H41   H     H_    0.190161 0.079481 0.456313 0.135591
H42   H     H_    0.778649 0.978329 0.023680 0.156435
H43   H     H_    0.657048 0.884009 0.065119 0.173670
H44   H     H_    0.806646 0.978888 0.088972 0.131068
H45   H     H_    0.657604 0.056179 0.132531 0.108087
H46   H     H_    0.799079 0.792600 0.086301 0.130892
H47   H     H_    0.869148 0.853819 0.030257 0.126416
H48   H     H_    0.724187 0.101118 0.435446 0.168860
H49   H     H_    0.795361 0.172963 0.378605 0.146187
H50   H     H_    0.778722 0.028480 0.393973 0.141692
H51   H     H_    0.992864 0.205466 0.408397 0.131603
H52   H     H_    0.927944 0.110729 0.458323 0.137006
H53   H     H_    0.193474 0.985244 0.100747 0.160476
H54   H     H_    0.129227 0.014054 0.046690 0.143279
H55   H     H_    0.034361 0.894374 0.088999 0.132586
H56   H     H_    0.274153 0.462814 0.391338 0.138314
H57   H     H_    0.072046 0.812726 0.013159 0.156789
H58   H     H_    0.129999 0.776365 0.063565 0.148729
H59   H     H_    0.770329 0.422431 0.436547 0.166941
H60   H     H_    0.683734 0.442424 0.389219 0.150014
H61   H     H_    0.839935 0.496936 0.379101 0.147651
H62   H     H_    0.831525 0.677672 0.401386 0.128302
H63   H     H_    0.892450 0.634713 0.450555 0.155717
H64   H     H_    0.219161 0.039983 0.598274 0.159154
H65   H     H_    0.168451 0.145639 0.586272 0.136954
H66   H     H_    0.129727 0.021885 0.544149 0.138311
H67   H     H_    0.603425 0.944992 0.632729 0.110075
H68   H     H_    0.382269 0.244166 0.561354 0.148952
H69   H     H_    0.291685 0.217112 0.510574 0.160578
H70   H     H_    0.185743 0.340713 0.877869 0.148217
H71   H     H_    0.253025 0.348666 0.936698 0.173372
H72   H     H_    0.192138 0.211759 0.900464 0.129091
H73   H     H_    0.037788 0.160749 0.960117 0.131932
H74   H     H_    0.984119 0.200319 0.909030 0.131704
H75   H     H_    0.819706 0.859954 0.536316 0.149336
H76   H     H_    0.780396 0.778313 0.594222 0.159627
H77   H     H_    0.935721 0.874254 0.578164 0.132848
H78   H     H_    0.838825 0.562798 0.889147 0.135905
H79   H     H_    0.878955 0.661034 0.562662 0.152581
H80   H     H_    0.919233 0.751266 0.508373 0.142009
H81   H     H_    0.158107 0.806708 0.877800 0.147695
H82   H     H_    0.100497 0.739755 0.936926 0.174311
H83   H     H_    0.020367 0.794809 0.900052 0.132073
H84   H     H_    0.119547 0.952880 0.958525 0.131905
H85   H     H_    0.213274 0.007377 0.907616 0.129001
H86   H     H_    0.974917 0.189091 0.596414 0.157295
H87   H     H_    0.861364 0.032098 0.592762 0.139212
H88   H     H_    0.976923 0.098709 0.545838 0.141361
H89   H     H_    0.342104 0.401278 0.633700 0.110679
H90   H     H_    0.760515 0.136527 0.562299 0.148695
H91   H     H_    0.789392 0.072456 0.512188 0.157556
H92   H     H_    0.599799 0.806701 0.894813 0.152595
H93   H     H_    0.630015 0.893041 0.950723 0.173973
H94   H     H_    0.730205 0.955885 0.898405 0.135531
H95   H     H_    0.825004 0.894433 0.959513 0.135878
H96   H     H_    0.794349 0.801100 0.908861 0.123108
O1    O     O_R   0.460870 0.120930 0.805240 -0.524116
O2    O     O_R   0.120930 0.460870 0.194760 -0.522340
O3    O     O_R   0.539130 0.660060 0.305240 -0.522749
O4    O     O_R   0.339940 0.879070 0.194760 -0.521384
O5    O     O_R   0.498910 0.350470 0.801870 -0.503040
O6    O     O_R   0.851560 0.501090 0.698130 -0.501239
O7    O     O_R   0.649530 0.148440 0.801870 -0.503372
O8    O     O_R   0.498910 0.350470 0.698130 -0.500518
O9    O     O_R   0.851560 0.501090 0.801870 -0.503411
O10   O     O_R   0.649530 0.148440 0.698130 -0.500481
O11   O     O_R   0.350470 0.498910 0.301870 -0.504042
O12   O     O_R   0.660060 0.539130 0.694760 -0.519777
O13   O     O_R   0.501090 0.851560 0.198130 -0.497859
O14   O     O_R   0.148440 0.649530 0.301870 -0.503447
O15   O     O_R   0.350470 0.498910 0.198130 -0.500085
O16   O     O_R   0.501090 0.851560 0.301870 -0.504225
O17   O     O_R   0.148440 0.649530 0.198130 -0.500395
O18   O     O_3   0.666667 0.333333 0.750000 -0.242427
O19   O     O_3   0.333333 0.666667 0.250000 -0.243332
O20   O     O_R   0.879070 0.339940 0.805240 -0.524901
O21   O     O_R   0.460870 0.120930 0.694760 -0.520408
O22   O     O_R   0.660060 0.539130 0.805240 -0.524411
O23   O     O_R   0.879070 0.339940 0.694760 -0.521713
O24   O     O_R   0.120930 0.460870 0.305240 -0.525080
O25   O     O_R   0.539130 0.660060 0.194760 -0.522591
O26   O     O_R   0.339940 0.879070 0.305240 -0.524108

loop_
_geom_bond_atom_site_label_1
_geom_bond_atom_site_label_2
_ccdc_geom_bond_type
C65   C92   A    
C56   O7    A    
C13   C79   S    
C1    C90   S    
C4    C21   S    
C15   H41   S    
C106  C119  A    
C27   H64   S    
C83   C113  A    
C46   C125  A    
C61   C101  A    
C26   H69   S    
Cr2   O18   S    
C108  C121  A    
C14   H32   S    
C60   C99   A    
C11   C119  A    
C11   C132  A    
Cr1   O21   S    
C71   C79   A    
Cr5   O16   S    
C74   C101  A    
C29   H72   S    
C38   H92   S    
C31   H76   S    
C72   C98   A    
C1    O5    A    
C28   H73   S    
C13   O16   A    
C71   C97   A    
C26   C27   S    
C37   C38   S    
C29   H70   S    
C12   C130  S    
C23   H63   S    
C27   H65   S    
C12   H36   S    
C28   C29   S    
C13   O26   A    
C30   C31   S    
Cr5   O13   S    
C67   O12   A    
C40   C50   A    
C71   H12   S    
C31   H77   S    
C18   H44   S    
C15   C16   S    
C20   H49   S    
C57   H14   S    
C55   C61   A    
C47   C99   A    
C73   C99   A    
Cr1   O1    S    
C11   C37   S    
C7    C117  A    
C7    C130  A    
C100  O11   A    
C9    C32   S    
C51   C91   A    
C113  H24   S    
C125  C130  A    
C122  O24   A    
C72   H1    S    
C116  C129  A    
C80   C116  A    
C17   H47   S    
C52   H11   S    
C57   C96   A    
C5    C126  A    
C75   C102  A    
C9    C121  A    
C105  H25   S    
C22   H55   S    
C3    C19   S    
C25   H60   S    
Cr6   O19   S    
C36   H86   S    
C69   C87   A    
C1    O22   A    
C8    C123  A    
Cr4   O15   S    
C30   H80   S    
C129  C132  A    
C110  C124  A    
C16   H38   S    
C76   C103  A    
Cr5   O25   S    
C2    O25   A    
C46   C98   A    
C18   H42   S    
C50   C103  A    
C21   H58   S    
C21   C22   S    
C56   C87   S    
C17   C132  S    
C76   H23   S    
C26   H68   S    
C58   C97   A    
C29   H71   S    
C74   C82   A    
C14   H31   S    
C41   C49   A    
C67   O8    A    
C17   C18   S    
Cr6   O26   S    
C33   H81   S    
Cr6   O14   S    
C52   C58   A    
C107  H29   S    
C10   C120  A    
Cr3   O23   S    
C111  O4    A    
C54   C94   A    
C87   C108  A    
C53   C93   A    
C42   C95   A    
C78   O20   A    
Cr4   O19   S    
C37   H96   S    
C86   C109  A    
C25   H59   S    
C70   H89   S    
C82   C114  A    
C66   C90   A    
Cr6   O17   S    
C2    O15   A    
C49   C102  A    
C88   C107  A    
C3    C128  A    
C109  C123  A    
C65   C84   A    
C38   H94   S    
C113  C126  A    
C54   C62   A    
C18   H43   S    
C20   H48   S    
C23   H62   S    
C44   C124  A    
C68   C94   A    
C115  C128  A    
C27   H66   S    
C124  C131  A    
C115  H21   S    
C56   O1    A    
C106  H30   S    
Cr3   O10   S    
C77   C112  A    
C70   C96   A    
C51   H13   S    
C116  H20   S    
C72   C77   A    
C25   H61   S    
C50   C129  A    
Cr1   O8    S    
C20   H50   S    
C44   C97   A    
C41   C94   A    
C5    C23   S    
C40   C93   A    
C4    C9    A    
C33   H83   S    
C81   C115  A    
C43   C96   A    
C89   O10   A    
C15   C131  S    
C68   H3    S    
C10   C34   S    
C42   C48   A    
C21   H57   S    
C37   H95   S    
C110  H19   S    
Cr1   O18   S    
C114  H22   S    
C112  C125  A    
C39   C44   A    
C85   C104  A    
C109  H27   S    
C19   H51   S    
C30   H79   S    
C66   H4    S    
C45   C88   S    
C16   H37   S    
C55   C95   A    
C12   C14   S    
C63   H7    S    
C53   H17   S    
C83   C100  S    
C66   C93   A    
C112  H18   S    
C68   C88   A    
C48   C101  A    
C105  C118  A    
C35   C117  A    
C34   H91   S    
C51   C59   A    
C84   C89   S    
C22   H54   S    
C63   C103  A    
C70   C86   A    
Cr3   O18   S    
C43   C123  A    
C39   C92   A    
C32   H85   S    
C16   H39   S    
C78   C85   S    
C47   C126  A    
C122  O14   A    
C104  C117  A    
C33   H82   S    
C55   H15   S    
C49   C128  A    
C108  H28   S    
C67   C86   S    
C36   H88   S    
C24   O2    A    
C79   C110  A    
Cr2   O6    S    
C64   H78   S    
C24   O17   A    
C75   C81   A    
C76   C80   A    
C14   H33   S    
C69   C95   A    
C54   H16   S    
C5    C8    A    
C32   H84   S    
C36   H87   S    
C45   O23   A    
C38   H93   S    
C31   H75   S    
C41   C120  A    
C28   H74   S    
C39   C118  A    
C60   H10   S    
C78   O9    A    
C6    C131  A    
C81   C122  S    
C8    C30   S    
C82   C111  S    
Cr3   O7    S    
C19   C20   S    
C61   H9    S    
C4    C127  A    
Cr2   O22   S    
C74   H45   S    
C3    C10   A    
C32   C33   S    
C48   C127  A    
Cr4   O24   S    
C114  C127  A    
C53   C63   A    
C17   H46   S    
C107  C120  A    
C104  H26   S    
C6    C26   S    
C69   H2    S    
C100  O3    A    
C84   C105  A    
Cr4   O2    S    
Cr2   O12   S    
Cr4   O11   S    
Cr6   O4    S    
C34   C36   S    
C23   C25   S    
Cr3   O20   S    
Cr5   O3    S    
C34   H90   S    
Cr2   O9    S    
C45   O6    A    
C2    C80   S    
C7    C28   S    
C90   C106  A    
C59   H5    S    
C19   H52   S    
C58   H6    S    
C24   C77   S    
C57   C60   A    
C40   C119  A    
C65   H67   S    
C111  O13   A    
C62   H8    S    
C15   H40   S    
C75   H34   S    
C59   C98   A    
Cr1   O5    S    
C64   C91   A    
C62   C102  A    
C22   H53   S    
C73   H56   S    
C35   C46   A    
C43   C47   A    
C64   C85   A    
C73   C83   A    
C52   C92   A    
Cr5   O19   S    
C42   C121  A    
C6    C118  A    
C12   H35   S    
C89   O21   A    
C35   C91   A    
