data_mof_unit_33087.cif
_audit_creation_date              2012-12-10T17:51:31-0500
_audit_creation_method            fapswitch 2.2
_symmetry_space_group_name_H-M    P1
_symmetry_Int_Tables_number       1
_space_group_crystal_system       triclinic
_cell_length_a                    9.980823
_cell_length_b                    10.677326
_cell_length_c                    16.52321
_cell_angle_alpha                 93.541932
_cell_angle_beta                  82.669996
_cell_angle_gamma                 89.909803
_cell_volume                      1743.04807936

loop_
_atom_site_label
_atom_site_type_symbol
_atom_type_description
_atom_site_fract_x
_atom_site_fract_y
_atom_site_fract_z
_atom_type_partial_charge
Br1   Br    Br    0.789304 0.856695 0.409832 -0.486755
Br2   Br    Br    0.357911 0.680013 0.245610 -0.469849
Br3   Br    Br    0.250675 0.168400 0.853345 -0.512160
C1    C     C_R   0.501592 0.737221 0.488023 0.894110
C2    C     C_R   0.539804 0.469807 0.258888 -0.104839
C3    C     C_R   0.255863 0.881643 0.455049 -0.100990
C4    C     C_R   0.478362 0.495681 0.653176 0.845117
C5    C     C_R   0.133059 0.944545 0.476461 -0.070655
C6    C     C_R   0.127505 0.056478 0.524379 -0.124464
C7    C     C_R   0.247059 0.112835 0.542012 -0.156381
C8    C     C_R   0.373792 0.058842 0.509091 0.092648
C9    C     C_R   0.376456 0.934437 0.477692 0.044975
C10   C     C_R   0.500567 0.868227 0.469450 -0.174873
C11   C     C_R   0.622115 0.933801 0.458761 0.274452
C12   C     C_R   0.371697 0.359895 0.756510 -0.154237
C13   C     C_R   0.619771 0.061814 0.474867 -0.244105
C14   C     C_R   0.497433 0.124697 0.502428 -0.167324
C15   C     C_R   0.835083 0.685155 0.592062 -0.087601
C16   C     C_R   0.498858 0.259824 0.503934 0.879326
C17   C     C_R   0.889648 0.792189 0.624792 -0.194303
C18   C     C_R   0.026776 0.798471 0.625541 -0.220751
C19   C     C_R   0.109403 0.694687 0.597392 -0.009960
C20   C     C_R   0.060334 0.593142 0.547560 0.103941
C21   C     C_R   0.916401 0.591947 0.545854 0.177878
C22   C     C_R   0.936948 0.412766 0.455636 -0.066179
C23   C     C_R   0.463785 0.486546 0.127650 -0.131982
C24   C     C_R   0.079941 0.412384 0.454250 -0.010395
C25   C     C_R   0.521628 0.497902 0.346419 0.910927
C26   C     C_R   0.458582 0.459688 0.736758 -0.028454
C27   C     C_R   0.533011 0.515467 0.794661 -0.174215
C28   C     C_R   0.518427 0.473246 0.872955 -0.174045
C29   C     C_R   0.433253 0.371472 0.893243 -0.002096
C30   C     C_R   0.359869 0.314109 0.834063 0.265847
C31   C     C_2   0.210812 0.682596 0.652318 0.541694
C32   C     C_2   0.158544 0.315486 0.399763 0.462845
C33   C     C_2   0.280930 0.329143 0.024234 0.513001
C34   C     C_R   0.463318 0.532321 0.208106 0.263479
C35   C     C_R   0.621365 0.366270 0.227534 -0.214537
C36   C     C_R   0.619510 0.319632 0.147247 -0.103962
C37   C     C_R   0.535871 0.376204 0.098363 0.139805
C38   C     C_2   0.418796 0.333221 0.977857 -0.030849
C39   C     C_2   0.531997 0.326854 0.014072 -0.200877
H1    H     H_    0.601043 0.591939 0.779471 0.148865
H2    H     H_    0.824461 0.866204 0.655747 0.165619
H3    H     H_    0.065189 0.877331 0.660115 0.166814
H4    H     H_    0.680642 0.317374 0.266498 0.174820
H5    H     H_    0.629519 0.315570 0.976503 0.158962
H6    H     H_    0.406172 0.536242 0.088251 0.153770
H7    H     H_    0.317075 0.314196 0.710479 0.158085
H8    H     H_    0.573747 0.520493 0.918052 0.160120
H9    H     H_    0.301763 0.738537 0.645817 0.039246
H10   H     H_    0.266371 0.319707 0.386233 0.142578
H11   H     H_    0.195410 0.366278 0.998562 0.082186
H12   H     H_    0.679529 0.237412 0.124168 0.168005
H13   H     H_    0.255683 0.793189 0.419494 0.206128
H14   H     H_    0.041623 0.902434 0.460016 0.203778
H15   H     H_    0.031020 0.100882 0.546350 0.153557
H16   H     H_    0.238560 0.198591 0.580682 0.163373
H17   H     H_    0.713844 0.112107 0.463471 0.199469
H18   H     H_    0.888703 0.342744 0.419250 0.182559
H19   H     H_    0.728641 0.678115 0.605505 0.196548
N1    N     N_R   0.857140 0.501200 0.500750 -0.133691
N2    N     N_R   0.142740 0.501280 0.500770 -0.167267
O1    O     O_R   0.385310 0.683220 0.500000 -0.662811
O2    O     O_2   0.102089 0.227986 0.367441 -0.560047
O3    O     O_2   0.261303 0.281667 0.090047 -0.508737
O4    O     O_R   0.614640 0.683250 0.500010 -0.596273
O5    O     O_R   0.371780 0.500010 0.615800 -0.600077
O6    O     O_R   0.601110 0.500030 0.615800 -0.638156
O7    O     O_R   0.385360 0.316750 0.499990 -0.662773
O8    O     O_R   0.614690 0.316780 0.500000 -0.619818
O9    O     O_R   0.398890 0.499970 0.384200 -0.620079
O10   O     O_R   0.628220 0.499990 0.384200 -0.589933
O11   O     O_2   0.185143 0.621703 0.712547 -0.562792
Zn1   Zn    Zn3+2 0.346870 0.499980 0.499990 0.938341
Zn2   Zn    Zn3+2 0.653130 0.500020 0.500010 0.966423

loop_
_geom_bond_atom_site_label_1
_geom_bond_atom_site_label_2
_ccdc_geom_bond_type
C4    C26   S    
C2    C34   A    
C38   C39   D    
C16   O8    A    
C3    H13   S    
C5    H14   S    
O5    Zn1   S    
C31   H9    S    
C15   C21   A    
C7    H16   S    
C3    C9    A    
C27   C28   A    
C33   O3    D    
C36   H12   S    
Br3   C30   S    
O6    Zn2   S    
C1    C10   S    
C33   H11   S    
C4    O5    A    
C13   C14   A    
C29   C38   S    
C22   H18   S    
C6    C7    A    
C6    H15   S    
C23   H6    S    
C39   H5    S    
C20   N2    A    
C18   C19   A    
N1    Zn2   S    
C33   C38   S    
C25   O9    A    
O9    Zn1   S    
C25   O10   A    
C17   H2    S    
C12   C26   A    
C18   H3    S    
C35   C36   A    
C19   C31   S    
C2    C35   A    
C36   C37   A    
C5    C6    A    
C3    C5    A    
C24   C32   S    
C13   H17   S    
C26   C27   A    
C2    C25   S    
C28   C29   A    
C20   C21   A    
C15   H19   S    
C9    C10   A    
C24   N2    A    
C31   O11   D    
O10   Zn2   S    
C11   C13   A    
C27   H1    S    
C28   H8    S    
O7    Zn1   S    
C8    C14   A    
C21   N1    A    
C4    O6    A    
C1    O4    A    
C8    C9    A    
C23   C34   A    
O4    Zn2   S    
C22   C24   A    
C1    O1    A    
C29   C30   A    
Br2   C34   S    
C23   C37   A    
O8    Zn2   S    
N2    Zn1   S    
C37   C39   S    
C14   C16   S    
O1    Zn1   S    
C15   C17   A    
C22   N1    A    
C12   H7    S    
C35   H4    S    
C7    C8    A    
C17   C18   A    
C32   H10   S    
C32   O2    D    
C19   C20   A    
C16   O7    A    
Br1   C11   S    
C10   C11   A    
C12   C30   A    
