data_mof_unit_65615.cif
_audit_creation_date              2012-12-10T17:36:44-0500
_audit_creation_method            fapswitch 2.2
_symmetry_space_group_name_H-M    P1
_symmetry_Int_Tables_number       1
_space_group_crystal_system       triclinic
_cell_length_a                    44.028347
_cell_length_b                    30.13576
_cell_length_c                    30.127705
_cell_angle_alpha                 89.930267
_cell_angle_beta                  133.656765
_cell_angle_gamma                 89.959994
_cell_volume                      28920.8313679

loop_
_atom_site_label
_atom_site_type_symbol
_atom_type_description
_atom_site_fract_x
_atom_site_fract_y
_atom_site_fract_z
_atom_type_partial_charge
C1    C     C_R   0.500222 0.500032 0.913514 0.941316
C2    C     C_R   0.499836 0.499986 0.086530 0.941372
C3    C     C_R   0.000222 0.000032 0.913514 0.941146
C4    C     C_R   0.999836 0.999986 0.086530 0.941738
C5    C     C_3   0.226347 0.495816 0.774878 0.444430
C6    C     C_3   0.773556 0.496479 0.224783 0.443093
C7    C     C_3   0.726348 0.995816 0.774878 0.444413
C8    C     C_3   0.273678 0.999001 0.224979 0.444234
C9    C     C_3   0.274646 0.490143 0.821948 0.359018
C10   C     C_3   0.725088 0.492068 0.177457 0.359933
C11   C     C_3   0.774646 0.990143 0.821948 0.359011
C12   C     C_3   0.225415 0.993110 0.177546 0.358397
C13   C     C_1   0.163046 0.500068 0.663725 0.141695
C14   C     C_1   0.836952 0.499679 0.336070 0.146193
C15   C     C_1   0.663046 0.000068 0.663725 0.141694
C16   C     C_1   0.336961 0.999965 0.336301 0.141596
C17   C     C_1   0.337043 0.499929 0.836768 0.237872
C18   C     C_1   0.662955 0.499605 0.163511 0.235662
C19   C     C_1   0.837043 0.999929 0.836768 0.237874
C20   C     C_1   0.162961 0.999555 0.163199 0.237764
C21   C     C_1   0.374555 0.499998 0.874345 -0.088507
C22   C     C_1   0.625443 0.499734 0.125869 -0.088580
C23   C     C_1   0.874555 0.999998 0.874345 -0.088509
C24   C     C_1   0.125448 0.999717 0.125627 -0.088521
C25   C     C_R   0.527047 0.469699 0.684805 0.475830
C26   C     C_R   0.473008 0.469823 0.315332 0.475456
C27   C     C_R   0.027049 0.969699 0.684807 0.475780
C28   C     C_R   0.973007 0.969823 0.315332 0.475467
C29   C     C_R   0.500528 0.499093 0.635247 -0.212286
C30   C     C_R   0.499515 0.499072 0.364789 -0.208151
C31   C     C_R   0.000527 0.999089 0.635247 -0.212216
C32   C     C_R   0.999515 0.999072 0.364789 -0.208133
C33   C     C_R   0.474205 0.528321 0.631311 -0.284540
C34   C     C_R   0.525967 0.528053 0.368755 -0.282700
C35   C     C_R   0.974198 0.028312 0.631305 -0.284479
C36   C     C_R   0.025968 0.028053 0.368756 -0.282712
C37   C     C_R   0.474309 0.529741 0.677701 0.022502
C38   C     C_R   0.525939 0.529423 0.322444 0.021669
C39   C     C_R   0.974301 0.029732 0.677693 0.022482
C40   C     C_R   0.025940 0.029422 0.322445 0.021671
C41   C     C_R   0.501079 0.500249 0.728016 -0.048988
C42   C     C_R   0.499018 0.500206 0.272043 -0.048767
C43   C     C_R   0.001077 0.000245 0.728014 -0.048986
C44   C     C_R   0.999018 0.000206 0.272043 -0.048765
C45   C     C_R   0.418996 0.500020 0.918921 0.880287
C46   C     C_R   0.581003 0.499935 0.081144 0.879926
C47   C     C_R   0.918996 0.000020 0.918921 0.880304
C48   C     C_R   0.081005 0.999932 0.081068 0.879910
C49   C     C_R   0.527559 0.470311 0.731650 0.039977
C50   C     C_R   0.472393 0.470519 0.268357 0.038640
C51   C     C_R   0.027561 0.970312 0.731652 0.039967
C52   C     C_R   0.972393 0.970519 0.268357 0.038650
C53   C     C_R   0.448282 0.560152 0.674322 0.550372
C54   C     C_R   0.552193 0.559508 0.325979 0.550873
C55   C     C_R   0.948267 0.060136 0.674308 0.550355
C56   C     C_R   0.052194 0.059507 0.325980 0.550834
C57   C     C_R   0.449563 0.560090 0.722563 -0.312842
C58   C     C_R   0.551037 0.559345 0.277869 -0.312374
C59   C     C_R   0.949547 0.060074 0.722548 -0.312845
C60   C     C_R   0.051038 0.059344 0.277870 -0.312159
C61   C     C_R   0.475580 0.530554 0.771791 0.069340
C62   C     C_R   0.524809 0.530130 0.228501 0.069166
C63   C     C_R   0.975573 0.030547 0.771784 0.069340
C64   C     C_R   0.024810 0.030130 0.228501 0.069083
C65   C     C_R   0.501340 0.500416 0.774654 0.010430
C66   C     C_R   0.498815 0.500338 0.225462 0.010440
C67   C     C_R   0.001338 0.000414 0.774653 0.010429
C68   C     C_R   0.998815 0.000338 0.225462 0.010406
C69   C     C_R   0.527295 0.470263 0.824218 0.007633
C70   C     C_R   0.472696 0.470448 0.175816 0.007242
C71   C     C_R   0.027299 0.970266 0.824222 0.007530
C72   C     C_R   0.972696 0.970448 0.175815 0.007298
C73   C     C_R   0.553383 0.440949 0.827382 -0.144877
C74   C     C_R   0.446424 0.441438 0.172531 -0.144130
C75   C     C_R   0.053389 0.940955 0.827389 -0.144760
C76   C     C_R   0.946424 0.941439 0.172530 -0.144166
C77   C     C_R   0.553697 0.441125 0.781657 -0.180766
C78   C     C_R   0.446085 0.441629 0.218229 -0.181693
C79   C     C_R   0.053702 0.941129 0.781663 -0.180779
C80   C     C_R   0.946084 0.941630 0.218228 -0.181743
C81   C     C_R   0.475997 0.530553 0.818364 -0.295742
C82   C     C_R   0.524416 0.530095 0.181936 -0.296018
C83   C     C_R   0.975991 0.030547 0.818358 -0.295770
C84   C     C_R   0.024416 0.030094 0.181936 -0.295636
C85   C     C_R   0.500977 0.500120 0.866474 -0.194268
C86   C     C_R   0.499194 0.499981 0.133676 -0.194241
C87   C     C_R   0.000976 0.000119 0.866474 -0.194350
C88   C     C_R   0.999195 0.999981 0.133677 -0.194388
C89   C     C_3   0.273926 0.545250 0.753893 0.999041
C90   C     C_3   0.725958 0.544204 0.247494 1.001204
C91   C     C_3   0.773926 0.045250 0.753893 0.999052
C92   C     C_3   0.225874 0.043423 0.248915 0.998310
C93   C     C_R   0.526621 0.470001 0.869742 0.579759
C94   C     C_R   0.473380 0.470155 0.130303 0.579689
C95   C     C_R   0.026624 0.970005 0.869747 0.579820
C96   C     C_R   0.973380 0.970155 0.130303 0.579604
C97   C     C_R   0.999988 0.586616 0.499965 0.867309
C98   C     C_R   0.499988 0.086616 0.499966 0.867463
C99   C     C_R   0.081012 0.499830 0.581165 0.885029
C100  C     C_R   0.918988 0.499780 0.418822 0.885551
C101  C     C_R   0.581012 0.999830 0.581165 0.885096
C102  C     C_R   0.418990 0.999834 0.418837 0.886077
C103  C     C_R   0.000177 0.413365 0.500215 0.877870
C104  C     C_R   0.500178 0.913365 0.500215 0.877920
C105  C     C_R   0.500040 0.413017 0.500097 0.840003
C106  C     C_R   0.000040 0.913017 0.500097 0.839937
C107  C     C_R   0.500135 0.499693 0.587038 0.906267
C108  C     C_R   0.499877 0.499690 0.412960 0.906926
C109  C     C_R   0.000134 0.999691 0.587038 0.906581
C110  C     C_R   0.999877 0.999690 0.412960 0.906876
C111  C     C_R   0.499910 0.587020 0.499803 0.920020
C112  C     C_R   0.999910 0.087020 0.499792 0.920125
C113  C     C_R   0.473109 0.342498 0.501537 -0.191717
C114  C     C_R   0.527163 0.342459 0.499045 -0.191500
C115  C     C_R   0.973109 0.842498 0.501538 -0.191764
C116  C     C_R   0.027163 0.842459 0.499044 -0.191513
C117  C     C_R   0.500120 0.365200 0.500269 -0.120634
C118  C     C_R   0.000120 0.865200 0.500268 -0.120602
C119  C     C_R   0.526854 0.296283 0.497819 0.010599
C120  C     C_R   0.473355 0.296317 0.502644 0.010698
C121  C     C_R   0.026854 0.796283 0.497818 0.010597
C122  C     C_R   0.973355 0.796317 0.502644 0.010689
C123  C     C_3   0.274237 0.461935 0.744079 0.297585
C124  C     C_3   0.725965 0.460487 0.254737 0.296732
C125  C     C_3   0.774237 0.961935 0.744079 0.297590
C126  C     C_3   0.225943 0.959587 0.253460 0.298046
C127  C     C_R   0.500090 0.273100 0.500176 -0.088286
C128  C     C_R   0.000090 0.773100 0.500176 -0.088317
C129  C     C_R   0.552619 0.272857 0.494113 0.623456
C130  C     C_R   0.447553 0.272915 0.506242 0.623364
C131  C     C_R   0.052619 0.772857 0.494112 0.623426
C132  C     C_R   0.947554 0.772915 0.506243 0.623331
C133  C     C_R   0.051782 0.726645 0.492636 -0.289526
C134  C     C_R   0.948286 0.726696 0.507503 -0.289631
C135  C     C_R   0.551782 0.226645 0.492638 -0.289467
C136  C     C_R   0.448285 0.226696 0.507502 -0.289436
C137  C     C_R   0.025746 0.703437 0.495706 0.045679
C138  C     C_R   0.974282 0.703463 0.504309 0.045694
C139  C     C_R   0.525747 0.203437 0.495707 0.045701
C140  C     C_R   0.474282 0.203462 0.504309 0.045696
C141  C     C_R   0.000028 0.726678 0.500068 0.057086
C142  C     C_R   0.500028 0.226678 0.500068 0.057091
C143  C     C_R   0.025005 0.657285 0.494693 -0.198067
C144  C     C_R   0.974936 0.657311 0.505154 -0.198055
C145  C     C_R   0.525005 0.157286 0.494693 -0.198028
C146  C     C_R   0.474935 0.157310 0.505153 -0.197749
C147  C     C_R   0.999965 0.634492 0.499900 -0.056934
C148  C     C_R   0.499965 0.134492 0.499900 -0.056912
C149  C     C_R   0.532033 0.657762 0.554871 0.499621
C150  C     C_R   0.466244 0.658142 0.445895 0.486493
C151  C     C_R   0.032023 0.157759 0.554862 0.499689
C152  C     C_R   0.966243 0.158140 0.445883 0.486462
C153  C     C_R   0.499580 0.635197 0.499951 -0.348050
C154  C     C_R   0.999577 0.135196 0.499941 -0.347934
C155  C     C_R   0.464600 0.704633 0.446959 -0.142090
C156  C     C_R   0.533838 0.704224 0.554650 -0.143655
C157  C     C_R   0.964598 0.204632 0.446947 -0.142100
C158  C     C_R   0.033830 0.204221 0.554643 -0.143755
C159  C     C_3   0.225453 0.461374 0.696998 0.353843
C160  C     C_3   0.774731 0.460295 0.302173 0.357379
C161  C     C_3   0.725453 0.961374 0.696998 0.353843
C162  C     C_3   0.274736 0.959224 0.300534 0.354261
C163  C     C_R   0.499406 0.727545 0.500756 -0.214386
C164  C     C_R   0.999402 0.227544 0.500747 -0.214310
C165  C     C_R   0.429253 0.728634 0.395393 0.439355
C166  C     C_R   0.568764 0.727839 0.607160 0.442846
C167  C     C_R   0.929254 0.228634 0.395378 0.439528
C168  C     C_R   0.068755 0.227835 0.607155 0.442706
C169  C     C_R   0.929661 0.275056 0.397020 0.493714
C170  C     C_R   0.068861 0.274267 0.605481 0.497501
C171  C     C_R   0.429659 0.775056 0.397034 0.493601
C172  C     C_R   0.568868 0.774271 0.605484 0.497400
C173  C     C_R   0.964926 0.297585 0.448252 -0.026400
C174  C     C_R   0.034334 0.297229 0.553380 -0.028860
C175  C     C_R   0.464927 0.797585 0.448261 -0.026464
C176  C     C_R   0.534339 0.797232 0.553384 -0.028870
C177  C     C_R   0.999580 0.274009 0.500778 -0.036014
C178  C     C_R   0.499584 0.774011 0.500785 -0.035995
C179  C     C_R   0.965780 0.343700 0.448305 -0.136377
C180  C     C_R   0.034089 0.343394 0.552742 -0.136633
C181  C     C_R   0.465780 0.843700 0.448312 -0.136717
C182  C     C_R   0.534093 0.843396 0.552743 -0.136647
C183  C     C_R   0.000128 0.366001 0.500325 -0.109065
C184  C     C_R   0.500130 0.866002 0.500328 -0.109145
C185  C     C_1   0.125508 0.499914 0.626039 -0.138439
C186  C     C_1   0.874493 0.499666 0.373873 -0.138403
C187  C     C_1   0.625508 0.999914 0.626039 -0.138467
C188  C     C_1   0.374499 0.999867 0.373972 -0.138467
C189  C     C_3   0.291292 0.500189 0.791072 -0.257400
C190  C     C_3   0.708714 0.499897 0.209090 -0.254846
C191  C     C_3   0.791292 0.000190 0.791072 -0.257404
C192  C     C_3   0.208710 0.999829 0.208925 -0.257488
C193  C     C_3   0.224621 0.544833 0.705461 -0.600528
C194  C     C_3   0.775276 0.544053 0.295028 -0.611656
C195  C     C_3   0.724622 0.044833 0.705461 -0.600521
C196  C     C_3   0.275174 0.043138 0.297337 -0.599347
C197  C     C_3   0.208829 0.500402 0.709316 -0.187457
C198  C     C_3   0.791155 0.499980 0.290464 -0.184710
C199  C     C_3   0.708829 0.000403 0.709317 -0.187450
C200  C     C_3   0.291175 0.000212 0.290725 -0.187910
H1    H     H_    0.212209 0.548041 0.658495 0.212911
H2    H     H_    0.788245 0.547052 0.342364 0.215422
H3    H     H_    0.712209 0.048041 0.658495 0.212920
H4    H     H_    0.287569 0.043919 0.344430 0.212994
H5    H     H_    0.209713 0.572497 0.708344 0.227108
H6    H     H_    0.789633 0.571827 0.291152 0.228091
H7    H     H_    0.709713 0.072497 0.708344 0.227106
H8    H     H_    0.289956 0.072018 0.296263 0.227003
H9    H     H_    0.212331 0.466238 0.777133 0.137969
H10   H     H_    0.787030 0.466715 0.221712 0.137807
H11   H     H_    0.712331 0.966237 0.777133 0.137955
H12   H     H_    0.287873 0.970694 0.220915 0.137104
H13   H     H_    0.454254 0.550512 0.592191 0.221319
H14   H     H_    0.546001 0.550065 0.407913 0.221363
H15   H     H_    0.954244 0.050500 0.592182 0.221338
H16   H     H_    0.046002 0.050064 0.407914 0.221357
H17   H     H_    0.430413 0.582521 0.722626 0.151757
H18   H     H_    0.570488 0.581407 0.278042 0.151958
H19   H     H_    0.930387 0.082496 0.722599 0.151763
H20   H     H_    0.070490 0.081406 0.278043 0.152053
H21   H     H_    0.456244 0.553546 0.816680 0.184180
H22   H     H_    0.544317 0.552841 0.183699 0.184072
H23   H     H_    0.956234 0.053537 0.816670 0.184196
H24   H     H_    0.044317 0.052840 0.183700 0.184222
H25   H     H_    0.573608 0.417786 0.865146 0.212940
H26   H     H_    0.426087 0.418483 0.134704 0.213375
H27   H     H_    0.073617 0.917795 0.865157 0.213075
H28   H     H_    0.926086 0.918485 0.134703 0.213357
H29   H     H_    0.574240 0.418045 0.785411 0.197262
H30   H     H_    0.425414 0.418778 0.214411 0.197825
H31   H     H_    0.074248 0.918051 0.785420 0.197295
H32   H     H_    0.925413 0.918780 0.214410 0.197795
H33   H     H_    0.452701 0.361012 0.503028 0.197318
H34   H     H_    0.547567 0.360946 0.497567 0.197363
H35   H     H_    0.952702 0.861012 0.503029 0.197319
H36   H     H_    0.047567 0.860946 0.497566 0.197360
H37   H     H_    0.071671 0.709004 0.489434 0.185716
H38   H     H_    0.928368 0.709066 0.510627 0.185630
H39   H     H_    0.571672 0.209004 0.489436 0.185730
H40   H     H_    0.428368 0.209065 0.510625 0.185638
H41   H     H_    0.044492 0.639010 0.491156 0.153122
H42   H     H_    0.955441 0.639056 0.508658 0.153110
H43   H     H_    0.544493 0.139010 0.491157 0.153118
H44   H     H_    0.455441 0.139056 0.508657 0.153138
H45   H     H_    0.939658 0.362585 0.408484 0.200507
H46   H     H_    0.060300 0.362042 0.592510 0.200156
H47   H     H_    0.439656 0.862584 0.408492 0.200636
H48   H     H_    0.560306 0.862046 0.592509 0.200156
H49   H     H_    0.284279 0.466646 0.719190 0.154331
H50   H     H_    0.715644 0.463616 0.279435 0.154186
H51   H     H_    0.784279 0.966646 0.719190 0.154340
H52   H     H_    0.215876 0.961824 0.278559 0.154885
H53   H     H_    0.212794 0.464590 0.649952 0.107774
H54   H     H_    0.787130 0.462953 0.349117 0.107682
H55   H     H_    0.712794 0.964590 0.649952 0.107783
H56   H     H_    0.287372 0.960057 0.347702 0.108163
H57   H     H_    0.281764 0.454938 0.837448 0.172823
H58   H     H_    0.717102 0.457620 0.159158 0.168450
H59   H     H_    0.781764 0.954938 0.837448 0.172816
H60   H     H_    0.218517 0.958533 0.159960 0.172707
O1    O     O_R   0.499980 0.537310 0.933900 -0.632362
O2    O     O_R   0.500020 0.537310 0.066100 -0.632600
O3    O     O_R   0.999980 0.037310 0.933900 -0.632544
O4    O     O_R   0.000020 0.037310 0.066100 -0.632537
O5    O     O_R   0.465290 0.499990 0.531320 -0.627184
O6    O     O_R   0.534710 0.499990 0.468680 -0.628914
O7    O     O_R   0.965290 0.999990 0.531320 -0.627292
O8    O     O_R   0.034710 0.999990 0.468680 -0.628959
O9    O     O_R   0.534650 0.499980 0.600740 -0.584725
O10   O     O_R   0.465350 0.499980 0.399260 -0.580317
O11   O     O_R   0.034650 0.999980 0.600740 -0.584318
O12   O     O_R   0.965350 0.999980 0.399260 -0.580338
O13   O     O_R   0.465330 0.566050 0.465280 -0.580344
O14   O     O_R   0.534670 0.566050 0.534720 -0.582986
O15   O     O_R   0.965330 0.066050 0.465280 -0.580391
O16   O     O_R   0.034670 0.066050 0.534720 -0.582738
O17   O     O_R   0.499970 0.462690 0.933870 -0.566473
O18   O     O_R   0.500030 0.462690 0.066130 -0.566995
O19   O     O_R   0.999970 0.962690 0.933870 -0.566411
O20   O     O_R   0.000030 0.962690 0.066130 -0.566952
O21   O     O_R   0.438570 0.537300 0.938570 -0.612855
O22   O     O_R   0.561430 0.537300 0.061430 -0.611861
O23   O     O_R   0.938570 0.037300 0.938570 -0.612834
O24   O     O_R   0.061430 0.037300 0.061430 -0.612639
O25   O     O_R   0.438560 0.462690 0.938540 -0.591368
O26   O     O_R   0.561440 0.462690 0.061460 -0.592484
O27   O     O_R   0.938560 0.962690 0.938540 -0.591379
O28   O     O_R   0.061440 0.962690 0.061460 -0.591979
O29   O     O_R   0.999990 0.565940 0.462670 -0.617817
O30   O     O_R   0.000010 0.565940 0.537330 -0.617865
O31   O     O_R   0.499990 0.065940 0.462670 -0.617771
O32   O     O_R   0.500010 0.065940 0.537330 -0.617912
O33   O     O_R   0.061410 0.499850 0.524090 -0.615915
O34   O     O_R   0.938590 0.499850 0.475910 -0.615768
O35   O     O_R   0.561410 0.999850 0.524090 -0.615896
O36   O     O_R   0.438590 0.999850 0.475910 -0.616059
O37   O     O_R   0.061430 0.499870 0.598720 -0.599952
O38   O     O_R   0.938570 0.499870 0.401280 -0.599546
O39   O     O_R   0.561430 0.999870 0.598720 -0.599949
O40   O     O_R   0.438570 0.999870 0.401280 -0.599897
O41   O     O_R   0.999980 0.433770 0.462660 -0.610044
O42   O     O_R   0.000020 0.433770 0.537340 -0.609519
O43   O     O_R   0.499980 0.933770 0.462660 -0.609965
O44   O     O_R   0.500020 0.933770 0.537340 -0.609691
O45   O     O_R   0.465300 0.433880 0.465270 -0.609371
O46   O     O_R   0.534700 0.433880 0.534730 -0.610753
O47   O     O_R   0.965300 0.933880 0.465270 -0.609406
O48   O     O_R   0.034700 0.933880 0.534730 -0.610798
Zn1   Zn    Zn3+2 0.500000 0.549820 0.000000 1.015789
Zn2   Zn    Zn3+2 0.000000 0.049820 0.000000 1.015250
Zn3   Zn    Zn3+2 0.500000 0.450170 0.000000 1.111875
Zn4   Zn    Zn3+2 0.000000 0.950170 0.000000 1.112224
Zn5   Zn    Zn3+2 0.999980 0.499850 0.450150 1.017771
Zn6   Zn    Zn3+2 0.000020 0.499850 0.549850 1.017935
Zn7   Zn    Zn3+2 0.499980 0.999850 0.450150 1.017476
Zn8   Zn    Zn3+2 0.500020 0.999850 0.549850 1.017527
Zn9   Zn    Zn3+2 0.453680 0.499970 0.453630 1.047412
Zn10  Zn    Zn3+2 0.546320 0.499970 0.546370 1.044913
Zn11  Zn    Zn3+2 0.953680 0.999970 0.453630 1.047396
Zn12  Zn    Zn3+2 0.046320 0.999970 0.546370 1.045138
O49   O     O_3   0.295422 0.583531 0.792257 -0.574004
C201  C     C_3   0.278442 0.605597 0.812512 -0.140224
H61   H     H_    0.280004 0.585350 0.845317 0.265456
H62   H     H_    0.246557 0.620685 0.774476 0.146895
H63   H     H_    0.298955 0.635129 0.839115 0.176090
O50   O     O_3   0.703689 0.582665 0.209595 -0.570267
C202  C     C_3   0.721907 0.607851 0.193269 -0.151374
H64   H     H_    0.724866 0.588823 0.164243 0.265954
H65   H     H_    0.751917 0.625041 0.233545 0.142724
H66   H     H_    0.699687 0.635914 0.164078 0.181907
O51   O     O_3   0.795422 0.083531 0.792257 -0.573991
C203  C     C_3   0.778442 0.105597 0.812512 -0.140242
H67   H     H_    0.780003 0.085350 0.845316 0.265448
H68   H     H_    0.746557 0.120686 0.774475 0.146896
H69   H     H_    0.798956 0.135129 0.839115 0.176089
O52   O     O_3   0.204200 0.082801 0.213065 -0.574586
C204  C     C_3   0.220934 0.107380 0.193999 -0.140249
H70   H     H_    0.219261 0.089272 0.159740 0.265589
H71   H     H_    0.252898 0.122058 0.232933 0.147436
H72   H     H_    0.200236 0.137304 0.169358 0.176190
O53   O     O_3   0.552869 0.440635 0.687951 -0.600958
C205  C     C_3   0.530137 0.401958 0.653740 -0.267383
H73   H     H_    0.524731 0.401781 0.611810 0.180286
H74   H     H_    0.499052 0.398139 0.639726 0.147662
H75   H     H_    0.549758 0.372307 0.681930 0.195813
O54   O     O_3   0.447231 0.440877 0.312308 -0.600727
C206  C     C_3   0.470052 0.401926 0.346101 -0.269386
H76   H     H_    0.478488 0.402827 0.390398 0.175732
H77   H     H_    0.499358 0.396563 0.355819 0.149867
H78   H     H_    0.449167 0.372751 0.319529 0.198606
O55   O     O_3   0.052873 0.940636 0.687957 -0.600977
C207  C     C_3   0.030141 0.901959 0.653744 -0.267382
H79   H     H_    0.024723 0.901792 0.611801 0.180242
H80   H     H_    0.999062 0.898130 0.639750 0.147685
H81   H     H_    0.049772 0.872307 0.681926 0.195861
O56   O     O_3   0.947231 0.940878 0.312308 -0.600733
C208  C     C_3   0.970051 0.901926 0.346099 -0.269512
H82   H     H_    0.978475 0.902820 0.390387 0.175771
H83   H     H_    0.999362 0.896569 0.355833 0.149871
H84   H     H_    0.949169 0.872752 0.319519 0.198541
O57   O     O_3   0.422910 0.588374 0.623186 -0.619947
C209  C     C_3   0.398084 0.618209 0.622829 -0.263261
H85   H     H_    0.417994 0.641181 0.662633 0.162292
H86   H     H_    0.375180 0.600147 0.620900 0.175057
H87   H     H_    0.379703 0.638842 0.580766 0.208703
O58   O     O_3   0.577896 0.587291 0.377362 -0.619323
C210  C     C_3   0.601770 0.617954 0.376783 -0.263471
H88   H     H_    0.581184 0.640585 0.336498 0.161350
H89   H     H_    0.625037 0.600622 0.378877 0.175896
H90   H     H_    0.619730 0.638848 0.418415 0.208386
O59   O     O_3   0.922877 0.088340 0.623153 -0.619930
C211  C     C_3   0.898108 0.118231 0.622850 -0.263047
H91   H     H_    0.918060 0.141181 0.662674 0.162242
H92   H     H_    0.875187 0.100217 0.620923 0.175081
H93   H     H_    0.879746 0.138880 0.580804 0.208782
O60   O     O_3   0.077898 0.087290 0.377363 -0.619338
C212  C     C_3   0.101772 0.117953 0.376784 -0.263400
H94   H     H_    0.081186 0.140584 0.336500 0.161304
H95   H     H_    0.125039 0.100620 0.378879 0.176062
H96   H     H_    0.119732 0.138846 0.418417 0.208367
F1    F     F_    0.551550 0.441368 0.917901 -0.646084
F2    F     F_    0.448273 0.441812 0.082029 -0.645536
F3    F     F_    0.051558 0.941376 0.917910 -0.645755
F4    F     F_    0.948272 0.941813 0.082028 -0.645564
F5    F     F_    0.284151 0.545224 0.719385 -0.676566
F6    F     F_    0.716338 0.542564 0.282745 -0.677362
F7    F     F_    0.784151 0.045224 0.719385 -0.676542
F8    F     F_    0.215660 0.040218 0.283338 -0.676624
F9    F     F_    0.578359 0.294596 0.491491 -0.657118
F10   F     F_    0.421849 0.294676 0.508962 -0.657254
F11   F     F_    0.078359 0.794596 0.491489 -0.657165
F12   F     F_    0.921850 0.794677 0.508964 -0.657272
O61   O     O_3   0.562549 0.634028 0.608473 -0.533813
C213  C     C_3   0.546357 0.619350 0.633386 -0.219133
H97   H     H_    0.511561 0.613956 0.598636 0.108026
H98   H     H_    0.554673 0.643431 0.668402 0.154564
H99   H     H_    0.561284 0.586884 0.656715 0.197617
O62   O     O_3   0.433728 0.634696 0.393316 -0.528930
C214  C     C_3   0.444946 0.623680 0.360618 -0.206068
H100  H     H_    0.474065 0.603282 0.388553 0.121393
H101  H     H_    0.448566 0.653842 0.343441 0.134679
H102  H     H_    0.419238 0.603579 0.320118 0.193983
O63   O     O_3   0.062531 0.134020 0.608459 -0.533696
C215  C     C_3   0.046349 0.119514 0.633439 -0.220231
H103  H     H_    0.011732 0.113584 0.598743 0.108382
H104  H     H_    0.054153 0.143887 0.667702 0.154133
H105  H     H_    0.061607 0.087443 0.657491 0.197676
O64   O     O_3   0.933728 0.134694 0.393303 -0.528913
C216  C     C_3   0.944950 0.123673 0.360612 -0.206132
H106  H     H_    0.974070 0.103277 0.388552 0.121346
H107  H     H_    0.948570 0.153833 0.343432 0.134691
H108  H     H_    0.919244 0.103569 0.320114 0.193989
O65   O     O_3   0.392607 0.706485 0.347140 -0.532320
C217  C     C_3   0.381220 0.715320 0.291128 -0.109732
H109  H     H_    0.366042 0.685205 0.262142 0.169122
H110  H     H_    0.408376 0.723210 0.296627 0.096131
H111  H     H_    0.357673 0.742510 0.266062 0.225680
O66   O     O_3   0.604714 0.705454 0.656987 -0.530203
C218  C     C_3   0.612503 0.712592 0.710528 -0.104334
H112  H     H_    0.626445 0.681793 0.738533 0.171535
H113  H     H_    0.583666 0.719954 0.701149 0.094439
H114  H     H_    0.636194 0.739304 0.738867 0.217870
O67   O     O_3   0.892611 0.206486 0.347118 -0.532215
C219  C     C_3   0.881234 0.215321 0.291113 -0.110151
H115  H     H_    0.866055 0.185207 0.262125 0.169151
H116  H     H_    0.908394 0.223207 0.296623 0.096169
H117  H     H_    0.857689 0.242513 0.266044 0.225465
O68   O     O_3   0.104702 0.205447 0.656982 -0.530259
C220  C     C_3   0.112497 0.212591 0.710526 -0.104114
H118  H     H_    0.126372 0.181773 0.738486 0.171550
H119  H     H_    0.083680 0.220033 0.701157 0.094387
H120  H     H_    0.136235 0.239250 0.738900 0.217856
F13   F     F_    0.895054 0.298238 0.349293 -0.645628
F14   F     F_    0.103226 0.296911 0.654139 -0.642436
F15   F     F_    0.395050 0.798238 0.349310 -0.645225
F16   F     F_    0.603235 0.796917 0.654137 -0.642467
F17   F     F_    0.290543 0.421246 0.773781 -0.579716
F18   F     F_    0.710136 0.420352 0.223635 -0.580516
F19   F     F_    0.790543 0.921246 0.773781 -0.579711
F20   F     F_    0.209842 0.919901 0.221241 -0.579410
F21   F     F_    0.211565 0.421187 0.699980 -0.577403
F22   F     F_    0.789141 0.420504 0.299177 -0.575858
F23   F     F_    0.711565 0.921187 0.699980 -0.577401
F24   F     F_    0.288838 0.920328 0.295122 -0.576337
F25   F     F_    0.294775 0.514369 0.874789 -0.619455
F26   F     F_    0.705436 0.519081 0.126797 -0.615802
F27   F     F_    0.794775 0.014369 0.874789 -0.619476
F28   F     F_    0.205130 0.019416 0.126180 -0.620313
F29   F     F_    0.215558 0.532622 0.789174 -0.623655
F30   F     F_    0.785156 0.533299 0.211624 -0.621667
F31   F     F_    0.715558 0.032622 0.789174 -0.623682
F32   F     F_    0.284225 0.037546 0.213037 -0.623977

loop_
_geom_bond_atom_site_label_1
_geom_bond_atom_site_label_2
_ccdc_geom_bond_type
C201  H62   S    
C133  C137  A    
C208  H82   S    
C55   C59   A    
C76   H28   S    
C99   C185  S    
C136  C140  A    
C145  C148  A    
C204  H70   S    
C48   O24   A    
O19   Zn4   S    
C114  H34   S    
C135  C139  A    
C55   O59   S    
C103  C183  S    
O1    Zn1   S    
C123  H49   S    
C69   C93   A    
C26   C50   A    
C139  C142  A    
C201  H63   S    
C195  H3    S    
C173  C179  A    
C22   C46   S    
C162  C200  S    
C193  H1    S    
C211  H91   S    
C145  H43   S    
O31   Zn7   S    
C149  C153  A    
C64   C84   A    
C212  H96   S    
C209  H86   S    
C217  H111  S    
C171  C175  A    
C144  H42   S    
C107  O5    A    
C203  H69   S    
O50   C202  S    
O12   Zn11  S    
C196  H4    S    
C21   C45   S    
C120  C130  A    
C83   H23   S    
C159  F21   S    
C104  O44   A    
C106  C118  S    
C217  H110  S    
C134  H38   S    
O6    Zn10  S    
C9    C189  S    
O38   Zn5   S    
C41   C49   A    
C179  H45   S    
C8    F32   S    
C25   C29   A    
C12   C192  S    
C93   F1    S    
C13   C185  T    
C116  C121  A    
C27   C31   A    
C46   O26   A    
C151  C158  A    
C95   F3    S    
C28   C32   A    
C218  H114  S    
O47   Zn11  S    
C121  C128  A    
C162  H56   S    
O48   Zn12  S    
C33   H13   S    
C205  H73   S    
O10   Zn9   S    
C91   C191  S    
C138  C141  A    
C17   C21   T    
C90   F6    S    
O16   Zn12  S    
C176  C182  A    
C6    C10   S    
C125  F19   S    
C113  C120  A    
C91   C195  S    
C3    O19   A    
C156  C166  A    
C68   C72   A    
C115  C118  A    
C89   C193  S    
C207  H79   S    
C163  C178  A    
C125  C191  S    
C203  H67   S    
C126  C192  S    
C174  C177  A    
C79   H31   S    
C10   F26   S    
C101  O35   A    
C106  O48   A    
C143  C147  A    
C208  H84   S    
C131  F11   S    
C136  H40   S    
C4    O20   A    
C78   H30   S    
C166  O66   S    
C204  H72   S    
C96   F4    S    
O17   Zn3   S    
C170  C174  A    
C214  H101  S    
C152  C157  A    
C18   C190  S    
C70   C94   A    
C59   C63   A    
C91   O51   S    
C84   C88   A    
O21   Zn1   S    
O52   C204  S    
C92   C196  S    
C205  H75   S    
C102  O36   A    
C181  H47   S    
C57   C61   A    
C82   H22   S    
O61   C213  S    
C77   H29   S    
C211  H93   S    
C149  O61   S    
C60   C64   A    
C28   O56   S    
C75   H27   S    
C109  O11   A    
C110  O12   A    
C2    O2    A    
C123  C159  S    
C155  C165  A    
C124  C160  S    
C116  C118  A    
C210  H90   S    
C97   O29   A    
C94   F2    S    
C110  O8    A    
C213  H97   S    
C72   C96   A    
C61   C65   A    
C71   C95   A    
C132  C134  A    
O49   C201  S    
C146  H44   S    
C73   C77   A    
C216  H106  S    
C75   C79   A    
C19   C191  S    
C165  C171  A    
C166  C172  A    
C29   C33   A    
C100  C186  S    
C218  H112  S    
C112  O15   A    
C120  C127  A    
C167  C169  A    
C66   C70   A    
C220  H118  S    
C13   C197  S    
C90   O50   S    
C64   C68   A    
C101  O39   A    
C57   H17   S    
C102  O40   A    
C209  H85   S    
C7    F31   S    
C214  H100  S    
C207  H81   S    
C5    F29   S    
O44   Zn8   S    
C124  H50   S    
C129  C135  A    
C85   C93   A    
C87   C95   A    
C6    C198  S    
C114  C119  A    
C16   C200  S    
C4    O4    A    
C175  C181  A    
C37   C53   A    
C44   C52   A    
C176  C178  A    
C161  F23   S    
C112  C154  S    
C162  F24   S    
C97   C147  S    
C133  H37   S    
C80   H32   S    
C144  C147  A    
C27   C51   A    
C195  C199  S    
C103  O42   A    
C71   C75   A    
C23   C47   S    
C30   C34   A    
C24   C48   S    
C125  H51   S    
C215  H103  S    
C100  O34   A    
O4    Zn2   S    
C202  H65   S    
C5    C197  S    
O25   Zn3   S    
O46   Zn10  S    
C155  C163  A    
C196  H8    S    
C98   O32   A    
C5    C9    S    
C99   O37   A    
C182  H48   S    
C27   O55   S    
C160  F22   S    
C8    C12   S    
C216  H108  S    
C111  C153  S    
C157  C164  A    
C47   O23   A    
O39   Zn8   S    
C42   C50   A    
C113  C117  A    
C219  H115  S    
C26   C30   A    
C150  C155  A    
C46   O22   A    
C8    C200  S    
O22   Zn1   S    
C174  C180  A    
O68   C220  S    
C90   C190  S    
C220  H120  S    
O29   Zn5   S    
C18   C22   T    
C76   C80   A    
O32   Zn8   S    
C2    O18   A    
C7    H11   S    
C4    C88   S    
C5    H9    S    
C108  O10   A    
C74   H26   S    
C138  C144  A    
C36   H16   S    
C206  H78   S    
C58   H18   S    
C150  O62   S    
C194  C198  S    
C9    F25   S    
C119  C129  A    
C49   C77   A    
C11   C191  S    
C37   C41   A    
C51   C79   A    
C212  H95   S    
C114  C117  A    
O43   Zn7   S    
C40   C44   A    
C43   C67   A    
C165  O65   S    
C169  C173  A    
C29   C107  S    
C8    H12   S    
C35   H15   S    
O33   Zn5   S    
C172  C176  A    
C119  C127  A    
C58   C62   A    
C83   C87   A    
C88   C96   A    
O65   C217  S    
O36   Zn8   S    
C9    H57   S    
C215  H105  S    
C109  O7    A    
C157  C167  A    
C124  C190  S    
C158  C168  A    
C113  H33   S    
O41   Zn5   S    
C32   C110  S    
C218  H113  S    
C140  C142  A    
O37   Zn6   S    
C60   H20   S    
O8    Zn12  S    
C205  H74   S    
O59   C211  S    
C194  H2    S    
C45   O25   A    
C126  H52   S    
C111  O14   A    
C160  H54   S    
O58   C210  S    
O13   Zn9   S    
C219  H117  S    
C39   C55   A    
O55   C207  S    
C156  C163  A    
O15   Zn11  S    
C40   C56   A    
C150  C153  A    
C207  H80   S    
C143  H41   S    
C69   C73   A    
O27   Zn4   S    
C26   O54   S    
C128  C141  A    
C132  F12   S    
C105  O46   A    
C168  C170  A    
C201  H61   S    
C62   C82   A    
C208  H83   S    
O42   Zn6   S    
C105  C117  S    
C50   C78   A    
C204  H71   S    
C175  C178  A    
C146  C148  A    
O23   Zn2   S    
C179  C183  A    
C84   H24   S    
C140  C146  A    
C206  H76   S    
O24   Zn2   S    
C160  C198  S    
C82   C86   A    
C33   C37   A    
C56   C60   A    
C63   C83   A    
C35   C39   A    
O51   C203  S    
C38   C54   A    
C116  H36   S    
C31   C109  S    
C210  H89   S    
C213  H98   S    
C170  F14   S    
C92   O52   S    
C104  C184  S    
C104  O43   A    
C16   C188  T    
C217  H109  S    
O5    Zn9   S    
C91   F7    S    
C159  H53   S    
C100  O38   A    
C32   C36   A    
C89   F5    S    
O26   Zn3   S    
C181  C184  A    
C137  C141  A    
C53   C57   A    
C30   C108  S    
C125  C161  S    
C112  O16   A    
C215  H104  S    
C99   O33   A    
C213  H99   S    
C20   C192  S    
O20   Zn4   S    
C81   H21   S    
C202  H64   S    
C47   O27   A    
C48   O28   A    
C43   C51   A    
C98   C148  S    
C65   C69   A    
C67   C71   A    
C122  C128  A    
C12   F28   S    
C25   C49   A    
C106  O47   A    
C159  C197  S    
C195  H7    S    
O64   C216  S    
C39   C43   A    
C74   C78   A    
O30   Zn6   S    
C89   C189  S    
C61   C81   A    
C52   C80   A    
C92   C192  S    
C11   H59   S    
C209  H87   S    
C214  H102  S    
C73   H25   S    
C124  F18   S    
C115  H35   S    
C107  O9    A    
C56   O60   S    
C19   C23   T    
O63   C215  S    
C196  C200  S    
C25   O53   S    
C130  F10   S    
O53   C205  S    
C7    C11   S    
C14   C198  S    
C10   C190  S    
C129  F9    S    
C149  C156  A    
C203  H68   S    
C38   C42   A    
O7    Zn11  S    
C14   C186  T    
C168  O68   S    
O40   Zn7   S    
C6    F30   S    
C97   O30   A    
C151  C154  A    
C70   C74   A    
C86   C94   A    
O34   Zn6   S    
C126  F20   S    
O9    Zn10  S    
C20   C24   T    
C211  H92   S    
C90   C194  S    
O11   Zn12  S    
C10   H58   S    
C123  C189  S    
C180  C183  A    
C158  C164  A    
C219  H116  S    
C137  C143  A    
C123  F17   S    
C115  C122  A    
C151  O63   S    
C121  C131  A    
C122  C132  A    
O45   Zn9   S    
C11   F27   S    
C220  H119  S    
C1    C85   S    
C194  H6    S    
C63   C67   A    
C45   O21   A    
C161  C199  S    
C3    C87   S    
C53   O57   S    
C36   C40   A    
O67   C219  S    
C62   C66   A    
O14   Zn10  S    
C41   C65   A    
C17   C189  S    
C15   C187  T    
C102  C188  S    
C127  C142  A    
C108  O6    A    
C34   H14   S    
C206  H77   S    
C210  H88   S    
C15   C199  S    
C173  C177  A    
O35   Zn7   S    
C1    O17   A    
C72   C76   A    
C212  H94   S    
C1    O1    A    
C152  C154  A    
C3    O3    A    
C44   C68   A    
C216  H107  S    
O2    Zn1   S    
C161  H55   S    
O60   C212  S    
C54   O58   S    
O66   C218  S    
C54   C58   A    
C101  C187  S    
C139  C145  A    
C182  C184  A    
C92   F8    S    
C34   C38   A    
C130  C136  A    
C131  C133  A    
C134  C138  A    
C202  H66   S    
O18   Zn3   S    
C6    H10   S    
C12   H60   S    
O57   C209  S    
C89   O49   S    
C172  F16   S    
C98   O31   A    
C59   H19   S    
C167  O67   S    
C28   C52   A    
C171  F15   S    
O54   C206  S    
C193  C197  S    
C169  F13   S    
O56   C208  S    
C135  H39   S    
C2    C86   S    
C31   C35   A    
C111  O13   A    
C7    C199  S    
C81   C85   A    
C103  O41   A    
C193  H5    S    
C42   C66   A    
O62   C214  S    
C152  O64   S    
O3    Zn2   S    
C126  C162  S    
O28   Zn4   S    
C164  C177  A    
C105  O45   A    
C180  H46   S    
