data_mof_unit_17394.cif
_audit_creation_date              2012-12-11T15:12:25-0500
_audit_creation_method            fapswitch 2.2
_symmetry_space_group_name_H-M    P1
_symmetry_Int_Tables_number       1
_space_group_crystal_system       triclinic
_cell_length_a                    31.304423
_cell_length_b                    22.464773
_cell_length_c                    17.85491
_cell_angle_alpha                 90.000022
_cell_angle_beta                  123.840655
_cell_angle_gamma                 89.999979
_cell_volume                      10429.2206803

loop_
_atom_site_label
_atom_site_type_symbol
_atom_type_description
_atom_site_fract_x
_atom_site_fract_y
_atom_site_fract_z
_atom_type_partial_charge
C1    C     C_R   0.535239 0.605537 0.715426 -0.160629
C2    C     C_R   0.264807 0.655262 0.545085 0.141020
C3    C     C_R   0.314916 0.311619 0.950919 0.099767
C4    C     C_R   0.851166 0.285649 0.074389 0.104428
C5    C     C_R   0.185083 0.811615 0.049078 0.099767
C6    C     C_R   0.149939 0.283612 0.929538 0.103744
C7    C     C_R   0.815712 0.809330 0.952429 0.108080
C8    C     C_R   0.289371 0.791712 0.115546 0.104098
C9    C     C_R   0.759946 0.333534 0.045836 0.105520
C10   C     C_R   0.710806 0.791447 0.883157 0.109371
C11   C     C_R   0.239866 0.333812 0.955508 0.114010
C12   C     C_R   0.789195 0.291449 0.116847 0.109356
C13   C     C_R   0.313899 0.287127 0.580501 0.146840
C14   C     C_R   0.260133 0.833810 0.044491 0.114012
C15   C     C_R   0.210629 0.291713 0.884452 0.104099
C16   C     C_R   0.740055 0.833532 0.954167 0.105496
C17   C     C_R   0.780820 0.355052 0.998281 -0.194026
C18   C     C_R   0.266486 0.766116 0.157509 -0.201248
C19   C     C_R   0.219530 0.354091 0.004537 -0.179562
C20   C     C_R   0.734112 0.764754 0.842633 -0.203907
C21   C     C_R   0.280470 0.854090 0.995463 -0.179562
C22   C     C_R   0.765889 0.264754 0.157368 -0.203908
C23   C     C_R   0.719183 0.855049 0.001726 -0.194069
C24   C     C_R   0.734871 0.655637 0.454604 0.141462
C25   C     C_R   0.233513 0.266120 0.842488 -0.201247
C26   C     C_R   0.825250 0.330854 0.011636 -0.205872
C27   C     C_R   0.215204 0.775872 0.124480 -0.216458
C28   C     C_R   0.175790 0.328724 0.992501 -0.211471
C29   C     C_R   0.785706 0.773510 0.877056 -0.217431
C30   C     C_R   0.324210 0.828725 0.007500 -0.211470
C31   C     C_R   0.714294 0.273509 0.122943 -0.217431
C32   C     C_R   0.674753 0.830849 0.988373 -0.205851
C33   C     C_R   0.284794 0.275877 0.875516 -0.216460
C34   C     C_R   0.590579 0.589175 0.422061 -0.213318
C35   C     C_R   0.186099 0.787124 0.419497 0.146839
C36   C     C_R   0.427439 0.390070 0.578169 -0.210062
C37   C     C_R   0.409265 0.588888 0.577903 -0.214878
C38   C     C_R   0.572542 0.390063 0.421833 -0.208436
C39   C     C_R   0.090735 0.088888 0.422096 -0.214881
C40   C     C_R   0.927458 0.890063 0.578167 -0.208438
C41   C     C_R   0.909421 0.089175 0.577939 -0.213318
C42   C     C_R   0.072561 0.890070 0.421831 -0.210063
C43   C     C_R   0.391353 0.603801 0.279299 -0.079048
C44   C     C_R   0.615153 0.414849 0.743675 -0.100154
C45   C     C_R   0.608347 0.604295 0.719820 -0.068832
C46   C     C_R   0.765130 0.155638 0.545398 0.141463
C47   C     C_R   0.384790 0.415194 0.256015 -0.105724
C48   C     C_R   0.891654 0.104297 0.280182 -0.068822
C49   C     C_R   0.115210 0.915194 0.743985 -0.105727
C50   C     C_R   0.108647 0.103801 0.720701 -0.079048
C51   C     C_R   0.884847 0.914849 0.256324 -0.100149
C52   C     C_R   0.582004 0.634372 0.751062 0.124668
C53   C     C_R   0.405701 0.397783 0.207646 0.102240
C54   C     C_R   0.417444 0.633493 0.247294 0.123125
C55   C     C_R   0.594207 0.397207 0.791880 0.114293
C56   C     C_R   0.082556 0.133493 0.752706 0.123126
C57   C     C_R   0.814029 0.787095 0.580782 0.147012
C58   C     C_R   0.905793 0.897208 0.208119 0.114298
C59   C     C_R   0.917997 0.134374 0.248941 0.124671
C60   C     C_R   0.094299 0.897783 0.792353 0.102237
C61   C     C_R   0.636939 0.607514 0.495453 0.059890
C62   C     C_R   0.389404 0.358431 0.506486 0.029576
C63   C     C_R   0.362856 0.607088 0.504513 0.059914
C64   C     C_R   0.610628 0.358462 0.493519 0.029528
C65   C     C_R   0.137144 0.107087 0.495487 0.059915
C66   C     C_R   0.889372 0.858462 0.506481 0.029529
C67   C     C_R   0.863061 0.107514 0.504547 0.059891
C68   C     C_R   0.235194 0.155261 0.454917 0.141020
C69   C     C_R   0.110596 0.858431 0.493514 0.029576
C70   C     C_R   0.650334 0.259876 0.529155 -0.259887
C71   C     C_R   0.305752 0.690024 0.446240 -0.273263
C72   C     C_R   0.349868 0.259748 0.471115 -0.260211
C73   C     C_R   0.694190 0.690326 0.553904 -0.274201
C74   C     C_R   0.150132 0.759748 0.528887 -0.260209
C75   C     C_R   0.805808 0.190325 0.446094 -0.274201
C76   C     C_R   0.849667 0.759875 0.470848 -0.259889
C77   C     C_R   0.194247 0.190024 0.553758 -0.273264
C78   C     C_R   0.637348 0.312704 0.480559 0.138398
C79   C     C_R   0.704471 0.236893 0.476339 0.030399
C80   C     C_R   0.325574 0.642063 0.505320 0.130804
C81   C     C_R   0.362662 0.312686 0.519417 0.138349
C82   C     C_R   0.674197 0.642497 0.494589 0.130991
C83   C     C_R   0.137337 0.812685 0.480583 0.138349
C84   C     C_R   0.825803 0.142497 0.505410 0.130990
C85   C     C_R   0.862651 0.812705 0.519441 0.138399
C86   C     C_R   0.174425 0.142062 0.494680 0.130805
C87   C     C_R   0.652312 0.324692 0.421755 -0.289320
C88   C     C_R   0.306180 0.624489 0.555610 -0.279792
C89   C     C_R   0.347519 0.324777 0.577937 -0.289389
C90   C     C_R   0.244100 0.703729 0.484373 0.025800
C91   C     C_R   0.693457 0.624969 0.444070 -0.280062
C92   C     C_R   0.152478 0.824775 0.422061 -0.289387
C93   C     C_R   0.806543 0.124970 0.555931 -0.280061
C94   C     C_R   0.847686 0.824695 0.578242 -0.289322
C95   C     C_R   0.193821 0.124488 0.444392 -0.279793
C96   C     C_3   0.704318 0.477378 0.996933 -0.254700
C97   C     C_3   0.398851 0.776598 0.333099 -0.255794
C98   C     C_3   0.317759 0.486135 0.038476 -0.247986
C99   C     C_3   0.602613 0.776912 0.664724 -0.260405
C100  C     C_3   0.182239 0.986132 0.961528 -0.247968
C101  C     C_R   0.295601 0.236780 0.523669 0.030682
C102  C     C_3   0.897387 0.276913 0.335282 -0.260408
C103  C     C_3   0.795641 0.977366 0.003026 -0.254717
C104  C     C_3   0.101147 0.276598 0.666901 -0.255798
C105  C     C_3   0.544616 0.309087 0.855686 -0.331602
C106  C     C_3   0.511394 0.337775 0.883927 -0.926913
C107  C     C_3   0.433223 0.654274 0.093030 -0.350791
C108  C     C_3   0.486740 0.676268 0.123216 -0.906090
C109  C     C_3   0.455041 0.311963 0.140298 -0.330025
C110  C     C_3   0.487665 0.342168 0.111958 -0.929907
C111  C     C_3   0.564302 0.657936 0.902740 -0.347323
C112  C     C_R   0.456122 0.416553 0.257309 -0.173822
C113  C     C_R   0.755771 0.703949 0.515584 0.025800
C114  C     C_3   0.510484 0.680333 0.869959 -0.909656
C115  C     C_3   0.044958 0.811961 0.859698 -0.330025
C116  C     C_3   0.012334 0.842166 0.888039 -0.929904
C117  C     C_3   0.935702 0.157942 0.097267 -0.347314
C118  C     C_3   0.989520 0.180339 0.130051 -0.909663
C119  C     C_3   0.955384 0.809088 0.144313 -0.331605
C120  C     C_3   0.988606 0.837776 0.116073 -0.926908
C121  C     C_3   0.066778 0.154273 0.906971 -0.350791
C122  C     C_3   0.013261 0.176267 0.876786 -0.906089
C123  C     C_3   0.692103 0.572805 0.661417 -0.402398
C124  C     C_R   0.204398 0.736779 0.476331 0.030684
C125  C     C_3   0.730823 0.539483 0.650291 -0.901679
C126  C     C_3   0.317442 0.390022 0.344887 -0.374578
C127  C     C_3   0.306885 0.335425 0.285602 -0.929584
C128  C     C_3   0.307877 0.572521 0.338502 -0.402505
C129  C     C_3   0.269120 0.539153 0.349482 -0.901075
C130  C     C_3   0.682698 0.390262 0.654963 -0.374322
C131  C     C_3   0.693586 0.335677 0.714462 -0.930945
C132  C     C_3   0.192123 0.072521 0.661498 -0.402506
C133  C     C_3   0.230880 0.039153 0.650519 -0.901077
C134  C     C_3   0.817302 0.890262 0.345037 -0.374327
C135  C     C_R   0.744228 0.203948 0.484416 0.025800
C136  C     C_3   0.806415 0.835676 0.285539 -0.930944
C137  C     C_3   0.807897 0.072805 0.338583 -0.402396
C138  C     C_3   0.769178 0.039482 0.349709 -0.901679
C139  C     C_3   0.182558 0.890023 0.655113 -0.374576
C140  C     C_3   0.193115 0.835426 0.714399 -0.929587
C141  C     C_R   0.795528 0.736894 0.523661 0.030399
C142  C     C_R   0.255900 0.203729 0.515626 0.025799
C143  C     C_R   0.685417 0.222072 0.529487 0.132119
C144  C     C_R   0.264595 0.720767 0.434377 0.140882
C145  C     C_R   0.314813 0.221893 0.470786 0.131746
C146  C     C_R   0.735413 0.720945 0.565819 0.140961
C147  C     C_R   0.185188 0.721893 0.529216 0.131746
C148  C     C_R   0.464384 0.604976 0.283401 -0.163993
C149  C     C_R   0.764585 0.220943 0.434179 0.140960
C150  C     C_R   0.814584 0.722072 0.470516 0.132119
C151  C     C_R   0.235403 0.220768 0.565621 0.140882
C152  C     C_R   0.704466 0.301702 0.366100 -0.210008
C153  C     C_R   0.243963 0.638845 0.594041 -0.202755
C154  C     C_R   0.295247 0.301805 0.633355 -0.210020
C155  C     C_R   0.755574 0.639257 0.405408 -0.203257
C156  C     C_R   0.204749 0.801802 0.366641 -0.210020
C157  C     C_R   0.744429 0.139259 0.594597 -0.203257
C158  C     C_R   0.795530 0.801706 0.633894 -0.210008
C159  C     C_R   0.543842 0.416211 0.742505 -0.169515
C160  C     C_R   0.256039 0.138844 0.405963 -0.202756
C161  C     C_R   0.244109 0.768520 0.374106 -0.216346
C162  C     C_R   0.704503 0.172428 0.586532 -0.214800
C163  C     C_R   0.756112 0.768526 0.626393 -0.216604
C164  C     C_R   0.295920 0.172107 0.414015 -0.214302
C165  C     C_R   0.743884 0.268523 0.373602 -0.216604
C166  C     C_R   0.204082 0.672108 0.585989 -0.214303
C167  C     C_R   0.255888 0.268523 0.625890 -0.216346
C168  C     C_R   0.795499 0.672426 0.413473 -0.214800
C169  C     C_R   0.398193 0.686976 0.188607 -0.133889
C170  C     C_R   0.035616 0.104976 0.716599 -0.163995
C171  C     C_R   0.622568 0.371176 0.884098 -0.124250
C172  C     C_R   0.600873 0.688437 0.808609 -0.132432
C173  C     C_R   0.377152 0.372872 0.114684 -0.141240
C174  C     C_R   0.899129 0.188440 0.191396 -0.132430
C175  C     C_R   0.122847 0.872870 0.885315 -0.141235
C176  C     C_R   0.101808 0.186976 0.811394 -0.133889
C177  C     C_R   0.877432 0.871178 0.115900 -0.124224
C178  C     C_R   0.386257 0.749324 0.067190 -0.269509
C179  C     C_R   0.630735 0.305390 0.999704 -0.277534
C180  C     C_R   0.611907 0.752317 0.927995 -0.272071
C181  C     C_R   0.956157 0.916212 0.257494 -0.169510
C182  C     C_R   0.368444 0.308427 0.997419 -0.279592
C183  C     C_R   0.888098 0.252322 0.072014 -0.272068
C184  C     C_R   0.131554 0.808423 0.002577 -0.279591
C185  C     C_R   0.113743 0.249323 0.932811 -0.269509
C186  C     C_R   0.869265 0.805393 0.000294 -0.277534
C187  C     C_R   0.406707 0.697652 0.119400 0.178093
C188  C     C_R   0.599773 0.330754 0.913685 0.177695
C189  C     C_R   0.591556 0.700312 0.876602 0.179325
C190  C     C_R   0.399751 0.333308 0.083686 0.187634
C191  C     C_R   0.908447 0.200317 0.123406 0.179322
C192  C     C_R   0.964761 0.105538 0.284576 -0.160626
C193  C     C_R   0.100248 0.833305 0.916311 0.187633
C194  C     C_R   0.093294 0.197652 0.880601 0.178092
C195  C     C_R   0.900227 0.830756 0.086313 0.177688
C196  C     C_R   0.368362 0.727897 0.200929 0.500759
C197  C     C_R   0.675378 0.384263 0.942871 0.494338
C198  C     C_R   0.631259 0.728685 0.796626 0.499553
C199  C     C_R   0.324063 0.385667 0.056644 0.491888
C200  C     C_R   0.868743 0.228687 0.203379 0.499556
C201  C     C_R   0.175936 0.885664 0.943355 0.491885
C202  C     C_R   0.131638 0.227897 0.799071 0.500760
C203  C     C_R   0.043878 0.916553 0.742691 -0.173821
C204  C     C_R   0.824622 0.884266 0.057127 0.494350
C205  C     C_R   0.336601 0.769255 0.131774 -0.114403
C206  C     C_R   0.707560 0.344665 0.014429 -0.108866
C207  C     C_R   0.662987 0.770126 0.865627 -0.114276
C208  C     C_R   0.291907 0.346001 0.985514 -0.087227
C209  C     C_R   0.837015 0.270129 0.134379 -0.114274
C210  C     C_R   0.208092 0.845999 0.014484 -0.087227
C211  C     C_R   0.163399 0.269255 0.868225 -0.114402
C212  C     C_R   0.792440 0.844666 0.985570 -0.108894
C213  C     C_R   0.642392 0.585306 0.572094 0.218959
C214  C     C_R   0.685968 0.287092 0.419215 0.147012
C215  C     C_R   0.371406 0.391968 0.428519 0.214277
C216  C     C_R   0.357527 0.585088 0.427885 0.219539
C217  C     C_R   0.628650 0.392018 0.571491 0.212576
C218  C     C_R   0.142473 0.085088 0.572115 0.219538
C219  C     C_R   0.871350 0.892018 0.428509 0.212577
C220  C     C_R   0.857608 0.085306 0.427906 0.218957
C221  C     C_R   0.128593 0.891968 0.571481 0.214277
C222  C     C_R   0.350062 0.783612 0.070463 0.103744
C223  C     C_R   0.684288 0.309328 0.047570 0.108066
C224  C     C_R   0.648837 0.785644 0.925620 0.104427
H1    H     H_    0.505398 0.617029 0.725235 0.125402
H2    H     H_    0.613385 0.276107 0.023977 0.148046
H3    H     H_    0.830853 0.986555 0.003790 0.137008
H4    H     H_    0.783418 0.019949 0.017022 0.168538
H5    H     H_    0.122274 0.318600 0.699441 0.145209
H6    H     H_    0.061983 0.278027 0.653878 0.144164
H7    H     H_    0.096443 0.273298 0.600696 0.168262
H8    H     H_    0.524064 0.322783 0.952631 0.260832
H9    H     H_    0.514033 0.387032 0.884063 0.255127
H10   H     H_    0.470624 0.324474 0.836146 0.251362
H11   H     H_    0.527190 0.315807 0.782858 0.183152
H12   H     H_    0.543929 0.260010 0.863169 0.184661
H13   H     H_    0.603411 0.762887 0.977699 0.146701
H14   H     H_    0.483736 0.717245 0.085762 0.258541
H15   H     H_    0.510227 0.686285 0.196496 0.256209
H16   H     H_    0.506600 0.641538 0.109116 0.247054
H17   H     H_    0.435417 0.608802 0.118701 0.176973
H18   H     H_    0.409763 0.649317 0.018414 0.182916
H19   H     H_    0.474663 0.328255 0.042651 0.261406
H20   H     H_    0.484763 0.391338 0.113220 0.254695
H21   H     H_    0.528563 0.329020 0.158802 0.251635
H22   H     H_    0.472799 0.317540 0.213422 0.183892
H23   H     H_    0.455946 0.263085 0.131346 0.184154
H24   H     H_    0.385606 0.279881 0.971985 0.148379
H25   H     H_    0.513023 0.721931 0.905845 0.258852
H26   H     H_    0.487734 0.689453 0.796420 0.256805
H27   H     H_    0.490122 0.646230 0.883945 0.247898
H28   H     H_    0.562527 0.612004 0.878888 0.180464
H29   H     H_    0.586996 0.654005 0.977468 0.182966
H30   H     H_    0.025335 0.828251 0.957346 0.261405
H31   H     H_    0.015236 0.891335 0.886779 0.254695
H32   H     H_    0.971436 0.829018 0.841194 0.251634
H33   H     H_    0.027200 0.817539 0.786574 0.183893
H34   H     H_    0.044052 0.763082 0.868648 0.184154
H35   H     H_    0.896595 0.262894 0.022312 0.146701
H36   H     H_    0.986983 0.221938 0.094168 0.258853
H37   H     H_    0.012269 0.189457 0.203591 0.256806
H38   H     H_    0.009883 0.146236 0.116065 0.247900
H39   H     H_    0.937476 0.112009 0.121117 0.180470
H40   H     H_    0.913008 0.154013 0.022538 0.182967
H41   H     H_    0.975937 0.822785 0.047368 0.260831
H42   H     H_    0.985968 0.887033 0.115937 0.255128
H43   H     H_    0.029376 0.824475 0.163854 0.251361
H44   H     H_    0.972810 0.815808 0.217141 0.183151
H45   H     H_    0.956071 0.760012 0.136829 0.184663
H46   H     H_    0.114392 0.779877 0.028010 0.148379
H47   H     H_    0.016265 0.217244 0.914241 0.258542
H48   H     H_    0.989774 0.186284 0.803506 0.256209
H49   H     H_    0.993401 0.141537 0.890885 0.247054
H50   H     H_    0.064584 0.108801 0.881299 0.176973
H51   H     H_    0.090238 0.149316 0.981587 0.182915
H52   H     H_    0.711960 0.501739 0.602562 0.253078
H53   H     H_    0.748202 0.569761 0.625234 0.270603
H54   H     H_    0.762292 0.521714 0.716621 0.250517
H55   H     H_    0.709422 0.615109 0.698282 0.193207
H56   H     H_    0.683972 0.544196 0.702785 0.184048
H57   H     H_    0.105853 0.258974 0.983538 0.146781
H58   H     H_    0.342408 0.319061 0.292561 0.257940
H59   H     H_    0.289910 0.299038 0.302853 0.266108
H60   H     H_    0.278271 0.346967 0.213941 0.250278
H61   H     H_    0.289754 0.390128 0.365277 0.194786
H62   H     H_    0.309735 0.431417 0.305499 0.186954
H63   H     H_    0.287974 0.501419 0.397238 0.252996
H64   H     H_    0.251665 0.569407 0.374426 0.270512
H65   H     H_    0.237708 0.521360 0.283120 0.250833
H66   H     H_    0.290551 0.614808 0.301582 0.193206
H67   H     H_    0.316092 0.543903 0.297256 0.183772
H68   H     H_    0.886615 0.776109 0.976021 0.148046
H69   H     H_    0.658151 0.318969 0.707506 0.256922
H70   H     H_    0.710789 0.299482 0.697341 0.266497
H71   H     H_    0.722107 0.347392 0.786128 0.251111
H72   H     H_    0.710277 0.390546 0.634335 0.194877
H73   H     H_    0.690334 0.431662 0.694317 0.186938
H74   H     H_    0.212027 0.001419 0.602763 0.252997
H75   H     H_    0.248335 0.069407 0.625575 0.270512
H76   H     H_    0.262292 0.021360 0.716880 0.250833
H77   H     H_    0.209448 0.114808 0.698418 0.193208
H78   H     H_    0.183908 0.043903 0.702744 0.183773
H79   H     H_    0.760819 0.385484 0.942606 0.187738
H80   H     H_    0.841850 0.818969 0.292494 0.256922
H81   H     H_    0.789213 0.799481 0.302661 0.266498
H82   H     H_    0.777893 0.847390 0.213873 0.251111
H83   H     H_    0.789723 0.890545 0.365665 0.194879
H84   H     H_    0.809666 0.931662 0.305682 0.186939
H85   H     H_    0.788041 0.001738 0.397438 0.253078
H86   H     H_    0.751798 0.069759 0.374766 0.270603
H87   H     H_    0.737708 0.021713 0.283380 0.250516
H88   H     H_    0.790578 0.115109 0.301717 0.193205
H89   H     H_    0.816028 0.044196 0.297214 0.184049
H90   H     H_    0.284884 0.732518 0.208919 0.184909
H91   H     H_    0.157592 0.819061 0.707439 0.257940
H92   H     H_    0.210091 0.799038 0.697149 0.266108
H93   H     H_    0.221728 0.846968 0.786060 0.250278
H94   H     H_    0.210246 0.890128 0.634723 0.194786
H95   H     H_    0.190265 0.931417 0.694500 0.186954
H96   H     H_    0.239551 0.384385 0.060377 0.185846
H97   H     H_    0.480544 0.421446 0.232756 0.119413
H98   H     H_    0.715656 0.731118 0.791287 0.184751
H99   H     H_    0.260448 0.884384 0.939624 0.185843
H100  H     H_    0.784345 0.231119 0.208716 0.184752
H101  H     H_    0.739184 0.885481 0.057400 0.187738
H102  H     H_    0.215115 0.232522 0.791077 0.184911
H103  H     H_    0.577735 0.591781 0.352055 0.113859
H104  H     H_    0.446449 0.379203 0.648668 0.127038
H105  H     H_    0.422051 0.591369 0.647891 0.114576
H106  H     H_    0.553457 0.379166 0.351320 0.126876
H107  H     H_    0.077949 0.091368 0.352109 0.114578
H108  H     H_    0.493989 0.616177 0.272814 0.125786
H109  H     H_    0.946543 0.879167 0.648680 0.126877
H110  H     H_    0.922265 0.091781 0.647945 0.113858
H111  H     H_    0.053550 0.879202 0.351332 0.127038
H112  H     H_    0.353141 0.613857 0.261207 0.113479
H113  H     H_    0.655457 0.416782 0.770747 0.165944
H114  H     H_    0.646488 0.614494 0.737683 0.113161
H115  H     H_    0.344470 0.417425 0.228771 0.166723
H116  H     H_    0.853513 0.114496 0.262319 0.113161
H117  H     H_    0.155530 0.917425 0.771230 0.166721
H118  H     H_    0.146859 0.113858 0.738793 0.113480
H119  H     H_    0.519409 0.420719 0.767103 0.118820
H120  H     H_    0.844543 0.916783 0.229252 0.165942
H121  H     H_    0.635966 0.250584 0.570935 0.136861
H122  H     H_    0.322006 0.702506 0.408286 0.141179
H123  H     H_    0.364374 0.250390 0.429564 0.137092
H124  H     H_    0.678037 0.702774 0.592034 0.141889
H125  H     H_    0.135627 0.750391 0.570439 0.137092
H126  H     H_    0.821960 0.202772 0.407962 0.141889
H127  H     H_    0.864035 0.750583 0.429070 0.136861
H128  H     H_    0.177992 0.202507 0.591711 0.141180
H129  H     H_    0.640851 0.365728 0.383121 0.129514
H130  H     H_    0.006011 0.116177 0.727186 0.125787
H131  H     H_    0.322164 0.586192 0.599992 0.128751
H132  H     H_    0.358837 0.365902 0.616348 0.129726
H133  H     H_    0.677347 0.586766 0.399515 0.128567
H134  H     H_    0.141160 0.865899 0.383648 0.129726
H135  H     H_    0.822655 0.086768 0.600489 0.128566
H136  H     H_    0.859146 0.865732 0.616874 0.129515
H137  H     H_    0.177838 0.086189 0.400011 0.128752
H138  H     H_    0.689855 0.339983 0.321603 0.131600
H139  H     H_    0.259270 0.601299 0.639894 0.128408
H140  H     H_    0.309695 0.340206 0.677620 0.132069
H141  H     H_    0.980591 0.920720 0.232897 0.118821
H142  H     H_    0.740118 0.601823 0.359352 0.127682
H143  H     H_    0.190300 0.840201 0.322374 0.132069
H144  H     H_    0.759885 0.101825 0.640655 0.127681
H145  H     H_    0.810140 0.839988 0.678389 0.131600
H146  H     H_    0.240733 0.101296 0.360112 0.128409
H147  H     H_    0.259489 0.781046 0.334929 0.140699
H148  H     H_    0.689905 0.160681 0.627175 0.130984
H149  H     H_    0.740857 0.781000 0.665788 0.140723
H150  H     H_    0.310636 0.160311 0.373571 0.131822
H151  H     H_    0.759138 0.280995 0.334205 0.140723
H152  H     H_    0.994603 0.117030 0.274768 0.125402
H153  H     H_    0.189367 0.660313 0.626435 0.131822
H154  H     H_    0.240507 0.281049 0.665065 0.140699
H155  H     H_    0.810098 0.660678 0.372832 0.130985
H156  H     H_    0.837106 0.344485 0.967560 0.130694
H157  H     H_    0.197980 0.750948 0.153244 0.134337
H158  H     H_    0.164440 0.341452 0.037630 0.131700
H159  H     H_    0.803150 0.747837 0.849352 0.134113
H160  H     H_    0.335560 0.841453 0.962371 0.131699
H161  H     H_    0.696850 0.247836 0.150647 0.134112
H162  H     H_    0.662899 0.844479 0.032451 0.130692
H163  H     H_    0.019455 0.921446 0.767244 0.119413
H164  H     H_    0.302019 0.250953 0.846751 0.134338
H165  H     H_    0.736120 0.462000 0.064914 0.144449
H166  H     H_    0.669082 0.486571 0.996090 0.137013
H167  H     H_    0.716555 0.519956 0.982951 0.168536
H168  H     H_    0.377723 0.818600 0.300557 0.145208
H169  H     H_    0.438015 0.778030 0.346121 0.144163
H170  H     H_    0.403555 0.773298 0.399303 0.168261
H171  H     H_    0.304285 0.481008 0.966462 0.137688
H172  H     H_    0.360003 0.493934 0.081160 0.141857
H173  H     H_    0.298974 0.526341 0.043642 0.167008
H174  H     H_    0.394148 0.758976 0.016464 0.146781
H175  H     H_    0.624491 0.818503 0.697372 0.144411
H176  H     H_    0.563319 0.779741 0.650952 0.144718
H177  H     H_    0.598261 0.772867 0.598878 0.168692
H178  H     H_    0.195701 0.980998 0.033536 0.137673
H179  H     H_    0.139997 0.993940 0.918829 0.141863
H180  H     H_    0.201035 0.026337 0.956387 0.167005
H181  H     H_    0.875507 0.318504 0.302633 0.144416
H182  H     H_    0.936681 0.279743 0.349054 0.144718
H183  H     H_    0.901738 0.272867 0.401127 0.168693
H184  H     H_    0.763815 0.961975 0.935074 0.144466
N1    N     N_R   0.532970 0.559900 0.665210 -0.039136
N2    N     N_R   0.402100 0.440070 0.454470 -0.071976
N3    N     N_R   0.402100 0.559930 0.454470 -0.066330
N4    N     N_R   0.597900 0.440070 0.545530 -0.072162
N5    N     N_R   0.097900 0.059930 0.545530 -0.066330
N6    N     N_R   0.902100 0.940070 0.454470 -0.072162
N7    N     N_R   0.902100 0.059930 0.454470 -0.066886
N8    N     N_R   0.097900 0.940070 0.545530 -0.071976
N9    N     N_R   0.567170 0.559950 0.454460 -0.044946
N10   N     N_R   0.432830 0.440050 0.545540 -0.049452
N11   N     N_R   0.432830 0.559950 0.545540 -0.045126
N12   N     N_R   0.467030 0.440100 0.334790 -0.036899
N13   N     N_R   0.567170 0.440050 0.454460 -0.049475
N14   N     N_R   0.067170 0.059950 0.454460 -0.045126
N15   N     N_R   0.932830 0.940050 0.545540 -0.049476
N16   N     N_R   0.932830 0.059950 0.545540 -0.044946
N17   N     N_R   0.067170 0.940050 0.454460 -0.049452
N18   N     N_R   0.421470 0.559970 0.334770 -0.054988
N19   N     N_R   0.578530 0.440030 0.665230 -0.052764
N20   N     N_R   0.578530 0.559970 0.665230 -0.055395
N21   N     N_R   0.421470 0.440030 0.334770 -0.051340
N22   N     N_R   0.921470 0.059970 0.334770 -0.055396
N23   N     N_R   0.467030 0.559900 0.334790 -0.039536
N24   N     N_R   0.078530 0.940030 0.665230 -0.051339
N25   N     N_R   0.078530 0.059970 0.665230 -0.054988
N26   N     N_R   0.921470 0.940030 0.334770 -0.052765
N27   N     N_R   0.532970 0.440100 0.665210 -0.038213
N28   N     N_R   0.032970 0.059900 0.665210 -0.039536
N29   N     N_R   0.967030 0.940100 0.334790 -0.038215
N30   N     N_R   0.967030 0.059900 0.334790 -0.039136
N31   N     N_R   0.032970 0.940100 0.665210 -0.036899
N32   N     N_R   0.597900 0.559930 0.545530 -0.066886
Ni1   Ni    Ni4+2 0.483030 0.500000 0.604430 0.206445
Ni2   Ni    Ni4+2 0.516970 0.500000 0.395570 0.203637
Ni3   Ni    Ni4+2 0.983030 0.000000 0.604430 0.203636
Ni4   Ni    Ni4+2 0.016970 0.000000 0.395570 0.206448
Ni5   Ni    Ni4+2 0.587400 0.500000 0.604430 0.207281
Ni6   Ni    Ni4+2 0.412600 0.500000 0.395570 0.204593
Ni7   Ni    Ni4+2 0.087400 0.000000 0.604430 0.204593
Ni8   Ni    Ni4+2 0.912600 0.000000 0.395570 0.207284
O1    O     O_3   0.694428 0.435976 0.929751 -0.648377
O2    O     O_3   0.371076 0.726507 0.281040 -0.646761
O3    O     O_3   0.303785 0.436624 0.068926 -0.647998
O4    O     O_3   0.629217 0.726458 0.717150 -0.647591
O5    O     O_3   0.196215 0.936623 0.931077 -0.647996
O6    O     O_3   0.870784 0.226459 0.282855 -0.647594
O7    O     O_3   0.805573 0.935979 0.070250 -0.648373
O8    O     O_3   0.128923 0.226508 0.718959 -0.646761

loop_
_geom_bond_atom_site_label_1
_geom_bond_atom_site_label_2
_ccdc_geom_bond_type
N24   N31   A    
C126  C127  S    
C7    C29   A    
C106  H9    S    
C153  C166  A    
C7    C186  A    
C19   H96   S    
C192  N30   A    
C66   C85   S    
C7    C212  A    
C41   C67   A    
C116  H30   S    
C1    N1    A    
C5    C210  A    
C49   C60   A    
C102  H182  S    
C14   C21   A    
C67   C220  A    
C42   N17   A    
C137  H89   S    
C61   C82   S    
C29   H159  S    
C123  H55   S    
C166  H153  S    
C118  H36   S    
C103  H3    S    
C184  C193  A    
C130  H72   S    
N21   Ni6   S    
N7    N16   A    
C131  H69   S    
C181  H141  S    
C38   H106  S    
C2    C90   A    
C160  H146  S    
C11   C15   A    
C128  H67   S    
C73   H124  S    
C10   C20   A    
C158  H145  S    
C221  N8    A    
C95   H137  S    
C74   C83   A    
C174  C191  A    
C47   C53   A    
C77   C151  A    
C44   N19   A    
C31   H161  S    
C120  H43   S    
C39   C65   A    
C54   C169  S    
C197  C206  A    
C71   H122  S    
C36   C62   A    
C37   C63   A    
N29   Ni4   S    
C152  C165  A    
C139  H95   S    
C124  C147  A    
C68   C95   A    
C74   C147  A    
C169  C187  A    
C30   C222  A    
C133  H76   S    
C179  C188  A    
C152  C214  A    
C34   C61   A    
C82   C91   A    
C75   H126  S    
C113  C146  A    
C66   C219  A    
N3    Ni6   S    
N31   Ni3   S    
C43   C54   A    
C45   H114  S    
N25   N28   A    
C150  C168  A    
C204  C212  A    
C218  N5    A    
C177  C204  A    
C122  H47   S    
C171  C188  A    
C62   C81   S    
C111  C189  S    
C132  H77   S    
C102  O6    S    
C76   H127  S    
C154  C167  A    
C159  H119  S    
C41   N16   A    
C121  C194  S    
C105  C188  S    
C116  H32   S    
C35   C124  A    
C40   N15   A    
C177  C195  A    
C100  H178  S    
C139  C140  S    
C57   C141  A    
N20   Ni5   S    
N18   Ni6   S    
C200  C209  A    
C165  H151  S    
C203  N31   A    
C100  O5    S    
C179  H2    S    
C130  C131  S    
C207  C224  A    
C80   C88   A    
C10   C16   A    
C138  H87   S    
C140  H91   S    
C44   C55   A    
C104  H5    S    
N1    Ni1   S    
N4    N13   A    
C220  N7    A    
C151  C167  A    
C114  H27   S    
C180  C224  A    
C119  C195  S    
C84   C93   A    
C8    C205  A    
C3    C182  A    
C30   H160  S    
C13   C154  A    
C148  N23   A    
C86   C95   A    
C89   H132  S    
C136  H82   S    
C99   H176  S    
C153  H139  S    
N32   Ni5   S    
C107  H17   S    
C182  C190  A    
C68   C160  A    
C157  C162  A    
C175  C193  A    
C173  C190  A    
C134  C219  S    
C97   O2    S    
C111  H29   S    
N25   Ni7   S    
C38   N13   A    
C97   H170  S    
C192  H152  S    
C202  C211  A    
C186  H68   S    
C128  C129  S    
C52   C172  S    
C53   C173  S    
C103  O7    S    
C101  C145  A    
C70   C143  A    
C47   N21   A    
C64   C217  A    
C56   C176  S    
C58   C181  A    
C203  H163  S    
C12   C209  A    
C180  C189  A    
C75   C84   A    
C15   C25   A    
C125  H54   S    
C115  C116  S    
C216  N3    A    
C12   C22   A    
C121  H50   S    
C134  H84   S    
C5    C27   A    
C117  H40   S    
C79   C143  A    
C159  N27   A    
C107  C108  S    
C68   C142  A    
C181  N29   A    
C63   C216  A    
C96   H167  S    
C5    C184  A    
C132  C218  S    
C139  C221  S    
C39   N14   A    
C128  H66   S    
N16   Ni3   S    
C167  H154  S    
C61   C213  A    
C100  H180  S    
C141  C150  A    
C63   C80   S    
C119  H45   S    
C120  H42   S    
C50   H118  S    
C143  C162  A    
C176  C202  A    
C129  H63   S    
C149  C165  A    
C115  H33   S    
C138  H85   S    
C104  H7    S    
C6    C211  A    
C45   C52   A    
C111  H28   S    
C114  H25   S    
C34   H103  S    
C49   N24   A    
C50   C56   A    
C4    C209  A    
C13   C101  A    
C127  H60   S    
N9    Ni2   S    
C182  H24   S    
C164  H150  S    
C101  C142  A    
C23   H101  S    
C108  H15   S    
C76   C150  A    
C109  C190  S    
C34   N9    A    
C32   H162  S    
C19   C28   A    
C158  C163  A    
C128  C216  S    
C110  H21   S    
C156  C161  A    
C16   C23   A    
C57   C94   A    
C126  H62   S    
C48   C59   A    
C54   C148  A    
C154  H140  S    
C72   H123  S    
C106  H10   S    
C56   C170  A    
C198  C207  A    
C64   C78   S    
N7    Ni8   S    
C18   H90   S    
N8    Ni7   S    
N5    N14   A    
C77   C86   A    
C51   N26   A    
C98   H171  S    
C92   H134  S    
C102  H183  S    
N11   Ni1   S    
C184  H46   S    
N9    N32   A    
C94   H136  S    
C137  H88   S    
C117  C118  S    
C21   H99   S    
N23   Ni2   S    
C118  H37   S    
C75   C149  A    
C119  H44   S    
C99   O4    S    
C55   C159  A    
C199  C208  A    
C43   N18   A    
C113  C141  A    
C4    C183  A    
C9    C12   A    
C152  H138  S    
C49   H117  S    
C109  H23   S    
C44   H113  S    
C40   C66   A    
C69   C221  A    
C185  H57   S    
C125  H52   S    
C90   C144  A    
C48   H116  S    
C25   C33   A    
C201  O5    S    
C78   C87   A    
C57   C158  A    
C144  C161  A    
C173  C199  A    
C27   H157  S    
C62   C215  A    
C185  C194  A    
C59   C174  S    
C65   C86   S    
C140  H93   S    
C11   C19   A    
C103  H184  S    
N14   Ni4   S    
C160  C164  A    
C127  H58   S    
N12   Ni2   S    
C9    C206  A    
C98   H173  S    
C123  C125  S    
C3    C33   A    
C45   N20   A    
C205  C222  A    
C37   H105  S    
C117  C191  S    
C32   C224  A    
C46   C135  A    
C110  H19   S    
C79   C214  A    
N6    N15   A    
C8    C14   A    
C96   H165  S    
C157  H144  S    
C199  O3    S    
C72   C81   A    
C122  H48   S    
C81   C89   A    
C35   C92   A    
C197  O1    S    
C132  H78   S    
N19   Ni5   S    
N19   N27   A    
C59   C192  A    
C55   C171  S    
C98   O3    S    
C213  N32   A    
C170  H130  S    
C102  H181  S    
C148  H108  S    
C122  H49   S    
C123  H56   S    
N24   Ni7   S    
C97   H168  S    
C103  H4    S    
C8    C18   A    
C131  H70   S    
C87   H129  S    
N5    Ni7   S    
N28   Ni3   S    
N6    Ni8   S    
N26   Ni8   S    
C104  H6    S    
C155  C168  A    
C22   H100  S    
C93   H135  S    
N12   N21   A    
C51   C58   A    
C121  C122  S    
C178  C187  A    
C20   H98   S    
C108  H14   S    
C183  H35   S    
C123  C213  S    
C105  H12   S    
C161  H147  S    
C17   C26   A    
C73   C82   A    
C146  C163  A    
C1    H1    S    
C90   C124  A    
N2    N10   A    
N10   Ni1   S    
C4    C26   A    
C119  C120  S    
C136  H80   S    
C25   H102  S    
C47   H115  S    
C172  C189  A    
C79   C135  A    
C105  C106  S    
C174  C200  A    
C37   N11   A    
C23   C32   A    
C42   H111  S    
C109  C110  S    
C74   H125  S    
C125  H53   S    
N1    N20   A    
C111  C114  S    
C112  N12   A    
C1    C52   A    
C163  H149  S    
C117  H39   S    
C60   C175  S    
C176  C194  A    
C43   H112  S    
C72   C145  A    
C71   C144  A    
C116  H31   S    
C140  H92   S    
C142  C151  A    
C70   C78   A    
C105  H11   S    
N22   N30   A    
C83   C92   A    
C6    C185  A    
C20   C29   A    
C3    C208  A    
C33   H164  S    
C96   O1    S    
C65   C218  A    
C138  H86   S    
C112  H97   S    
C70   H121  S    
C114  H26   S    
C107  C187  S    
C127  H59   S    
C196  C205  A    
C217  N4    A    
C15   C211  A    
C136  H81   S    
C87   C214  A    
C17   H79   S    
C28   H158  S    
C132  C133  S    
C51   H120  S    
N8    N17   A    
C107  H18   S    
C2    C88   A    
C21   C30   A    
C24   C155  A    
C139  H94   S    
N4    Ni5   S    
N2    Ni6   S    
C215  N2    A    
N15   Ni3   S    
C67   C84   S    
C71   C80   A    
C202  O8    S    
C169  C196  A    
N18   N23   A    
C6    C28   A    
C88   H131  S    
C22   C31   A    
C14   C210  A    
C130  H73   S    
C162  H148  S    
C108  H16   S    
C186  C195  A    
C16   C212  A    
C35   C156  A    
C175  C201  A    
C40   H109  S    
C134  C136  S    
N3    N11   A    
C76   C85   A    
C135  C149  A    
C46   C157  A    
C42   C69   A    
C36   H104  S    
C155  H142  S    
C179  C223  A    
C204  O7    S    
C130  C217  S    
C10   C207  A    
C121  H51   S    
C69   C83   S    
C147  C166  A    
C134  H83   S    
C85   C94   A    
C60   C203  A    
C118  H38   S    
C206  C223  A    
C133  H74   S    
C133  H75   S    
C131  H71   S    
N30   Ni4   S    
C172  C198  A    
C31   C223  A    
C53   C112  A    
C9    C17   A    
C109  H22   S    
C2    C153  A    
C156  H143  S    
C11   C208  A    
C100  H179  S    
C200  O6    S    
C24   C91   A    
C201  C210  A    
C198  O4    S    
C99   H175  S    
C168  H155  S    
C196  O2    S    
C120  H41   S    
C77   H128  S    
C13   C89   A    
C129  H64   S    
C18   C27   A    
C178  H174  S    
N17   Ni4   S    
C115  H34   S    
C183  C191  A    
N27   Ni1   S    
C145  C164  A    
C39   H107  S    
C137  C138  S    
N13   Ni2   S    
C73   C146  A    
C99   H177  S    
C171  C197  A    
C36   N10   A    
C104  O8    S    
C46   C93   A    
C26   H156  S    
C180  H13   S    
C91   H133  S    
C137  C220  S    
C97   H169  S    
C106  H8    S    
C58   C177  S    
C48   N22   A    
C115  C193  S    
N26   N29   A    
C126  C215  S    
C129  H65   S    
C110  H20   S    
C24   C113  A    
C50   N25   A    
C126  H61   S    
C98   H172  S    
C41   H110  S    
C38   C64   A    
C178  C222  A    
C219  N6    A    
C96   H166  S    
C170  N28   A    
N22   Ni8   S    
