data_mof_unit_25708.cif
_audit_creation_date              2012-12-11T15:54:08-0500
_audit_creation_method            fapswitch 2.2
_symmetry_space_group_name_H-M    P1
_symmetry_Int_Tables_number       1
_space_group_crystal_system       triclinic
_cell_length_a                    10.689723
_cell_length_b                    10.864039
_cell_length_c                    16.978525
_cell_angle_alpha                 80.670175
_cell_angle_beta                  99.775647
_cell_angle_gamma                 118.460411
_cell_volume                      1700.79076336

loop_
_atom_site_label
_atom_site_type_symbol
_atom_type_description
_atom_site_fract_x
_atom_site_fract_y
_atom_site_fract_z
_atom_type_partial_charge
C1    C     C_R   0.384516 0.283599 0.632252 0.531897
C2    C     C_1   0.333275 0.186688 0.781918 -0.031848
C3    C     C_1   0.343189 0.662446 0.276923 0.007233
C4    C     C_R   0.413266 0.621922 0.601607 0.541727
C5    C     C_1   0.332510 0.673581 0.205931 0.011936
C6    C     C_R   0.855246 0.680749 0.163083 0.025414
C7    C     C_R   0.939150 0.643127 0.224012 0.061313
C8    C     C_R   0.923828 0.636939 0.303915 -0.052582
C9    C     C_R   0.743843 0.716726 0.261634 -0.104355
C10   C     C_R   0.757558 0.718869 0.181494 -0.095481
C11   C     C_3   0.929084 0.501053 0.235868 0.164921
C12   C     C_R   0.513471 0.711890 0.735601 -0.154418
C13   C     C_3   0.927253 0.499883 0.323866 -0.204289
C14   C     C_R   0.821977 0.668199 0.322947 0.014825
C15   C     C_R   0.278693 0.065249 0.182823 -0.075720
C16   C     C_R   0.776448 0.618116 0.626715 0.526505
C17   C     C_R   0.160615 0.041553 0.218804 0.016114
C18   C     C_R   0.175299 0.070596 0.297008 -0.066689
C19   C     C_R   0.414478 0.096863 0.317403 0.224114
C20   C     C_R   0.409342 0.089288 0.233739 0.195879
C21   C     C_3   0.061964 0.104719 0.190660 0.155538
C22   C     C_3   0.073163 0.131064 0.277103 -0.209227
C23   C     C_R   0.491477 0.727362 0.811594 -0.140432
C24   C     C_R   0.308590 0.118970 0.343103 -0.038616
C25   C     C_R   0.891562 0.702029 0.856201 0.550263
C26   C     C_R   0.316149 0.706740 0.898667 0.537927
C27   C     C_R   0.286276 0.118226 0.858558 0.562846
C28   C     C_R   0.347558 0.217685 0.403639 0.580414
C29   C     C_R   0.887465 0.691914 0.083189 0.551741
C30   C     C_R   0.315658 0.700821 0.122837 0.539581
C31   C     C_R   0.252998 0.046511 0.096289 0.591197
C32   C     C_R   0.367315 0.652606 0.360357 0.570796
C33   C     C_R   0.770331 0.622480 0.400110 0.541026
C34   C     C_3   0.094603 0.503408 0.768290 -0.248516
C35   C     C_R   0.353379 0.653242 0.837436 0.018927
C36   C     C_R   0.248902 0.543444 0.793861 0.013834
C37   C     C_R   0.271388 0.527027 0.719285 0.012140
C38   C     C_3   0.867501 0.059007 0.093805 -0.086236
C39   C     C_3   0.013278 0.385046 0.177234 -0.088700
C40   C     C_3   0.119036 0.484709 0.686539 -0.243861
C41   C     C_R   0.398284 0.620937 0.685562 0.000989
C42   C     C_1   0.822623 0.655750 0.706082 -0.053585
C43   C     C_1   0.850220 0.684328 0.773888 -0.050558
C44   C     C_1   0.365016 0.233451 0.714816 -0.034744
Cr1   Cr    Cr6+3 0.608440 0.389080 0.519680 1.075009
Cr2   Cr    Cr6+3 0.288640 0.400090 0.490760 1.018439
Cr3   Cr    Cr6+3 0.602940 0.710800 0.489510 1.087196
Cr4   Cr    Cr6+3 0.052530 0.947560 0.964210 1.009825
Cr5   Cr    Cr6+3 0.059970 0.626800 0.992920 1.009595
Cr6   Cr    Cr6+3 0.373320 0.938440 0.995370 1.086330
H1    H     H_    0.616796 0.778882 0.713730 0.140443
H2    H     H_    0.022351 0.403137 0.800780 0.148463
H3    H     H_    0.061410 0.373486 0.672026 0.151462
H4    H     H_    0.107169 0.561962 0.638174 0.164209
H5    H     H_    0.662488 0.740340 0.275081 0.140476
H6    H     H_    0.691204 0.747416 0.134629 0.128318
H7    H     H_    0.727023 0.179094 0.471379 0.340173
H8    H     H_    0.619644 0.980440 0.204194 0.363646
H9    H     H_    0.937677 0.098348 0.044732 0.132303
H10   H     H_    0.846861 0.143149 0.107727 0.135365
H11   H     H_    0.763390 0.974611 0.070845 0.152196
H12   H     H_    0.827513 0.432822 0.201850 0.208834
H13   H     H_    0.954290 0.390892 0.117476 0.163780
H14   H     H_    0.947120 0.286035 0.212697 0.159240
H15   H     H_    0.113490 0.387815 0.166710 0.109613
H16   H     H_    0.828566 0.412415 0.345193 0.221076
H17   H     H_    0.027503 0.511116 0.361193 0.173285
H18   H     H_    0.114439 0.200516 0.149159 0.096168
H19   H     H_    0.125026 0.244498 0.285465 0.133193
H20   H     H_    0.972712 0.065476 0.305986 0.192655
H21   H     H_    0.578362 0.807944 0.845813 0.141269
H22   H     H_    0.069542 0.591956 0.767023 0.157623
O1    O     O_R   0.754020 0.497590 0.609930 -0.515960
O2    O     O_R   0.406180 0.826930 0.920660 -0.524862
O3    O     O_R   0.358620 0.062870 0.901950 -0.484862
O4    O     O_R   0.481420 0.271390 0.600630 -0.471395
O5    O     O_R   0.163910 0.085460 0.050210 -0.530568
O6    O     O_R   0.935200 0.815170 0.045770 -0.500545
O7    O     O_R   0.916120 0.596690 0.069430 -0.507091
O8    O     O_R   0.192310 0.631200 0.086170 -0.483727
O9    O     O_R   0.406770 0.819480 0.096420 -0.493386
O10   O     O_R   0.359170 0.055960 0.064880 -0.401038
O11   O     O_3   0.161940 0.837600 0.984160 -0.287904
O12   O     O_R   0.295080 0.533620 0.397890 -0.505715
O13   O     O_R   0.263810 0.254550 0.589590 -0.506627
O14   O     O_R   0.300820 0.531200 0.560890 -0.514373
O15   O     O_R   0.491480 0.744020 0.564270 -0.449464
O16   O     O_R   0.726290 0.693800 0.583010 -0.518565
O17   O     O_R   0.747830 0.500190 0.434090 -0.493386
O18   O     O_R   0.475680 0.273800 0.437630 -0.413798
O19   O     O_R   0.257620 0.257160 0.413750 -0.527929
O20   O     O_2   0.459758 0.965996 0.458682 -0.273629
O21   O     O_2   0.611287 0.999731 0.355692 -0.257264
O22   O     O_3   0.670712 0.211448 0.428736 -0.491728
O23   O     O_R   0.485280 0.746620 0.388440 -0.433618
O24   O     O_2   0.588773 0.272423 0.128179 -0.299107
O25   O     O_2   0.697421 0.217069 0.257505 -0.317900
O26   O     O_3   0.594582 0.034037 0.156844 -0.499173
O27   O     O_3   0.924151 0.003443 0.163177 -0.551607
O28   O     O_3   0.052064 0.501770 0.218555 -0.566341
O29   O     O_R   0.720550 0.696220 0.420010 -0.504192
O30   O     O_3   0.500010 0.499990 0.499980 -0.322038
O31   O     O_R   0.163320 0.092900 0.874450 -0.510271
O32   O     O_R   0.934650 0.822080 0.882840 -0.501691
O33   O     O_R   0.915520 0.604140 0.893670 -0.513370
O34   O     O_R   0.191760 0.638110 0.923230 -0.507804
S1    S     S_3+6 0.539769 0.064434 0.391049 0.062504
S2    S     S_3+6 0.575968 0.157188 0.193695 0.008997

loop_
_geom_bond_atom_site_label_1
_geom_bond_atom_site_label_2
_ccdc_geom_bond_type
C8    C13   S    
Cr3   O29   S    
C16   C42   S    
C19   C20   A    
H8    O26   S    
C11   H12   S    
C25   C43   S    
C14   C33   S    
C25   O33   A    
C7    C8    A    
C4    O15   A    
C7    C11   S    
C39   H14   S    
Cr2   O30   S    
C12   C23   A    
C31   O10   A    
Cr1   O4    S    
C33   O29   A    
C36   C37   A    
C37   C40   S    
Cr6   O2    S    
C21   O27   S    
C4    O14   A    
C4    C41   S    
Cr4   O32   S    
O26   S2    S    
Cr1   O1    S    
Cr4   O6    S    
O20   S1    D    
O25   S2    D    
C29   O6    A    
C35   C36   A    
C2    C44   T    
C2    C27   S    
C9    H5    S    
C10   H6    S    
C9    C10   A    
C22   H19   S    
C38   H11   S    
C30   O8    A    
O24   S2    D    
Cr3   O30   S    
C21   C22   S    
C39   H15   S    
C26   O34   A    
C27   O3    A    
Cr6   O11   S    
C31   O5    A    
C13   H16   S    
C1    O13   A    
C15   C20   A    
C32   O12   A    
O22   S1    S    
C16   O1    A    
C23   H21   S    
C18   C24   A    
Cr5   O33   S    
Cr2   O19   S    
Cr4   O31   S    
C17   C21   S    
Cr5   O7    S    
C11   O28   S    
Cr3   O15   S    
Cr4   O5    S    
C9    C14   A    
C12   C41   A    
C33   O17   A    
C1    C44   S    
C29   O7    A    
C6    C29   S    
C17   C18   A    
Cr1   O18   S    
C6    C7    A    
C38   H10   S    
C23   C35   A    
H7    O22   S    
C21   H18   S    
Cr2   O12   S    
C42   C43   T    
C34   H22   S    
C12   H1    S    
Cr1   O17   S    
Cr6   O10   S    
C5    C30   S    
C13   H17   S    
C15   C17   A    
C8    C14   A    
C18   C22   S    
C1    O4    A    
C34   H2    S    
C24   C28   S    
C38   O27   S    
C3    C5    T    
C6    C10   A    
Cr5   O8    S    
C25   O32   A    
C15   C31   S    
Cr5   O34   S    
C39   H13   S    
C40   H4    S    
Cr4   O11   S    
Cr3   O16   S    
Cr2   O13   S    
C30   O9    A    
C19   C24   A    
Cr6   O3    S    
O21   S1    D    
C11   C13   S    
Cr5   O11   S    
C39   O28   S    
C27   O31   A    
C26   O2    A    
C28   O19   A    
C34   C36   S    
C37   C41   A    
C3    C32   S    
Cr1   O30   S    
C38   H9    S    
C26   C35   S    
C32   O23   A    
C40   H3    S    
C16   O16   A    
Cr3   O23   S    
C34   C40   S    
C28   O18   A    
Cr2   O14   S    
C22   H20   S    
Cr6   O9    S    
C20   S2    S    
C19   S1    S    
