data_mof_unit_8377.cif
_audit_creation_date              2012-12-10T17:27:49-0500
_audit_creation_method            fapswitch 2.2
_symmetry_space_group_name_H-M    P1
_symmetry_Int_Tables_number       1
_space_group_crystal_system       triclinic
_cell_length_a                    10.637319
_cell_length_b                    12.04082
_cell_length_c                    12.894522
_cell_angle_alpha                 93.749066
_cell_angle_beta                  91.368895
_cell_angle_gamma                 85.9701
_cell_volume                      1643.63879788

loop_
_atom_site_label
_atom_site_type_symbol
_atom_type_description
_atom_site_fract_x
_atom_site_fract_y
_atom_site_fract_z
_atom_type_partial_charge
C1    C     C_R   0.495768 0.522108 0.700295 0.859557
C2    C     C_R   0.503217 0.639776 0.863367 -0.230851
C3    C     C_R   0.489402 0.439587 0.866927 -0.158649
C4    C     C_R   0.739479 0.499238 0.497648 0.828810
C5    C     C_R   0.501788 0.446400 0.973881 0.051278
C6    C     C_R   0.520514 0.551407 0.025683 -0.010391
C7    C     C_R   0.540041 0.558791 0.132521 0.404642
C8    C     C_R   0.502841 0.361231 0.137449 -0.352369
C9    C     C_R   0.496105 0.350285 0.029343 0.433238
C10   C     C_R   0.356213 0.955281 0.422166 0.436587
C11   C     C_R   0.372463 0.838770 0.433447 -0.194861
C12   C     C_R   0.936198 0.428982 0.411642 0.052636
C13   C     C_R   0.568400 0.857675 0.522615 0.579214
C14   C     C_R   0.554441 0.975142 0.517860 -0.155258
C15   C     C_R   0.447380 0.025433 0.468147 -0.195219
C16   C     C_R   0.509894 0.478150 0.300008 0.931631
C17   C     C_R   0.437114 0.144738 0.466446 0.498742
C18   C     C_R   0.626145 0.159666 0.567353 0.526875
C19   C     C_R   0.645823 0.043026 0.562747 -0.370851
C20   C     C_R   0.260409 0.499700 0.495146 0.903437
C21   C     C_R   0.873265 0.358076 0.338694 -0.192894
C22   C     C_R   0.939694 0.293423 0.262238 -0.239388
C23   C     C_R   0.871667 0.497018 0.489548 -0.053484
C24   C     C_R   0.067799 0.303708 0.252095 -0.108988
C25   C     C_R   0.130721 0.378439 0.318501 0.485571
C26   C     C_R   0.067113 0.435643 0.404813 -0.021269
C27   C     C_3   0.220081 0.949728 0.276473 0.088615
C28   C     C_3   0.324465 0.957859 0.196948 -0.411981
C29   C     C_3   0.289508 0.901801 0.091639 -0.903460
C30   C     C_3   0.667500 0.796248 0.671798 0.117122
C31   C     C_3   0.780240 0.841412 0.733392 -0.397425
C32   C     C_3   0.792698 0.795453 0.841140 -0.966340
C33   C     C_3   0.696711 0.679291 0.169154 0.027093
C34   C     C_R   0.932933 0.567252 0.560500 -0.172856
C35   C     C_3   0.771288 0.661501 0.270031 -0.266936
C36   C     C_3   0.909781 0.683774 0.259726 -0.973749
C37   C     C_R   0.060944 0.567909 0.558854 -0.221603
C38   C     C_R   0.127691 0.500861 0.484137 -0.107800
C39   C     C_R   0.520102 0.465259 0.188550 -0.202536
C40   C     C_R   0.494282 0.535120 0.811754 -0.081477
C41   C     C_R   0.517290 0.647960 0.970088 -0.168676
H1    H     H_    0.881728 0.618558 0.619772 0.157669
H2    H     H_    0.491104 0.289163 0.181522 0.188326
H3    H     H_    0.525895 0.729841 0.008485 0.171376
H4    H     H_    0.476897 0.190291 0.028087 0.330660
H5    H     H_    0.347498 0.166643 0.338764 0.339157
H6    H     H_    0.779952 0.179842 0.648966 0.315921
H7    H     H_    0.132834 0.993736 0.246272 0.171904
H8    H     H_    0.196150 0.862120 0.282011 0.131821
H9    H     H_    0.339071 0.046936 0.186893 0.210612
H10   H     H_    0.414737 0.916496 0.224370 0.231947
H11   H     H_    0.278271 0.811571 0.098953 0.272531
H12   H     H_    0.502117 0.714691 0.821553 0.152565
H13   H     H_    0.365477 0.910223 0.035650 0.260001
H14   H     H_    0.200239 0.941855 0.060876 0.257997
H15   H     H_    0.671378 0.705859 0.682543 0.195986
H16   H     H_    0.578661 0.836289 0.705992 0.105323
H17   H     H_    0.868619 0.818172 0.690519 0.241353
H18   H     H_    0.768162 0.933596 0.744275 0.217848
H19   H     H_    0.706241 0.819432 0.886250 0.262670
H20   H     H_    0.874366 0.830362 0.883841 0.270373
H21   H     H_    0.808265 0.703071 0.834560 0.265137
H22   H     H_    0.252648 0.482926 0.297084 0.301023
H23   H     H_    0.477645 0.359244 0.826223 0.219011
H24   H     H_    0.700989 0.767632 0.150237 0.158530
H25   H     H_    0.742757 0.627058 0.103967 0.133714
H26   H     H_    0.729531 0.718146 0.333553 0.260852
H27   H     H_    0.764964 0.574029 0.290145 0.199503
H28   H     H_    0.954737 0.624656 0.199613 0.263925
H29   H     H_    0.960106 0.672185 0.335082 0.278945
H30   H     H_    0.918709 0.770704 0.238324 0.260364
H31   H     H_    0.732698 0.006402 0.594047 0.186810
H32   H     H_    0.300945 0.784263 0.405870 0.168348
H33   H     H_    0.772549 0.352063 0.338690 0.159320
H34   H     H_    0.890556 0.238519 0.207886 0.159195
H35   H     H_    0.117181 0.258161 0.188360 0.152395
H36   H     H_    0.108644 0.618995 0.617784 0.156097
N1    N     N_R   0.523130 0.207800 0.519340 -0.137557
N2    N     N_R   0.476870 0.792180 0.480660 -0.161974
O1    O     O_R   0.506170 0.421690 0.658830 -0.588388
O2    O     O_3   0.343347 0.199798 0.410963 -0.664309
O3    O     O_3   0.710834 0.227129 0.617777 -0.720552
O4    O     O_3   0.247765 0.002593 0.375359 -0.617272
O5    O     O_3   0.679007 0.809037 0.563928 -0.637647
O6    O     O_3   0.249455 0.400700 0.290591 -0.762431
O7    O     O_3   0.568341 0.659786 0.183018 -0.626358
O8    O     O_R   0.491330 0.609320 0.646410 -0.651379
O9    O     O_R   0.690660 0.406170 0.506210 -0.568989
O10   O     O_R   0.675810 0.593790 0.493790 -0.601761
O11   O     O_R   0.508670 0.390680 0.353590 -0.601360
O12   O     O_R   0.493830 0.578310 0.341170 -0.576828
O13   O     O_R   0.324190 0.406210 0.506210 -0.528108
O14   O     O_R   0.309340 0.593830 0.493790 -0.650097
O15   O     O_3   0.479226 0.248239 0.977037 -0.780176
Zn1   Zn    Zn3+2 0.509910 0.374720 0.508290 1.042311
Zn2   Zn    Zn3+2 0.490090 0.625280 0.491710 0.957932

loop_
_geom_bond_atom_site_label_1
_geom_bond_atom_site_label_2
_ccdc_geom_bond_type
C27   H7    S    
C1    O8    A    
C20   O14   A    
C13   N2    A    
C16   O11   A    
C34   C37   A    
C35   C36   S    
C34   H1    S    
C8    H2    S    
C33   H24   S    
O11   Zn1   S    
C3    H23   S    
C20   O13   A    
C12   C23   A    
C31   H17   S    
C28   C29   S    
C32   H20   S    
C10   C15   A    
C5    C6    A    
C28   H10   S    
C7    O7    S    
C29   H13   S    
C2    C41   A    
C30   H16   S    
C10   O4    S    
C18   C19   A    
H6    O3    S    
C31   H18   S    
C1    C40   S    
C18   O3    S    
O12   Zn2   S    
C28   H9    S    
C8    C9    A    
C6    C41   A    
C8    C39   A    
C36   H30   S    
O9    Zn1   S    
C21   C22   A    
H22   O6    S    
C19   H31   S    
C22   H34   S    
H4    O15   S    
C36   H29   S    
C33   H25   S    
C24   C25   A    
C11   H32   S    
C4    C23   S    
C26   C38   A    
C29   H14   S    
C25   C26   A    
C37   H36   S    
C21   H33   S    
O13   Zn1   S    
C12   C26   A    
C33   O7    S    
C5    C9    A    
C37   C38   A    
H5    O2    S    
C20   C38   S    
C31   C32   S    
C13   O5    S    
C35   H26   S    
N1    Zn1   S    
C18   N1    A    
C23   C34   A    
O8    Zn2   S    
C25   O6    S    
O1    Zn1   S    
C11   N2    A    
C3    C40   A    
O14   Zn2   S    
C41   H3    S    
C22   C24   A    
C32   H19   S    
C36   H28   S    
C4    O10   A    
C15   C17   A    
C14   C19   A    
C24   H35   S    
C3    C5    A    
C2    H12   S    
C6    C7    A    
C4    O9    A    
O10   Zn2   S    
C27   O4    S    
C32   H21   S    
N2    Zn2   S    
C30   C31   S    
C30   H15   S    
C35   H27   S    
C12   C21   A    
C17   N1    A    
C33   C35   S    
C17   O2    S    
C30   O5    S    
C10   C11   A    
C16   C39   S    
C2    C40   A    
C16   O12   A    
C27   C28   S    
C1    O1    A    
C7    C39   A    
C14   C15   A    
C13   C14   A    
C9    O15   S    
C27   H8    S    
C29   H11   S    
