data_mof_unit_54343.cif
_audit_creation_date              2013-03-05T15:53:36-0500
_audit_creation_method            fapswitch 2.2
_symmetry_space_group_name_H-M    P1
_symmetry_Int_Tables_number       1
_space_group_crystal_system       triclinic
_cell_length_a                    9.900497
_cell_length_b                    10.685873
_cell_length_c                    13.621627
_cell_angle_alpha                 91.423397
_cell_angle_beta                  83.043377
_cell_angle_gamma                 89.530366
_cell_volume                      1429.96439067

loop_
_atom_site_label
_atom_site_type_symbol
_atom_site_description
_atom_site_fract_x
_atom_site_fract_y
_atom_site_fract_z
_atom_type_partial_charge
O1    O     O_R   0.385310 0.683220 0.500000 -0.664789
O2    O     O_R   0.614640 0.683250 0.500010 -0.643541
C1    C     C_R   0.499553 0.740461 0.494214 0.844307
O3    O     O_R   0.368830 0.499960 0.640340 -0.588270
O4    O     O_R   0.598160 0.499980 0.640350 -0.633325
C2    C     C_R   0.475648 0.500828 0.685670 0.907929
Zn1   Zn    Zn3+2 0.346870 0.499980 0.499990 1.008629
Zn2   Zn    Zn3+2 0.653130 0.500020 0.500010 0.942525
O5    O     O_R   0.385360 0.316750 0.499990 -0.556009
O6    O     O_R   0.614690 0.316780 0.500000 -0.626978
O7    O     O_R   0.401840 0.500020 0.359650 -0.589855
O8    O     O_R   0.631170 0.500040 0.359660 -0.609851
C3    C     C_R   0.498158 0.261413 0.511836 0.922183
C4    C     C_R   0.524302 0.499528 0.314339 0.899967
C5    C     C_1   0.542619 0.499220 0.210526 -0.191538
C6    C     C_2   0.558196 0.499136 0.018818 -0.158200
C7    C     C_2   0.440831 0.500488 0.981198 -0.162235
C8    C     C_1   0.444858 0.500910 0.877291 0.036849
C9    C     C_1   0.554387 0.499061 0.122710 0.008209
C10   C     C_1   0.457060 0.501045 0.789475 -0.111939
H1    H     H_    0.343351 0.501299 0.027594 0.157118
H2    H     H_    0.655654 0.498336 0.972401 0.166310
H3    H     H_    0.715167 0.887414 0.494115 0.170291
C11   C     C_R   0.248017 0.895195 0.472210 -0.161915
H4    H     H_    0.245705 0.811848 0.425982 0.170730
C12   C     C_R   0.124716 0.957941 0.499305 -0.207024
H5    H     H_    0.031236 0.919132 0.478521 0.157416
C13   C     C_R   0.120878 0.066551 0.557889 -0.186052
H6    H     H_    0.023175 0.108140 0.585646 0.172697
C14   C     C_R   0.242199 0.120012 0.581450 0.354087
C15   C     C_R   0.369098 0.065277 0.540182 -0.010177
C16   C     C_R   0.370670 0.943033 0.501162 0.052222
C17   C     C_R   0.495859 0.875197 0.492948 -0.090176
C18   C     C_R   0.618255 0.936754 0.501118 -0.220880
H7    H     H_    0.715006 0.110869 0.512091 0.172419
C19   C     C_R   0.618036 0.063837 0.515474 -0.207745
C20   C     C_R   0.494455 0.129324 0.529967 -0.075916
H8    H     H_    0.891759 0.354262 0.394432 0.160636
C21   C     C_R   0.838353 0.667659 0.627211 -0.132916
H9    H     H_    0.730503 0.673820 0.632733 0.200328
C22   C     C_R   0.898180 0.749622 0.689647 -0.208742
H10   H     H_    0.835524 0.814382 0.738232 0.158386
C23   C     C_R   0.037747 0.747685 0.690536 -0.170635
H11   H     H_    0.084031 0.811040 0.739632 0.157191
C24   C     C_R   0.118317 0.664273 0.628558 -0.092692
H12   H     H_    0.224478 0.667267 0.634185 0.195137
C25   C     C_R   0.061461 0.581669 0.562926 0.074202
C26   C     C_R   0.916959 0.582490 0.562472 0.154895
N1    N     N_R   0.857120 0.501200 0.500900 -0.135882
C27   C     C_R   0.938729 0.420500 0.440722 -0.240932
C28   C     C_R   0.083206 0.421628 0.438994 0.586777
N2    N     N_R   0.142720 0.501280 0.500940 -0.149849
O9    O     O_3   0.165023 0.336429 0.380608 -0.575964
C29   C     C_3   0.152361 0.354922 0.279898 -0.308079
H13   H     H_    0.237441 0.304671 0.234439 0.200771
H14   H     H_    0.159806 0.455601 0.260554 0.150998
H15   H     H_    0.056060 0.314756 0.259646 0.152308
N3    N     N_R   0.235384 0.220246 0.654546 0.209905
O10   O     O_R   0.329287 0.230303 0.713282 -0.429626
O11   O     O_R   0.127604 0.291822 0.671087 -0.403688

loop_
_geom_bond_atom_site_label_1
_geom_bond_atom_site_label_2
_geom_bond_distance
_ccdc_geom_bond_type
C7    C8    1.411237 S    
O1    C1    1.285224 A    
O4    Zn2   1.923190 S    
C5    C9    1.187685 T    
C23   H11   1.082773 S    
C11   C16   1.416894 A    
C25   N2    1.373382 A    
H8    C27   1.081245 S    
C22   C23   1.383287 A    
C22   H10   1.082796 S    
C29   H13   1.109515 S    
C3    C20   1.438963 S    
C15   C16   1.397240 A    
Zn2   O8    1.950110 S    
H3    C18   1.083839 S    
C16   C17   1.421912 A    
C13   C14   1.402717 A    
C17   C18   1.398421 A    
O6    C3    1.295375 A    
C21   C22   1.390970 A    
O1    Zn1   1.997782 S    
O9    C29   1.411182 S    
Zn1   O7    1.923190 S    
C23   C24   1.389733 A    
C12   H5    1.082869 S    
C14   C15   1.427264 A    
C19   C20   1.395075 A    
O3    Zn1   1.950110 S    
C14   N3    1.439696 S    
O3    C2    1.287575 A    
C26   N1    1.378983 A    
C18   C19   1.367133 A    
O8    C4    1.287930 A    
Zn1   N2    2.019593 S    
O2    C1    1.300389 A    
C8    C10   1.187674 T    
C24   C25   1.409289 A    
C6    C9    1.411134 S    
O4    C2    1.292492 A    
O7    C4    1.292071 A    
C29   H14   1.114883 S    
C6    C7    1.325639 D    
C1    C17   1.440527 S    
N3    O11   1.301631 A    
C28   N2    1.369899 A    
C15   C20   1.415946 A    
C2    C10   1.403569 S    
C11   H4    1.079928 S    
Zn2   O6    1.997780 S    
N1    C27   1.364339 A    
C21   H9    1.062666 S    
Zn1   O5    1.991641 S    
O5    C3    1.288568 A    
C4    C5    1.403639 S    
C13   H6    1.082670 S    
C6    H2    1.087492 S    
C27   C28   1.427891 A    
N3    O10   1.301362 A    
C24   H12   1.063745 S    
C12   C13   1.389660 A    
Zn2   N1    2.021247 S    
C29   H15   1.110807 S    
O2    Zn2   1.991643 S    
C25   C26   1.431362 A    
C11   C12   1.393251 A    
C21   C26   1.412042 A    
C28   O9    1.383262 S    
H7    C19   1.083857 S    
C7    H1    1.087541 S    
