data_mof_unit_64016.cif
_audit_creation_date              2012-12-11T14:39:32-0500
_audit_creation_method            fapswitch 2.2
_symmetry_space_group_name_H-M    P1
_symmetry_Int_Tables_number       1
_space_group_crystal_system       triclinic
_cell_length_a                    8.222595
_cell_length_b                    15.067554
_cell_length_c                    17.340163
_cell_angle_alpha                 99.143375
_cell_angle_beta                  97.29772
_cell_angle_gamma                 99.196742
_cell_volume                      2068.02160716

loop_
_atom_site_label
_atom_site_type_symbol
_atom_type_description
_atom_site_fract_x
_atom_site_fract_y
_atom_site_fract_z
_atom_type_partial_charge
Ba1   Ba    Ba6+2 0.844730 0.540500 0.462170 1.644019
Ba2   Ba    Ba6+2 0.345110 0.459580 0.537840 1.657921
C1    C     C_3   0.384661 0.779027 0.199837 -0.387440
C2    C     C_3   0.385981 0.490250 0.217683 -0.013164
C3    C     C_2   0.313223 0.494067 0.133528 -0.092932
C4    C     C_3   0.987738 0.731341 0.258924 0.350547
C5    C     C_2   0.145423 0.479497 0.111257 -0.000435
C6    C     C_2   0.036423 0.460265 0.172385 -0.124776
C7    C     C_1   0.103820 0.464092 0.246978 0.071346
C8    C     C_R   0.892951 0.458400 0.859010 -0.125566
C9    C     C_R   0.824184 0.450164 0.779774 0.011982
C10   C     C_R   0.084053 0.530261 0.751912 0.065153
C11   C     C_R   0.153675 0.539643 0.832207 -0.121682
C12   C     C_3   0.488705 0.736838 0.258197 0.314374
C13   C     C_R   0.060292 0.501880 0.886558 0.006309
C14   C     C_2   0.064277 0.476525 0.028070 -0.077689
C15   C     C_2   0.141692 0.508816 0.970648 -0.078743
C16   C     C_3   0.930288 0.761926 0.182032 -0.340005
C17   C     C_R   0.921491 0.482459 0.726161 -0.286776
C18   C     C_R   0.766916 0.236749 0.532882 -0.291293
C19   C     C_R   0.865174 0.178899 0.562344 0.010223
C20   C     C_R   0.799102 0.085602 0.555419 -0.108443
C21   C     C_R   0.634715 0.048037 0.515040 0.016464
C22   C     C_R   0.543881 0.108277 0.480916 -0.127108
C23   C     C_3   0.395460 0.298678 0.294973 0.340266
C24   C     C_R   0.609079 0.201147 0.490200 0.019753
C25   C     C_R   0.393577 0.912337 0.467565 -0.129232
C26   C     C_R   0.328450 0.818810 0.453853 0.011678
C27   C     C_R   0.587022 0.789923 0.516869 0.077529
C28   C     C_3   0.282837 0.744317 0.642028 0.310190
C29   C     C_R   0.654843 0.883571 0.530608 -0.085356
C30   C     C_R   0.561037 0.947217 0.504247 0.015973
C31   C     C_R   0.426750 0.757655 0.475934 -0.293330
C32   C     C_3   0.320520 0.847872 0.667394 -0.387931
C33   C     C_3   0.917087 0.258898 0.364974 0.360460
C34   C     C_3   0.340851 0.257654 0.207701 -0.352023
C35   C     C_3   0.876915 0.154921 0.343877 0.503756
C36   C     C_3   0.782244 0.669719 0.700813 0.308319
C37   C     C_3   0.821531 0.700204 0.790169 -0.384943
C38   C     C_1   0.612726 0.810124 0.309847 0.248241
C39   C     C_1   0.645789 0.125888 0.799561 0.294121
C40   C     C_3   0.112362 0.277798 0.752789 0.340715
C41   C     C_3   0.147796 0.256160 0.835313 -0.353251
C42   C     C_3   0.568823 0.226278 0.706979 0.348170
C43   C     C_3   0.531515 0.131845 0.729129 -0.250680
C44   C     C_2   0.260267 0.502358 0.272745 -0.271175
F1    F     F_    0.009454 0.122218 0.314952 -0.682267
H1    H     H_    0.425676 0.868243 0.717399 0.129525
H2    H     H_    0.464218 0.812081 0.161258 0.127689
H3    H     H_    0.928340 0.758503 0.805748 0.130053
H4    H     H_    0.854264 0.643466 0.818877 0.060758
H5    H     H_    0.711027 0.721750 0.813085 0.129075
H6    H     H_    0.403622 0.703107 0.294382 -0.050737
H7    H     H_    0.324198 0.831404 0.231696 0.119775
H8    H     H_    0.283783 0.314899 0.320068 0.038763
H9    H     H_    0.489152 0.362222 0.300928 0.010666
H10   H     H_    0.254821 0.191148 0.201038 0.177385
H11   H     H_    0.274311 0.303987 0.177382 0.050491
H12   H     H_    0.355189 0.881056 0.617895 0.059365
H13   H     H_    0.451414 0.246649 0.179250 0.109104
H14   H     H_    0.287337 0.724596 0.161729 0.108473
H15   H     H_    0.859405 0.702021 0.138149 0.104223
H16   H     H_    0.192647 0.344028 0.751327 0.088201
H17   H     H_    0.979180 0.284020 0.741113 -0.052943
H18   H     H_    0.116238 0.310104 0.879349 0.080195
H19   H     H_    0.071552 0.189339 0.838247 0.136848
H20   H     H_    0.281825 0.252959 0.850230 0.149098
H21   H     H_    0.700282 0.239834 0.696600 -0.078682
H22   H     H_    0.485169 0.225107 0.651130 0.087227
H23   H     H_    0.208718 0.872328 0.686235 0.128172
H24   H     H_    0.545985 0.079003 0.679283 0.032634
H25   H     H_    0.875640 0.703567 0.282454 0.118143
H26   H     H_    0.401216 0.117535 0.740957 0.125271
H27   H     H_    0.271589 0.541970 0.985148 0.078245
H28   H     H_    0.902756 0.439087 0.154431 0.101320
H29   H     H_    0.813459 0.430593 0.897545 0.073261
H30   H     H_    0.933041 0.446846 0.015567 0.075876
H31   H     H_    0.398125 0.502357 0.091157 0.073393
H32   H     H_    0.280195 0.576394 0.852235 0.090170
H33   H     H_    0.298096 0.540936 0.332608 0.067937
H34   H     H_    0.810033 0.284417 0.387004 -0.127006
H35   H     H_    0.866961 0.475247 0.664846 0.070461
H36   H     H_    0.308726 0.955607 0.450234 0.100846
H37   H     H_    0.063954 0.677493 0.246594 -0.006705
H38   H     H_    0.879863 0.044301 0.580290 0.072065
H39   H     H_    0.779613 0.904508 0.562800 0.074335
H40   H     H_    0.424630 0.085060 0.443829 0.100923
H41   H     H_    0.374579 0.685382 0.465760 0.068731
H42   H     H_    0.818085 0.308571 0.537808 0.069484
H43   H     H_    0.848308 0.813018 0.192756 0.146035
H44   H     H_    0.038553 0.793344 0.157210 0.108379
H45   H     H_    0.027442 0.279062 0.412054 0.048955
H46   H     H_    0.396033 0.720859 0.625125 0.007735
H47   H     H_    0.180076 0.725697 0.590918 0.053529
H48   H     H_    0.763576 0.132742 0.298330 0.029993
H49   H     H_    0.853795 0.125432 0.396886 -0.053297
H50   H     H_    0.894503 0.650958 0.678619 0.011844
H51   H     H_    0.679118 0.609552 0.686932 0.067848
N1    N     N_1   0.710827 0.868404 0.349665 -0.255840
N2    N     N_1   0.735688 0.121161 0.855163 -0.295699
O1    O     O_2   0.823140 0.439340 0.307240 -0.461173
O2    O     O_2   0.200341 0.180942 0.551193 -0.475738
O3    O     O_3   0.148236 0.207523 0.697595 -0.602480
O4    O     O_3   0.097070 0.445850 0.405300 -0.499508
O5    O     O_3   0.592380 0.611270 0.541370 -0.494007
O6    O     O_2   0.323920 0.276750 0.459260 -0.446696
O7    O     O_3   0.466197 0.234935 0.332400 -0.628925
O8    O     O_2   0.489541 0.462150 0.782286 -0.490564
O9    O     O_3   0.539010 0.293070 0.767422 -0.603176
O10   O     O_3   0.627590 0.606740 0.357340 -0.486931
O11   O     O_2   0.728422 0.544121 0.222475 -0.504406
O12   O     O_3   0.736599 0.742478 0.667525 -0.636126
O13   O     O_3   0.947864 0.293655 0.297035 -0.629531
O14   O     O_3   0.572260 0.676890 0.214427 -0.617963
O15   O     O_2   0.865800 0.723280 0.540790 -0.464546
O16   O     O_3   0.060870 0.655550 0.397490 -0.506402
O17   O     O_2   0.990313 0.820194 0.452411 -0.458507
O18   O     O_3   0.081709 0.806310 0.313314 -0.603327
O19   O     O_2   0.366580 0.560690 0.692810 -0.463906
O20   O     O_3   0.092650 0.554230 0.594710 -0.501130
O21   O     O_3   0.562120 0.393340 0.642670 -0.489097
O22   O     O_3   0.237211 0.706151 0.706136 -0.634597
O23   O     O_3   0.597340 0.388800 0.458640 -0.478490
O24   O     O_3   0.128850 0.344520 0.602520 -0.491932
P1    P     P_3+3 0.993190 0.413330 0.319190 0.989915
P2    P     P_3+3 0.695930 0.711340 0.564320 0.985402
P3    P     P_3+3 0.113486 0.774683 0.406254 0.957818
P4    P     P_3+3 0.196530 0.586750 0.680820 0.980245
P5    P     P_3+3 0.085240 0.226897 0.602436 0.953413
P6    P     P_3+3 0.577076 0.577325 0.254112 0.938419
P7    P     P_3+3 0.500477 0.273610 0.434711 0.983311
P8    P     P_3+3 0.603483 0.401026 0.744631 0.947775

loop_
_geom_bond_atom_site_label_1
_geom_bond_atom_site_label_2
_ccdc_geom_bond_type
C37   H4    S    
C11   H32   S    
C40   H17   S    
C43   H24   S    
C23   H9    S    
C36   H51   S    
C40   O3    S    
C38   N1    T    
C1    H2    S    
C5    C6    S    
C2    C44   S    
Ba2   O23   S    
C4    H25   S    
C9    C17   A    
O15   P2    D    
O5    P2    S    
C16   H44   S    
C33   C35   S    
C31   H41   S    
C22   C24   A    
C14   H30   S    
C28   H46   S    
C34   H11   S    
C8    C13   A    
C36   C37   S    
C1    H7    S    
O13   P1    S    
C27   C31   A    
C35   H48   S    
C43   H26   S    
Ba1   Ba2   S    
C20   H38   S    
C8    H29   S    
O4    P1    S    
C28   O22   S    
C14   C15   D    
O16   P3    S    
O1    P1    D    
C21   C22   A    
O2    P5    D    
O10   P6    S    
Ba1   O16   S    
C35   F1    S    
C17   H35   S    
C32   H23   S    
O12   P2    S    
C26   P3    S    
O19   P4    D    
C37   H5    S    
C7    C44   D    
C29   H39   S    
C19   C20   A    
C9    P8    S    
O14   P6    S    
C36   H50   S    
C42   O9    S    
C1    H14   S    
C33   H34   S    
O6    P7    D    
C4    C16   S    
C4    H37   S    
C28   C32   S    
C16   H43   S    
Ba1   P2    S    
O7    P7    S    
C34   H10   S    
C3    C5    D    
Ba2   O20   S    
C6    C7    D    
C2    P6    S    
C12   O14   S    
Ba2   O6    S    
C6    H28   S    
C7    P1    S    
C35   H49   S    
Ba1   O20   S    
Ba1   O23   S    
Ba1   O10   S    
O3    P5    S    
O11   P6    D    
C29   C30   A    
Ba2   O4    S    
C41   H18   S    
C37   H3    S    
O9    P8    S    
C39   N2    T    
C42   H22   S    
C10   C11   A    
O17   P3    D    
Ba1   O4    S    
C19   P5    S    
C1    C12   S    
C41   H20   S    
C5    C14   S    
C26   C31   A    
C11   C13   A    
C32   H12   S    
C42   H21   S    
C32   H1    S    
O18   P3    S    
O21   P8    S    
C36   O12   S    
Ba1   O1    S    
C42   C43   S    
C23   O7    S    
Ba2   O21   S    
C13   C15   S    
O23   P7    S    
C25   C30   A    
C16   H15   S    
C23   H8    S    
Ba1   P1    S    
C2    C3    S    
C34   H13   S    
Ba2   O19   S    
O20   P4    S    
C10   P4    S    
Ba2   O24   S    
C18   H42   S    
Ba2   O5    S    
C21   C30   S    
C25   H36   S    
C27   C29   A    
C33   H45   S    
C44   H33   S    
C15   H27   S    
C18   C24   A    
C41   H19   S    
C10   C17   A    
O24   P5    S    
C33   O13   S    
O22   P4    S    
C22   H40   S    
O8    P8    D    
C8    C9    A    
C23   C34   S    
C12   C38   S    
C12   H6    S    
C18   C19   A    
C28   H47   S    
C40   C41   S    
C25   C26   A    
C39   C43   S    
C20   C21   A    
Ba1   O15   S    
C3    H31   S    
C27   P2    S    
C40   H16   S    
C4    O18   S    
C24   P7    S    
Ba1   O5    S    
Ba2   P4    S    
