data_mof_unit_22522.cif
_audit_creation_date              2012-12-11T14:13:16-0500
_audit_creation_method            fapswitch 2.2
_symmetry_space_group_name_H-M    P1
_symmetry_Int_Tables_number       1
_space_group_crystal_system       triclinic
_cell_length_a                    17.075564
_cell_length_b                    17.750241
_cell_length_c                    17.606537
_cell_angle_alpha                 89.878344
_cell_angle_beta                  89.916273
_cell_angle_gamma                 89.78747
_cell_volume                      5336.40557698

loop_
_atom_site_label
_atom_site_type_symbol
_atom_type_description
_atom_site_fract_x
_atom_site_fract_y
_atom_site_fract_z
_atom_type_partial_charge
C1    C     C_R   0.603883 0.306723 0.109079 0.527712
C2    C     C_R   0.186255 0.093683 0.627066 0.500636
C3    C     C_3   0.788226 0.418711 0.017532 -0.118779
C4    C     C_3   0.634438 0.211596 0.894581 -0.197020
C5    C     C_3   0.194111 0.376509 0.987487 -0.217484
C6    C     C_3   0.368001 0.789561 0.891701 -0.187170
C7    C     C_3   0.801586 0.620557 0.993688 -0.195482
C8    C     C_3   0.134493 0.309665 0.583611 -0.152825
C9    C     C_3   0.712636 0.080289 0.519100 -0.101724
C10   C     C_3   0.879760 0.690369 0.625848 -0.277623
C11   C     C_3   0.287915 0.920000 0.519752 -0.092589
C12   C     C_3   0.131588 0.710371 0.392002 -0.185946
C13   C     C_R   0.897400 0.191766 0.612570 0.512894
C14   C     C_3   0.697576 0.879117 0.492229 -0.196399
C15   C     C_3   0.881777 0.291005 0.390251 -0.132171
C16   C     C_3   0.308054 0.118324 0.486466 -0.205656
C17   C     C_R   0.818620 0.911358 0.633653 0.479623
C18   C     C_R   0.108234 0.195373 0.400345 0.516152
C19   C     C_R   0.172591 0.919923 0.359042 0.436886
C20   C     C_R   0.890483 0.806357 0.398139 0.475716
C21   C     C_R   0.828005 0.079912 0.358783 0.437450
C22   C     C_R   0.593996 0.681817 0.128546 0.612332
C23   C     C_R   0.304307 0.605177 0.107382 0.634441
C24   C     C_R   0.406191 0.318350 0.129128 0.625383
C25   C     C_R   0.680596 0.587838 0.134331 0.480892
C26   C     C_R   0.695745 0.394466 0.106877 0.638209
C27   C     C_R   0.586855 0.326543 0.861499 0.659293
C28   C     C_R   0.300526 0.393572 0.907296 0.743787
C29   C     C_R   0.413645 0.673364 0.861166 0.649591
C30   C     C_R   0.699785 0.606935 0.907643 0.729982
C31   C     C_R   0.100802 0.188379 0.616191 0.676542
C32   C     C_R   0.804758 0.104854 0.608561 0.636470
C33   C     C_R   0.905651 0.817751 0.628255 0.610543
C34   C     C_R   0.195244 0.895773 0.608881 0.617288
C35   C     C_R   0.086332 0.826748 0.361261 0.648237
C36   C     C_R   0.395793 0.693266 0.108705 0.536412
C37   C     C_R   0.800317 0.893382 0.407047 0.728380
C38   C     C_R   0.915798 0.171827 0.359964 0.603093
C39   C     C_R   0.199341 0.106817 0.407091 0.747108
C40   C     C_R   0.680075 0.322780 0.130706 -0.172370
C41   C     C_R   0.656922 0.654219 0.169330 -0.156563
C42   C     C_R   0.319902 0.676713 0.131083 -0.170880
C43   C     C_R   0.343567 0.346176 0.170461 -0.166289
C44   C     C_R   0.687928 0.680872 0.887326 -0.172601
C45   C     C_R   0.643403 0.361610 0.816662 -0.159023
C46   C     C_R   0.312717 0.320290 0.886103 -0.182820
C47   C     C_R   0.319253 0.411768 0.134328 0.485736
C48   C     C_R   0.356982 0.638671 0.816518 -0.156676
C49   C     C_R   0.179616 0.824158 0.632812 -0.171025
C50   C     C_R   0.167356 0.165371 0.653777 -0.229677
C51   C     C_R   0.821421 0.175447 0.634672 -0.179245
C52   C     C_R   0.842215 0.844851 0.668656 -0.157713
C53   C     C_R   0.187771 0.181458 0.388467 -0.225907
C54   C     C_R   0.143066 0.861423 0.316477 -0.156678
C55   C     C_R   0.812304 0.819625 0.386380 -0.170980
C56   C     C_R   0.858414 0.137910 0.315542 -0.144510
C57   C     C_2   0.816459 0.722792 0.837599 0.345997
C58   C     C_R   0.609637 0.693902 0.898637 0.473918
C59   C     C_2   0.358287 0.714136 0.698024 0.389813
C60   C     C_2   0.190559 0.288909 0.820850 0.365434
C61   C     C_2   0.642687 0.285941 0.698699 0.387617
C62   C     C_2   0.805144 0.252418 0.143625 0.421386
C63   C     C_2   0.353812 0.277226 0.289975 0.405857
C64   C     C_2   0.194822 0.746571 0.144961 0.419991
C65   C     C_2   0.647505 0.718940 0.290480 0.416349
C66   C     C_2   0.315200 0.217217 0.333317 0.362439
C67   C     C_2   0.859158 0.213123 0.196446 0.390976
C68   C     C_2   0.684150 0.778354 0.335920 0.344361
C69   C     C_R   0.672595 0.420305 0.859108 0.438296
C70   C     C_2   0.141448 0.786218 0.198025 0.389830
C71   C     C_2   0.304537 0.753785 0.645415 0.421186
C72   C     C_2   0.852243 0.781986 0.790921 0.415316
C73   C     C_2   0.696748 0.246301 0.646406 0.424409
C74   C     C_2   0.154888 0.233431 0.771255 0.412478
C75   C     C_2   0.745975 0.738246 0.868156 -0.255794
C76   C     C_2   0.326613 0.661349 0.742533 -0.219325
C77   C     C_2   0.255095 0.266996 0.858517 -0.264950
C78   C     C_2   0.673982 0.339054 0.742737 -0.218110
C79   C     C_2   0.735591 0.275579 0.171603 -0.216865
C80   C     C_R   0.390467 0.306134 0.898854 0.474661
C81   C     C_2   0.309603 0.309988 0.236514 -0.214361
C82   C     C_2   0.264531 0.723487 0.172424 -0.214333
C83   C     C_2   0.691286 0.691437 0.233843 -0.243516
C84   C     C_2   0.250473 0.235906 0.372835 -0.277676
C85   C     C_2   0.827821 0.160558 0.241507 -0.214206
C86   C     C_2   0.754271 0.762493 0.366921 -0.255477
C87   C     C_2   0.173392 0.838773 0.242410 -0.221135
C88   C     C_2   0.235290 0.777314 0.673724 -0.214494
C89   C     C_2   0.808225 0.807702 0.733607 -0.243428
C90   C     C_2   0.765973 0.223052 0.674909 -0.200997
C91   C     C_R   0.327461 0.580071 0.859186 0.436835
C92   C     C_2   0.200563 0.206941 0.715611 -0.257738
C93   C     C_3   0.592936 0.181929 0.147156 -0.111379
C94   C     C_3   0.802144 0.569333 0.193147 -0.132977
C95   C     C_3   0.404210 0.819191 0.143535 -0.120527
C96   C     C_3   0.193908 0.427778 0.184733 -0.152860
C97   C     C_3   0.568964 0.805634 0.945926 -0.136258
C98   C     C_3   0.803680 0.435243 0.831227 -0.154626
C99   C     C_3   0.429642 0.190403 0.937018 -0.136244
C100  C     C_3   0.196146 0.566504 0.832144 -0.133834
C101  C     C_3   0.096314 0.681042 0.644938 -0.119167
C102  C     C_R   0.104194 0.806984 0.609410 0.542928
C103  C     C_3   0.307865 0.079184 0.687855 -0.130852
C104  C     C_3   0.916436 0.310655 0.662427 -0.082420
C105  C     C_3   0.695709 0.927580 0.690860 -0.130312
C106  C     C_3   0.090937 0.318531 0.358649 -0.071681
C107  C     C_3   0.304095 0.932484 0.332190 -0.135742
C108  C     C_3   0.930579 0.695209 0.447514 -0.136631
C109  C     C_3   0.696550 0.067035 0.332306 -0.151345
C110  C     C_3   0.621415 0.808714 0.123796 -0.281019
C111  C     C_3   0.211667 0.579274 0.019001 -0.106569
C112  C     C_3   0.372105 0.194344 0.115041 -0.297081
H1    H     H_    0.725464 0.796335 0.867960 0.120838
H2    H     H_    0.771029 0.138580 0.225965 0.091783
H3    H     H_    0.351185 0.931330 0.511509 0.144598
H4    H     H_    0.143406 0.729809 0.450928 0.150435
H5    H     H_    0.185758 0.714139 0.357053 0.116830
H6    H     H_    0.114899 0.650124 0.395198 0.163710
H7    H     H_    0.670747 0.918110 0.533776 0.168782
H8    H     H_    0.740688 0.842735 0.522479 0.062922
H9    H     H_    0.649382 0.843365 0.470993 0.175315
H10   H     H_    0.876904 0.276540 0.451609 0.164755
H11   H     H_    0.823570 0.286449 0.362241 0.099821
H12   H     H_    0.900040 0.350761 0.386313 0.148603
H13   H     H_    0.774348 0.704263 0.367522 0.121313
H14   H     H_    0.332998 0.078936 0.528818 0.171911
H15   H     H_    0.269365 0.159039 0.516616 0.077999
H16   H     H_    0.358555 0.148886 0.461885 0.168782
H17   H     H_    0.896674 0.651072 0.807572 0.307201
H18   H     H_    0.444892 0.779132 0.672256 0.319015
H19   H     H_    0.123919 0.367482 0.779037 0.306705
H20   H     H_    0.556551 0.220241 0.673754 0.318923
H21   H     H_    0.875885 0.239405 0.058960 0.306112
H22   H     H_    0.454949 0.255707 0.333767 0.297064
H23   H     H_    0.123276 0.759012 0.061001 0.305810
H24   H     H_    0.230038 0.860759 0.226146 0.092783
H25   H     H_    0.547563 0.730125 0.340565 0.298750
H26   H     H_    0.382429 0.141540 0.287528 0.309827
H27   H     H_    0.945759 0.277734 0.169609 0.311241
H28   H     H_    0.605141 0.850744 0.304374 0.307990
H29   H     H_    0.054533 0.721467 0.173021 0.318821
H30   H     H_    0.375013 0.740393 0.560623 0.306194
H31   H     H_    0.952107 0.773391 0.841397 0.298644
H32   H     H_    0.626318 0.258822 0.561583 0.306036
H33   H     H_    0.053846 0.243499 0.819765 0.297287
H34   H     H_    0.219799 0.765801 0.732508 0.069709
H35   H     H_    0.747723 0.789857 0.728220 0.102594
H36   H     H_    0.781337 0.235069 0.733529 0.064181
H37   H     H_    0.261664 0.223399 0.711673 0.113276
H38   H     H_    0.586899 0.205147 0.205651 0.130448
H39   H     H_    0.651741 0.156786 0.137858 0.104868
H40   H     H_    0.550174 0.135327 0.142137 0.155492
H41   H     H_    0.269976 0.639340 0.726539 0.092369
H42   H     H_    0.791039 0.579866 0.254351 0.140412
H43   H     H_    0.822072 0.620899 0.162920 0.089383
H44   H     H_    0.851203 0.528312 0.190122 0.173810
H45   H     H_    0.410580 0.797490 0.202656 0.131462
H46   H     H_    0.344946 0.842982 0.133502 0.108700
H47   H     H_    0.445975 0.866487 0.137151 0.152409
H48   H     H_    0.196924 0.418310 0.246980 0.124601
H49   H     H_    0.179743 0.374948 0.153841 0.077701
H50   H     H_    0.144446 0.467216 0.174707 0.176678
H51   H     H_    0.537505 0.858523 0.931555 0.160283
H52   H     H_    0.271629 0.207750 0.858640 0.121053
H53   H     H_    0.628554 0.821564 0.965043 0.080854
H54   H     H_    0.535143 0.777170 0.991376 0.205842
H55   H     H_    0.826049 0.440814 0.772302 0.134860
H56   H     H_    0.804888 0.374498 0.847773 0.060329
H57   H     H_    0.845548 0.465376 0.868281 0.186043
H58   H     H_    0.461097 0.138799 0.918582 0.162345
H59   H     H_    0.369456 0.173113 0.953304 0.078929
H60   H     H_    0.462557 0.214090 0.985727 0.199098
H61   H     H_    0.173463 0.561388 0.773367 0.132139
H62   H     H_    0.195635 0.627196 0.848653 0.056442
H63   H     H_    0.730464 0.361381 0.726456 0.095343
H64   H     H_    0.154125 0.536638 0.869499 0.182013
H65   H     H_    0.089577 0.702884 0.703897 0.129857
H66   H     H_    0.155682 0.657351 0.635215 0.109334
H67   H     H_    0.054703 0.633635 0.638790 0.153045
H68   H     H_    0.292008 0.092864 0.747439 0.140339
H69   H     H_    0.330215 0.128813 0.656045 0.096883
H70   H     H_    0.356828 0.038041 0.690650 0.173440
H71   H     H_    0.923923 0.280324 0.717473 0.115083
H72   H     H_    0.859045 0.339977 0.659844 0.091488
H73   H     H_    0.961899 0.355083 0.660253 0.163893
H74   H     H_    0.719874 0.263845 0.230285 0.071145
H75   H     H_    0.706330 0.917628 0.752256 0.141343
H76   H     H_    0.677287 0.875468 0.660951 0.089444
H77   H     H_    0.645805 0.967579 0.687024 0.176022
H78   H     H_    0.111024 0.293608 0.303838 0.104154
H79   H     H_    0.133132 0.361069 0.379325 0.080948
H80   H     H_    0.036661 0.350551 0.346344 0.174545
H81   H     H_    0.327091 0.937352 0.273421 0.131582
H82   H     H_    0.304030 0.871810 0.349042 0.058260
H83   H     H_    0.346222 0.962022 0.369453 0.179993
H84   H     H_    0.961308 0.641734 0.434006 0.159907
H85   H     H_    0.247456 0.297737 0.234358 0.076479
H86   H     H_    0.870837 0.680336 0.467314 0.081715
H87   H     H_    0.964972 0.723989 0.492137 0.206186
H88   H     H_    0.673486 0.062031 0.273660 0.133648
H89   H     H_    0.696506 0.127754 0.348727 0.062096
H90   H     H_    0.654594 0.037399 0.369920 0.183735
H91   H     H_    0.594630 0.859775 0.098209 0.152858
H92   H     H_    0.670656 0.790457 0.086371 0.098902
H93   H     H_    0.644848 0.826074 0.179424 0.185018
H94   H     H_    0.245995 0.534531 0.992616 0.185934
H95   H     H_    0.224952 0.633473 0.990032 0.137174
H96   H     H_    0.280801 0.735419 0.230824 0.070126
H97   H     H_    0.148627 0.566686 0.011231 0.146964
H98   H     H_    0.397710 0.140952 0.093602 0.158961
H99   H     H_    0.330248 0.215934 0.071548 0.097378
H100  H     H_    0.339514 0.180164 0.167348 0.181262
H101  H     H_    0.754801 0.463687 0.990402 0.186633
H102  H     H_    0.773603 0.364500 0.989483 0.139355
H103  H     H_    0.851515 0.429888 0.009201 0.149320
H104  H     H_    0.645089 0.232192 0.953316 0.151753
H105  H     H_    0.688935 0.215983 0.860187 0.117837
H106  H     H_    0.619081 0.151060 0.898563 0.165058
H107  H     H_    0.752184 0.708017 0.228322 0.101136
H108  H     H_    0.159327 0.412910 0.025923 0.162682
H109  H     H_    0.236619 0.343903 0.022497 0.071122
H110  H     H_    0.152201 0.337334 0.960557 0.168992
H111  H     H_    0.355838 0.769775 0.950575 0.149013
H112  H     H_    0.314029 0.785983 0.856609 0.116565
H113  H     H_    0.384653 0.849793 0.895049 0.164128
H114  H     H_    0.826994 0.581094 0.035699 0.169952
H115  H     H_    0.758394 0.657444 0.023171 0.061128
H116  H     H_    0.850681 0.655788 0.973223 0.176531
H117  H     H_    0.107823 0.359563 0.555634 0.172015
H118  H     H_    0.240066 0.294837 0.384525 0.103309
H119  H     H_    0.174565 0.282884 0.541439 0.109008
H120  H     H_    0.168069 0.330399 0.633195 0.128349
H121  H     H_    0.746114 0.034656 0.493148 0.183563
H122  H     H_    0.727517 0.134079 0.490084 0.136735
H123  H     H_    0.649384 0.069131 0.510718 0.146126
H124  H     H_    0.906679 0.639700 0.599751 0.153583
H125  H     H_    0.829284 0.707840 0.589682 0.099435
H126  H     H_    0.858094 0.672698 0.682177 0.185870
H127  H     H_    0.254304 0.964877 0.492629 0.182011
H128  H     H_    0.273458 0.865826 0.491567 0.136225
N1    N     N_R   0.574080 0.369570 0.076720 -0.136059
N2    N     N_R   0.130430 0.074080 0.576720 -0.149314
N3    N     N_R   0.925920 0.130430 0.576720 -0.132296
N4    N     N_R   0.869570 0.925920 0.576720 -0.146265
N5    N     N_R   0.074080 0.130430 0.423280 -0.141708
N6    N     N_R   0.130430 0.925920 0.423280 -0.159824
N7    N     N_R   0.925920 0.869570 0.423280 -0.149791
N8    N     N_R   0.869570 0.074080 0.423280 -0.160109
N9    N     N_R   0.574050 0.630410 0.076720 -0.158390
N10   N     N_R   0.369590 0.574050 0.076720 -0.154374
N11   N     N_R   0.425950 0.369590 0.076720 -0.158958
N12   N     N_R   0.630430 0.574080 0.076720 -0.145250
N13   N     N_R   0.630410 0.425950 0.076720 -0.152498
N14   N     N_R   0.574050 0.369590 0.923280 -0.155087
N15   N     N_R   0.369590 0.425950 0.923280 -0.151716
N16   N     N_R   0.425950 0.630410 0.923280 -0.154626
N17   N     N_R   0.630410 0.574050 0.923280 -0.150623
N18   N     N_R   0.074050 0.130410 0.576720 -0.144297
N19   N     N_R   0.869590 0.074050 0.576720 -0.157432
N20   N     N_R   0.925950 0.869590 0.576720 -0.158129
N21   N     N_R   0.130410 0.925950 0.576720 -0.155959
N22   N     N_R   0.074050 0.869590 0.423280 -0.154997
N23   N     N_R   0.425920 0.630430 0.076720 -0.135786
N24   N     N_R   0.869590 0.925950 0.423280 -0.153338
N25   N     N_R   0.925950 0.130410 0.423280 -0.145162
N26   N     N_R   0.130410 0.074050 0.423280 -0.160673
N27   N     N_R   0.369570 0.425920 0.076720 -0.148559
N28   N     N_R   0.574080 0.630430 0.923280 -0.148157
N29   N     N_R   0.630430 0.425920 0.923280 -0.159852
N30   N     N_R   0.425920 0.369570 0.923280 -0.146490
N31   N     N_R   0.369570 0.574080 0.923280 -0.159782
N32   N     N_R   0.074080 0.869570 0.576720 -0.135579
Ni1   Ni    Ni4+2 0.500000 0.370760 0.000000 0.219655
Ni2   Ni    Ni4+2 0.629240 0.500000 0.000000 0.207835
Ni3   Ni    Ni4+2 0.500000 0.629240 0.000000 0.216773
Ni4   Ni    Ni4+2 0.370760 0.500000 0.000000 0.207469
Ni5   Ni    Ni4+2 1.000000 0.870760 0.500000 0.213199
Ni6   Ni    Ni4+2 0.129240 1.000000 0.500000 0.205905
Ni7   Ni    Ni4+2 1.000000 0.129240 0.500000 0.269025
Ni8   Ni    Ni4+2 0.870760 1.000000 0.500000 0.203950
O1    O     O_3   0.576319 0.235753 0.090244 -0.596865
O2    O     O_3   0.244741 0.044626 0.650469 -0.584787
O3    O     O_3   0.925969 0.263392 0.598624 -0.565611
O4    O     O_3   0.761468 0.961662 0.656977 -0.586707
O5    O     O_3   0.075669 0.265224 0.416783 -0.570394
O6    O     O_3   0.230454 0.969306 0.336492 -0.568191
O7    O     O_3   0.927191 0.739319 0.381537 -0.548344
O8    O     O_3   0.770269 0.030410 0.336484 -0.574203
O9    O     O_3   0.562525 0.753455 0.132639 -0.570523
O10   O     O_3   0.228195 0.581290 0.096806 -0.565299
O11   O     O_3   0.433752 0.245181 0.130163 -0.565018
O12   O     O_3   0.736015 0.536399 0.159097 -0.585201
O13   O     O_3   0.771808 0.418269 0.095478 -0.567162
O14   O     O_3   0.571949 0.250380 0.859400 -0.527513
O15   O     O_3   0.229903 0.423126 0.932308 -0.582490
O16   O     O_3   0.430222 0.749149 0.857942 -0.524822
O17   O     O_3   0.770076 0.577535 0.933433 -0.580539
O18   O     O_3   0.073644 0.261296 0.607343 -0.560086
O19   O     O_3   0.728307 0.082286 0.597111 -0.564219
O20   O     O_3   0.937980 0.746474 0.632914 -0.572444
O21   O     O_3   0.271366 0.919348 0.597718 -0.561560
O22   O     O_3   0.069566 0.751012 0.358196 -0.524982
O23   O     O_3   0.422144 0.764341 0.088194 -0.602062
O24   O     O_3   0.729817 0.922719 0.432498 -0.579181
O25   O     O_3   0.938345 0.245752 0.353472 -0.560391
O26   O     O_3   0.270121 0.075494 0.429695 -0.579920
O27   O     O_3   0.844153 0.649847 0.831610 -0.709292
O28   O     O_3   0.435495 0.735447 0.706200 -0.686529
O29   O     O_3   0.170027 0.363920 0.813100 -0.700239
O30   O     O_3   0.565643 0.264122 0.707307 -0.685355
O31   O     O_3   0.824715 0.264179 0.068598 -0.765084
O32   O     O_3   0.433915 0.287606 0.292167 -0.733613
O33   O     O_3   0.174518 0.734264 0.070299 -0.762850
O34   O     O_3   0.263295 0.462407 0.159136 -0.573518
O35   O     O_3   0.568584 0.702823 0.295838 -0.731439
O36   O     O_3   0.332171 0.143066 0.315773 -0.703612
O37   O     O_3   0.936605 0.233988 0.203533 -0.712205
O38   O     O_3   0.657358 0.851555 0.328896 -0.707598
O39   O     O_3   0.064161 0.765197 0.206624 -0.687296
O40   O     O_3   0.323850 0.765184 0.570273 -0.764656
O41   O     O_3   0.930802 0.799607 0.796086 -0.733328
O42   O     O_3   0.677569 0.234290 0.571424 -0.761333
O43   O     O_3   0.076097 0.216262 0.775539 -0.750694
O44   O     O_3   0.572666 0.760541 0.880808 -0.547565
O45   O     O_3   0.729425 0.470743 0.836309 -0.574280
O46   O     O_3   0.428221 0.241481 0.876143 -0.543736
O47   O     O_3   0.270061 0.530273 0.836737 -0.568083
O48   O     O_3   0.078594 0.735685 0.589137 -0.602061

loop_
_geom_bond_atom_site_label_1
_geom_bond_atom_site_label_2
_ccdc_geom_bond_type
C30   N17   A    
C36   C42   A    
C23   O10   S    
N26   Ni6   S    
C69   O45   S    
C58   O44   S    
C85   H2    S    
C79   H74   S    
C11   O21   S    
C3    H103  S    
C95   H46   S    
C76   H41   S    
C110  H92   S    
C74   C92   D    
C57   O27   S    
N21   N32   A    
C13   C51   A    
C98   H57   S    
N21   Ni6   S    
C48   C91   A    
N9    Ni3   S    
C26   O13   S    
C45   C78   S    
N10   Ni4   S    
C11   H3    S    
C14   H9    S    
N2    N18   A    
C52   C89   S    
C29   O16   S    
C32   O19   S    
C6    H112  S    
C7    O17   S    
C67   C85   D    
C45   C69   A    
C105  H77   S    
C107  O6    S    
C25   C41   A    
C49   C102  A    
C35   O22   S    
C36   N23   A    
C65   C68   S    
C38   O25   S    
C111  H94   S    
C8    O18   S    
H33   O43   S    
N2    Ni6   S    
C31   C50   A    
N11   N27   A    
C47   N27   A    
C103  H69   S    
C87   H24   S    
C24   N11   A    
H25   O35   S    
C46   C77   S    
N8    N25   A    
C3    H101  S    
C68   O38   S    
N15   Ni4   S    
H30   O40   S    
C55   C86   S    
C1    O1    S    
N20   Ni5   S    
H17   O27   S    
C7    H115  S    
C96   H50   S    
C24   O11   S    
C71   C88   D    
C104  H71   S    
C14   H7    S    
C92   H37   S    
C24   C43   A    
C95   O23   S    
C93   H40   S    
C43   C47   A    
C98   H56   S    
H27   O37   S    
C4    H104  S    
C9    H123  S    
C106  O5    S    
C48   C76   S    
C64   O33   S    
N4    N20   A    
C106  H80   S    
C91   O47   S    
C82   H96   S    
C34   O21   S    
C33   C52   A    
H19   O29   S    
C28   C46   A    
N29   Ni2   S    
C53   C84   S    
C95   H47   S    
C35   N22   A    
C109  H90   S    
C73   C90   D    
C23   N10   A    
N13   Ni2   S    
C51   C90   S    
C97   H54   S    
C6    H113  S    
C103  H68   S    
C101  H66   S    
C2    C50   A    
C17   O4    S    
H23   O33   S    
C94   H43   S    
C75   H1    S    
C77   H52   S    
C5    H110  S    
C70   C87   D    
N31   Ni4   S    
N16   N31   A    
C15   H12   S    
C112  H99   S    
C101  H65   S    
C99   H60   S    
C11   H128  S    
N22   Ni5   S    
C10   O20   S    
C12   H5    S    
C83   H107  S    
C8    H117  S    
C40   C79   S    
C2    N2    A    
C19   C54   A    
C110  O9    S    
N23   Ni3   S    
C100  H62   S    
C78   H63   S    
C43   C81   S    
N1    N13   A    
C106  H78   S    
C96   O34   S    
C84   H118  S    
C36   O23   S    
C72   O41   S    
C89   H35   S    
N9    N12   A    
C34   N21   A    
C95   H45   S    
C26   N13   A    
C65   O35   S    
C66   O36   S    
N14   N29   A    
C4    H106  S    
C80   O46   S    
C57   C75   D    
C108  H87   S    
C37   N24   A    
C46   C80   A    
C18   N5    A    
C61   O30   S    
N12   Ni2   S    
C110  H93   S    
C27   N14   A    
C63   C66   S    
C37   C55   A    
C38   C56   A    
C10   H125  S    
C112  O11   S    
C63   O32   S    
C59   C76   D    
C107  H82   S    
C19   N6    A    
C47   O34   S    
N15   N30   A    
C67   O37   S    
C15   H10   S    
C111  H95   S    
N30   Ni1   S    
C28   N15   A    
C93   H38   S    
C2    O2    S    
C99   H58   S    
C73   O42   S    
C37   O24   S    
N17   Ni2   S    
C102  N32   A    
C105  H76   S    
C38   N25   A    
C81   H85   S    
C8    H119  S    
C22   C41   A    
C100  O47   S    
C17   C52   A    
N1    Ni1   S    
C22   O9    S    
C18   C53   A    
C109  O8    S    
C20   N7    A    
C44   C58   A    
C97   H51   S    
C100  H64   S    
C108  H84   S    
C103  O2    S    
N6    N22   A    
C27   C45   A    
C101  O48   S    
C35   C54   A    
C49   C88   S    
C30   C44   A    
C97   O44   S    
C107  H83   S    
N14   Ni1   S    
C21   N8    A    
N27   Ni4   S    
C25   O12   S    
H31   O41   S    
C39   O26   S    
C3    O13   S    
C60   O29   S    
C13   O3    S    
C61   C73   S    
C19   O6    S    
C9    H121  S    
C110  H91   S    
C20   O7    S    
C112  H98   S    
N7    Ni5   S    
C32   C51   A    
C31   O18   S    
N5    Ni7   S    
N3    N19   A    
C111  O10   S    
C12   H6    S    
C104  H72   S    
C14   H8    S    
C93   H39   S    
N3    Ni7   S    
C6    H111  S    
C9    H122  S    
C10   H124  S    
C21   C56   A    
C109  H89   S    
C104  O3    S    
C56   C85   S    
C39   C53   A    
C97   H53   S    
C57   C72   S    
C108  H86   S    
N10   N23   A    
C9    O19   S    
H32   O42   S    
C69   N29   A    
C34   C49   A    
C94   H44   S    
C58   N28   A    
C109  H88   S    
H20   O30   S    
C16   H14   S    
H21   O31   S    
C5    H109  S    
N32   Ni5   S    
C103  H70   S    
C68   C86   D    
N5    N26   A    
C42   C82   S    
C93   O1    S    
C39   N26   A    
C18   O5    S    
C3    H102  S    
C104  H73   S    
C23   C42   A    
C15   H11   S    
C62   C67   S    
C63   C81   D    
C112  H100  S    
C4    O14   S    
C70   O39   S    
C91   N31   A    
C5    O15   S    
C54   C87   S    
C25   N12   A    
C6    O16   S    
C65   C83   D    
C5    H108  S    
C99   H59   S    
C7    H116  S    
C11   H127  S    
C41   C83   S    
N4    Ni8   S    
C105  O4    S    
C96   H49   S    
C33   N20   A    
C29   N16   A    
N6    Ni6   S    
C90   H36   S    
C1    C40   A    
C33   O20   S    
C17   N4    A    
N16   Ni3   S    
C102  O48   S    
C31   N18   A    
C21   O8    S    
C98   H55   S    
C86   H13   S    
N19   Ni8   S    
N17   N28   A    
C106  H79   S    
C20   C55   A    
C59   O28   S    
C16   H15   S    
C15   O25   S    
C60   C77   D    
N8    Ni8   S    
C29   C48   A    
C94   O12   S    
C62   C79   D    
C22   N9    A    
C74   O43   S    
N25   Ni7   S    
C98   O45   S    
C62   O31   S    
C100  H61   S    
C44   C75   S    
C111  H97   S    
C101  H67   S    
C71   O40   S    
C61   C78   D    
C94   H42   S    
C16   H16   S    
C64   C82   D    
C1    N1    A    
C99   O46   S    
C50   C92   S    
C96   H48   S    
C16   O26   S    
C10   H126  S    
C64   C70   S    
C27   O14   S    
C107  H81   S    
C32   N19   A    
N11   Ni1   S    
H26   O36   S    
C30   O17   S    
C7    H114  S    
H28   O38   S    
N7    N24   A    
H29   O39   S    
C105  H75   S    
C108  O7    S    
C72   C89   D    
C8    H120  S    
C26   C40   A    
C13   N3    A    
H18   O28   S    
N28   Ni3   S    
C60   C74   S    
N24   Ni8   S    
C80   N30   A    
C66   C84   D    
C12   O22   S    
C4    H105  S    
H22   O32   S    
N18   Ni7   S    
C88   H34   S    
C14   O24   S    
C28   O15   S    
C12   H4    S    
C59   C71   S    
