data_mof_unit_39736.cif
_audit_creation_date              2012-12-10T17:50:13-0500
_audit_creation_method            fapswitch 2.2
_symmetry_space_group_name_H-M    P1
_symmetry_Int_Tables_number       1
_space_group_crystal_system       triclinic
_cell_length_a                    10.576274
_cell_length_b                    14.747077
_cell_length_c                    14.634371
_cell_angle_alpha                 64.460536
_cell_angle_beta                  104.357133
_cell_angle_gamma                 103.051948
_cell_volume                      1976.60993739

loop_
_atom_site_label
_atom_site_type_symbol
_atom_type_description
_atom_site_fract_x
_atom_site_fract_y
_atom_site_fract_z
_atom_type_partial_charge
C1    C     C_R   0.478444 0.119646 0.311868 0.795100
C2    C     C_R   0.521556 0.880353 0.688132 0.795100
C3    C     C_R   0.459703 0.287425 0.170849 -0.221996
C4    C     C_R   0.540297 0.712574 0.829151 -0.221994
C5    C     C_R   0.492208 0.360642 0.077017 0.069088
C6    C     C_R   0.507792 0.639357 0.922982 0.069088
C7    C     C_R   0.506185 0.326437 0.003785 0.075711
C8    C     C_R   0.493814 0.673563 0.996214 0.075712
C9    C     C_R   0.505207 0.466100 0.052930 -0.010679
C10   C     C_R   0.494793 0.533899 0.947070 -0.010680
C11   C     C_R   0.469170 0.493087 0.869692 0.030401
C12   C     C_R   0.530830 0.506913 0.130308 0.030400
C13   C     C_R   0.497103 0.393746 0.899951 -0.068427
C14   C     C_R   0.502896 0.606253 0.100048 -0.068426
C15   C     C_R   0.756131 0.302587 0.638240 -0.038352
C16   C     C_R   0.243870 0.697414 0.361759 -0.038352
C17   C     C_R   0.701233 0.210741 0.626449 0.123690
C18   C     C_R   0.298768 0.789259 0.373551 0.123690
C19   C     C_R   0.511767 0.282216 0.515537 -0.029400
C20   C     C_R   0.488233 0.717784 0.484463 -0.029400
C21   C     C_R   0.553870 0.373386 0.532395 -0.028110
C22   C     C_R   0.446130 0.626614 0.467605 -0.028111
C23   C     C_R   0.259778 0.999535 0.500765 0.796693
C24   C     C_R   0.740222 0.000465 0.499235 0.796694
C25   C     C_R   0.682676 0.385722 0.587949 0.148914
C26   C     C_R   0.317324 0.614278 0.412051 0.148912
C27   C     C_R   0.473674 0.453152 0.494280 0.105278
C28   C     C_R   0.526326 0.546847 0.505721 0.105277
C29   C     C_R   0.659070 0.559285 0.551425 -0.245388
C30   C     C_R   0.340929 0.440714 0.448577 -0.245388
C31   C     C_R   0.734728 0.480790 0.591958 -0.203210
C32   C     C_R   0.265271 0.519209 0.408044 -0.203214
C33   C     C_3   0.011229 0.915885 0.489223 -0.173589
C34   C     C_3   0.988771 0.084115 0.510777 -0.173590
C35   C     C_3   0.927567 0.999623 0.409950 -0.189159
C36   C     C_3   0.072433 0.000377 0.590050 -0.189159
C37   C     C_3   0.876893 0.000642 0.499179 -0.041784
C38   C     C_3   0.123107 0.999358 0.500821 -0.041784
C39   C     C_3   0.958829 0.917961 0.577536 0.129325
C40   C     C_3   0.041171 0.082039 0.422464 0.129324
C41   C     C_R   0.477735 0.186785 0.203689 -0.051229
C42   C     C_R   0.522264 0.813214 0.796311 -0.051228
C43   C     C_R   0.517989 0.223093 0.035431 -0.181451
C44   C     C_R   0.482010 0.776906 0.964569 -0.181452
C45   C     C_R   0.508268 0.154658 0.135815 -0.199884
C46   C     C_R   0.491731 0.845341 0.864185 -0.199885
Cu1   Cu    Cu3+1 0.465750 0.918270 0.475680 0.929450
Cu2   Cu    Cu3+1 0.534250 0.081730 0.524320 0.929450
H1    H     H_    0.865498 0.999697 0.336623 0.139087
H2    H     H_    0.134502 0.000303 0.663377 0.139087
H3    H     H_    0.577635 0.727461 0.535894 0.126422
H4    H     H_    0.422365 0.272539 0.464106 0.126422
H5    H     H_    0.708454 0.630003 0.556042 0.129752
H6    H     H_    0.291545 0.369996 0.443961 0.129753
H7    H     H_    0.023141 0.846691 0.481554 0.141934
H8    H     H_    0.976859 0.153309 0.518446 0.141936
H9    H     H_    0.583725 0.692914 0.782088 0.138326
H10   H     H_    0.416275 0.307086 0.217912 0.138327
H11   H     H_    0.476898 0.923243 0.840109 0.154807
H12   H     H_    0.523101 0.076757 0.159891 0.154807
H13   H     H_    0.534243 0.194312 0.983220 0.151728
H14   H     H_    0.465756 0.805688 0.016780 0.151728
H15   H     H_    0.835725 0.497305 0.625301 0.142308
H16   H     H_    0.164274 0.502694 0.374703 0.142309
N1    N     N_R   0.585750 0.204560 0.560800 -0.209258
N2    N     N_R   0.414250 0.795440 0.439200 -0.209258
O1    O     O_R   0.454850 0.022100 0.338110 -0.570839
O2    O     O_R   0.545150 0.977900 0.661890 -0.570839
O3    O     O_R   0.512700 0.160150 0.379180 -0.589118
O4    O     O_R   0.487300 0.839850 0.620820 -0.589118
O5    O     O_R   0.287930 0.931000 0.479440 -0.585456
O6    O     O_R   0.712070 0.069000 0.520560 -0.585455
O7    O     O_R   0.345780 0.069050 0.520520 -0.589387
O8    O     O_R   0.654220 0.930950 0.479480 -0.589387
C47   C     C_1   0.231288 0.877521 0.316560 0.304385
N3    N     N_1   0.176218 0.947682 0.270178 -0.320350
C48   C     C_1   0.768712 0.122479 0.683439 0.304385
N4    N     N_1   0.823782 0.052318 0.729821 -0.320351
C49   C     C_3   0.893343 0.310326 0.702021 -0.413978
C50   C     C_3   0.999202 0.345153 0.634085 -0.358299
C51   C     C_3   0.136392 0.330621 0.698455 -0.820288
H17   H     H_    0.157180 0.368504 0.752619 0.258709
H18   H     H_    0.143904 0.248544 0.743001 0.259216
H19   H     H_    0.211331 0.363749 0.647200 0.251847
H20   H     H_    0.978900 0.301003 0.585450 0.220164
H21   H     H_    0.997228 0.426477 0.582417 0.208884
H22   H     H_    0.903790 0.361149 0.742148 0.194126
H23   H     H_    0.910862 0.236221 0.766313 0.205914
C52   C     C_3   0.106660 0.689676 0.297975 -0.413974
C53   C     C_3   0.000797 0.654859 0.365906 -0.358294
C54   C     C_3   0.863609 0.669386 0.301530 -0.820277
H24   H     H_    0.856099 0.751463 0.256970 0.259214
H25   H     H_    0.842824 0.631489 0.247378 0.258707
H26   H     H_    0.788667 0.636269 0.352784 0.251846
H27   H     H_    0.002770 0.573537 0.417583 0.208882
H28   H     H_    0.021095 0.699020 0.414530 0.220160
H29   H     H_    0.089148 0.763779 0.233678 0.205911
H30   H     H_    0.096211 0.638847 0.257853 0.194127
C55   C     C_3   0.906415 0.823825 0.664626 -0.406652
C56   C     C_3   0.018769 0.766554 0.740399 -0.349148
C57   C     C_3   0.965909 0.662560 0.815009 -0.848094
H31   H     H_    0.900421 0.670713 0.859016 0.258960
H32   H     H_    0.909935 0.615051 0.772466 0.248246
H33   H     H_    0.049434 0.623712 0.869870 0.242341
H34   H     H_    0.084568 0.756603 0.697940 0.224781
H35   H     H_    0.078311 0.811347 0.784852 0.220561
H36   H     H_    0.853372 0.847188 0.705993 0.198522
H37   H     H_    0.835264 0.774116 0.630365 0.190307
C58   C     C_3   0.093585 0.176175 0.335375 -0.406650
C59   C     C_3   0.981231 0.233445 0.259599 -0.349150
C60   C     C_3   0.034090 0.337440 0.184992 -0.848098
H38   H     H_    0.090059 0.384949 0.227535 0.248246
H39   H     H_    0.099583 0.329289 0.140987 0.258961
H40   H     H_    0.950565 0.376286 0.130128 0.242342
H41   H     H_    0.921693 0.188652 0.215145 0.220562
H42   H     H_    0.915429 0.243394 0.302057 0.224782
H43   H     H_    0.164734 0.225884 0.369635 0.190307
H44   H     H_    0.146630 0.152813 0.294008 0.198521
C61   C     C_1   0.505618 0.358239 0.823570 0.194206
N5    N     N_1   0.511912 0.329392 0.763013 -0.299340
C62   C     C_1   0.494381 0.641760 0.176429 0.194206
N6    N     N_1   0.488087 0.670607 0.236987 -0.299341
C63   C     C_3   0.393937 0.544941 0.759791 -0.377932
C64   C     C_3   0.262663 0.574543 0.757987 -0.323885
C65   C     C_3   0.185490 0.615467 0.648346 -0.882401
H45   H     H_    0.235789 0.690555 0.602071 0.274358
H46   H     H_    0.176598 0.562726 0.610531 0.259276
H47   H     H_    0.084539 0.623937 0.649866 0.236285
H48   H     H_    0.202271 0.506957 0.806650 0.213096
H49   H     H_    0.279377 0.633534 0.789172 0.232152
H50   H     H_    0.453790 0.609618 0.708926 0.196149
H51   H     H_    0.367502 0.492770 0.719626 0.206583
C66   C     C_3   0.606064 0.455059 0.240208 -0.377931
C67   C     C_3   0.737337 0.425455 0.242012 -0.323886
C68   C     C_3   0.814512 0.384534 0.351652 -0.882405
H52   H     H_    0.915462 0.376061 0.350131 0.236286
H53   H     H_    0.823409 0.437279 0.389464 0.259276
H54   H     H_    0.764213 0.309448 0.397930 0.274358
H55   H     H_    0.720620 0.366462 0.210829 0.232153
H56   H     H_    0.797728 0.493040 0.193346 0.213095
H57   H     H_    0.632501 0.507231 0.280373 0.206584
H58   H     H_    0.546210 0.390382 0.291073 0.196148

loop_
_geom_bond_atom_site_label_1
_geom_bond_atom_site_label_2
_ccdc_geom_bond_type
C25   C31   A    
C68   H54   S    
C38   C40   S    
C45   H12   S    
C34   H8    S    
C18   C47   S    
C46   H11   S    
C34   C37   S    
C60   H38   S    
Cu2   O3    S    
C49   H22   S    
C51   H17   S    
C58   H43   S    
C68   H52   S    
C48   N4    T    
C26   C32   A    
C55   H37   S    
C30   H6    S    
C24   O6    A    
C56   H34   S    
C57   H31   S    
C4    C42   A    
C34   C40   S    
C20   N2    A    
C28   C29   A    
C35   C37   S    
C23   O7    A    
C20   H3    S    
C2    O2    A    
C67   H56   S    
C63   H51   S    
C15   C25   A    
C15   C17   A    
C42   C46   A    
C59   C60   S    
C50   H21   S    
C13   C61   S    
C19   H4    S    
C15   C49   S    
Cu1   Cu2   S    
C4    H9    S    
C35   H1    S    
C65   H47   S    
C7    C43   A    
Cu2   N1    S    
C9    C10   A    
Cu1   N2    S    
C21   C27   A    
C16   C52   S    
C57   H32   S    
C14   C62   S    
C22   C28   A    
C27   C30   A    
Cu2   O6    S    
Cu1   O1    S    
C49   H23   S    
C51   H18   S    
C44   C46   A    
C58   H44   S    
C16   C26   A    
C31   H15   S    
C63   C64   S    
C32   H16   S    
C4    C6    A    
C67   H55   S    
C5    C7    A    
C6    C8    A    
C44   H14   S    
C1    O3    A    
C52   H29   S    
C47   N3    T    
Cu1   O4    S    
C5    C9    A    
C50   H20   S    
C23   O5    A    
C54   H25   S    
C39   C55   S    
C55   C56   S    
C17   C48   S    
C24   C37   S    
C66   H58   S    
C64   H49   S    
C33   H7    S    
C60   H39   S    
C16   C18   A    
C33   C39   S    
Cu2   O2    S    
C43   C45   A    
Cu1   O5    S    
C62   N6    T    
C67   C68   S    
C1    C41   S    
C12   C14   A    
C57   H33   S    
C12   C66   S    
C66   C67   S    
C59   H42   S    
C54   H24   S    
C51   H19   S    
C36   H2    S    
C43   H13   S    
C68   H53   S    
C21   C25   A    
C3    C41   A    
C8    C14   A    
C63   H50   S    
C17   N1    A    
Cu2   O7    S    
C36   C39   S    
C11   C63   S    
C8    C44   A    
Cu1   O8    S    
C20   C22   A    
C50   C51   S    
C3    C5    A    
C53   H27   S    
C6    C10   A    
C61   N5    T    
C53   H28   S    
C40   C58   S    
C1    O1    A    
C18   N2    A    
C23   C38   S    
C55   H36   S    
C56   H35   S    
C33   C38   S    
C52   H30   S    
C36   C38   S    
C35   C40   S    
C37   C39   S    
C58   C59   S    
C54   H26   S    
C30   C32   A    
C11   C13   A    
C24   O8    A    
C53   C54   S    
C65   H45   S    
C29   H5    S    
C2    C42   S    
C56   C57   S    
C33   C35   S    
C64   H48   S    
C19   N1    A    
C60   H40   S    
C34   C36   S    
C9    C12   A    
C10   C11   A    
C49   C50   S    
C3    H10   S    
C7    C13   A    
C29   C31   A    
C22   C26   A    
C27   C28   A    
C65   H46   S    
C41   C45   A    
C66   H57   S    
C52   C53   S    
C2    O4    A    
C59   H41   S    
C64   C65   S    
C19   C21   A    
