data_mof_unit_7660.cif
_audit_creation_date              2012-12-11T16:53:49-0500
_audit_creation_method            fapswitch 2.2
_symmetry_space_group_name_H-M    P1
_symmetry_Int_Tables_number       1
_space_group_crystal_system       triclinic
_cell_length_a                    14.874872
_cell_length_b                    14.79811
_cell_length_c                    16.925272
_cell_angle_alpha                 109.013378
_cell_angle_beta                  106.256734
_cell_angle_gamma                 108.190487
_cell_volume                      3029.19902357

loop_
_atom_site_label
_atom_site_type_symbol
_atom_type_description
_atom_site_fract_x
_atom_site_fract_y
_atom_site_fract_z
_atom_type_partial_charge
C1    C     C_R   0.087488 0.284384 0.074172 -0.146753
C2    C     C_R   0.063641 0.555036 0.263655 -0.114666
C3    C     C_R   0.279324 0.785540 0.176248 -0.131432
C4    C     C_R   0.935725 0.514069 0.743824 -0.138310
C5    C     C_R   0.698555 0.406249 0.997893 -0.139502
C6    C     C_R   0.336282 0.782393 0.254613 0.065629
C7    C     C_R   0.638074 0.435799 0.943495 0.076229
C8    C     C_R   0.971489 0.543926 0.273643 0.063660
C9    C     C_R   0.001730 0.824017 0.982292 -0.016963
C10   C     C_R   0.388459 0.452919 0.867739 0.168364
C11   C     C_R   0.343553 0.409999 0.917713 0.033194
C12   C     C_R   0.026959 0.572395 0.741100 0.069105
C13   C     C_R   0.373965 0.337712 0.941059 -0.199494
C14   C     C_R   0.465471 0.333179 0.937576 -0.201710
C15   C     C_R   0.525333 0.400190 0.909870 0.033293
C16   C     C_R   0.775795 0.200995 0.812282 -0.131978
C17   C     C_R   0.478012 0.447555 0.863522 0.159674
C18   C     C_3   0.521555 0.556195 0.868576 -0.521867
C19   C     C_3   0.424104 0.562464 0.873509 -0.527088
C20   C     C_R   0.965672 0.596087 0.362015 0.037611
C21   C     C_R   0.036100 0.608952 0.671696 0.131152
C22   C     C_R   0.142486 0.673281 0.598811 -0.212711
C23   C     C_R   0.758588 0.194894 0.725232 0.061972
C24   C     C_R   0.134434 0.653312 0.671587 -0.178844
C25   C     C_R   0.946688 0.593521 0.601711 -0.269313
C26   C     C_R   0.953930 0.609755 0.526609 0.143774
C27   C     C_R   0.052037 0.646175 0.524116 0.191473
C28   C     C_R   0.252446 0.527932 0.943770 -0.145377
C29   C     C_R   0.057472 0.643172 0.443159 -0.299645
C30   C     C_R   0.870218 0.583116 0.369636 0.226282
C31   C     C_R   0.864439 0.584937 0.451638 -0.259575
C32   C     C_R   0.717881 0.098555 0.638492 0.130724
C33   C     C_R   0.445305 0.855756 0.320885 0.130047
C34   C     C_R   0.283202 0.453875 0.959026 0.071213
C35   C     C_R   0.590372 0.031574 0.393447 -0.224808
C36   C     C_R   0.498081 0.951128 0.318427 -0.178207
C37   C     C_R   0.493128 0.836502 0.393699 -0.281004
C38   C     C_R   0.581450 0.918782 0.471269 0.189976
C39   C     C_R   0.627622 0.018544 0.472555 0.188221
C40   C     C_R   0.781043 0.297228 0.734610 -0.129939
C41   C     C_R   0.700151 0.106905 0.555824 -0.279013
C42   C     C_R   0.682328 0.997143 0.635470 -0.171037
C43   C     C_R   0.615682 0.906979 0.551515 -0.226905
C44   C     C_R   0.084005 0.120963 0.148575 0.144271
C45   C     C_R   0.274440 0.689041 0.252536 -0.146759
C46   C     C_R   0.996710 0.107482 0.077798 0.043454
C47   C     C_R   0.902442 0.014813 0.042795 -0.210822
C48   C     C_R   0.893338 0.948888 0.087218 -0.199755
C49   C     C_R   0.978257 0.973188 0.166059 0.026273
C50   C     C_R   0.074774 0.054545 0.190991 0.170597
C51   C     C_3   0.151994 0.143030 0.283822 -0.485813
C52   C     C_R   0.251484 0.435274 0.024499 -0.121801
C53   C     C_3   0.162127 0.216482 0.238222 -0.525181
C54   C     C_R   0.108199 0.601035 0.822470 -0.149024
C55   C     C_R   0.914960 0.200437 0.997820 -0.136056
C56   C     C_R   0.702102 0.495500 0.916207 -0.168902
C57   C     C_R   0.000691 0.189834 0.045127 0.066498
C58   C     C_3   0.808386 0.706172 0.881375 -0.389756
C59   C     C_3   0.770095 0.626335 0.781393 -0.938363
C60   C     C_3   0.776109 0.570286 0.294237 -0.404518
C61   C     C_3   0.738038 0.653376 0.330027 -0.867023
C62   C     C_R   0.890013 0.466548 0.187957 -0.151514
C63   C     C_R   0.086054 0.806785 0.020128 -0.175061
C64   C     C_R   0.914891 0.725304 0.940922 0.260946
H1    H     H_    0.165396 0.310928 0.124330 0.096857
H2    H     H_    0.857050 0.489856 0.696830 0.088977
H3    H     H_    0.441373 0.625620 0.941106 0.200060
H4    H     H_    0.373852 0.563699 0.811705 0.191331
H5    H     H_    0.133374 0.665368 0.442296 0.127719
H6    H     H_    0.218485 0.702210 0.597770 0.123160
H7    H     H_    0.789980 0.563974 0.455981 0.136948
H8    H     H_    0.204971 0.667205 0.724727 0.112870
H9    H     H_    0.870739 0.562996 0.602232 0.116738
H10   H     H_    0.731942 0.183547 0.556213 0.118697
H11   H     H_    0.765934 0.136704 0.830947 0.091824
H12   H     H_    0.674173 0.507871 0.856764 0.131444
H13   H     H_    0.626239 0.107355 0.393090 0.126379
H14   H     H_    0.582576 0.830205 0.550986 0.125217
H15   H     H_    0.465131 0.967138 0.261937 0.113847
H16   H     H_    0.456379 0.762209 0.395641 0.115263
H17   H     H_    0.833824 0.996478 0.984884 0.122676
H18   H     H_    0.818788 0.882439 0.063486 0.128097
H19   H     H_    0.116464 0.159858 0.333305 0.198433
H20   H     H_    0.224165 0.133511 0.309721 0.191076
H21   H     H_    0.132321 0.275869 0.261230 0.203440
H22   H     H_    0.259632 0.557556 0.894663 0.109958
H23   H     H_    0.807444 0.432910 0.169991 0.095045
H24   H     H_    0.240584 0.249810 0.238840 0.187123
H25   H     H_    0.775092 0.322967 0.681593 0.093305
H26   H     H_    0.262208 0.381834 0.052791 0.091260
H27   H     H_    0.187834 0.660709 0.850406 0.086460
H28   H     H_    0.834279 0.151044 0.979639 0.088170
H29   H     H_    0.298044 0.651879 0.294476 0.087067
H30   H     H_    0.823770 0.657216 0.752068 0.263983
H31   H     H_    0.765755 0.548496 0.776526 0.254479
H32   H     H_    0.690881 0.613989 0.740006 0.249399
H33   H     H_    0.753242 0.681551 0.910923 0.175910
H34   H     H_    0.167387 0.863723 0.051551 0.112704
H35   H     H_    0.811305 0.782467 0.882108 0.195276
H36   H     H_    0.592765 0.615529 0.933328 0.197716
H37   H     H_    0.527392 0.553452 0.803839 0.196249
H38   H     H_    0.705233 0.640197 0.378881 0.249301
H39   H     H_    0.803321 0.735106 0.364985 0.264059
H40   H     H_    0.675366 0.646952 0.271158 0.249830
H41   H     H_    0.795987 0.582357 0.238868 0.203069
H42   H     H_    0.711573 0.488955 0.264057 0.184410
H43   H     H_    0.698871 0.987483 0.697783 0.115088
H44   H     H_    0.142565 0.607856 0.314689 0.095364
H45   H     H_    0.308285 0.838435 0.148297 0.083253
H46   H     H_    0.670961 0.345383 0.018964 0.085898
H47   H     H_    0.336298 0.295766 0.973232 0.126973
H48   H     H_    0.495035 0.288287 0.967544 0.124463
N1    N     N_R   0.055640 0.348550 0.045600 -0.037802
N2    N     N_R   0.811290 0.303400 0.871650 -0.038425
N3    N     N_R   0.205180 0.552990 0.997660 -0.039773
N4    N     N_R   0.814810 0.361830 0.823710 -0.041073
N5    N     N_R   0.201660 0.494570 0.045600 -0.039534
N6    N     N_R   0.068420 0.560530 0.871650 -0.035401
N7    N     N_R   0.948050 0.295860 0.997660 -0.037671
N8    N     N_R   0.185190 0.638170 0.176290 -0.039673
N9    N     N_R   0.798340 0.505430 0.954400 -0.038676
N10   N     N_R   0.931580 0.439470 0.128350 -0.037724
N11   N     N_R   0.051950 0.704140 0.002340 -0.052691
N12   N     N_R   0.944360 0.651450 0.954400 -0.056310
N13   N     N_R   0.039170 0.492150 0.176290 -0.042660
N14   N     N_R   0.188710 0.696600 0.128350 -0.036551
N15   N     N_R   0.794820 0.447010 0.002340 -0.038445
N16   N     N_R   0.960830 0.507850 0.823710 -0.035483
Ni1   Ni    Ni4+2 0.119330 0.493420 0.109950 0.207137
Ni2   Ni    Ni4+2 0.880670 0.506580 0.890050 0.209900
Ni3   Ni    Ni4+2 0.872590 0.372590 0.000000 0.209230
Ni4   Ni    Ni4+2 0.127410 0.627410 0.000000 0.207618

loop_
_geom_bond_atom_site_label_1
_geom_bond_atom_site_label_2
_ccdc_geom_bond_type
C56   H12   S    
C6    C45   A    
N11   Ni4   S    
C27   C29   A    
C16   H11   S    
N2    Ni3   S    
C52   H26   S    
C35   C36   A    
N9    Ni2   S    
C3    C6    A    
C45   H29   S    
C3    N14   A    
N11   N12   A    
C39   C41   A    
C20   C30   A    
C43   H14   S    
C14   H48   S    
C26   C27   A    
C8    C20   S    
N6    N16   A    
C61   H39   S    
N9    N15   A    
C63   H34   S    
C30   C31   A    
N8    N14   A    
C5    H46   S    
C10   C17   A    
C23   C40   A    
C9    C64   A    
C33   C36   A    
C18   C19   S    
C2    H44   S    
C41   H10   S    
N1    N7    A    
C44   C53   S    
N3    N5    A    
C30   C60   S    
C1    H1    S    
C32   C41   A    
C19   H3    S    
C59   H30   S    
C40   H25   S    
C4    C12   A    
N5    Ni1   S    
C42   H43   S    
N3    Ni4   S    
C52   N5    A    
C31   H7    S    
C28   C34   A    
C26   C31   A    
C13   C14   A    
C58   H33   S    
C18   H36   S    
C7    C56   A    
C44   C46   A    
C50   C51   S    
C29   H5    S    
C20   C29   A    
C58   C64   S    
C37   H16   S    
C4    N16   A    
C63   N11   A    
N8    Ni1   S    
C61   H40   S    
C5    C7    A    
C47   H17   S    
C55   N7    A    
C25   C26   A    
C64   N12   A    
C12   C21   S    
C35   H13   S    
C33   C37   A    
C16   N2    A    
C60   C61   S    
C51   C53   S    
C18   H37   S    
C35   C39   A    
C37   C38   A    
C28   N3    A    
C1    C57   A    
N7    Ni3   S    
C47   C48   A    
N14   Ni4   S    
C10   C19   S    
C5    N15   A    
C17   C18   S    
N12   Ni2   S    
C19   H4    S    
N1    Ni1   S    
C59   H31   S    
C45   N8    A    
C48   C49   A    
C55   H28   S    
C16   C23   A    
C22   C27   A    
C55   C57   A    
C46   C57   S    
C28   H22   S    
C22   C24   A    
C42   C43   A    
C51   H19   S    
N10   Ni3   S    
C62   N10   A    
C60   H42   S    
C24   H8    S    
C44   C50   A    
C15   C17   A    
C21   C25   A    
C46   C47   A    
C9    C63   A    
C11   C34   S    
C2    C8    A    
C58   H35   S    
C36   H15   S    
N16   Ni2   S    
C40   N4    A    
N2    N4    A    
C62   H23   S    
C34   C52   A    
C6    C33   S    
C56   N9    A    
N10   N13   A    
C54   N6    A    
C61   H38   S    
C58   C59   S    
C54   H27   S    
C13   H47   S    
C23   C32   S    
C4    H2    S    
C11   C13   A    
C38   C39   A    
C3    H45   S    
C7    C15   S    
C48   H18   S    
C53   H24   S    
C25   H9    S    
C1    N1    A    
N15   Ni3   S    
N6    Ni4   S    
C10   C11   A    
C2    N13   A    
N13   Ni1   S    
C38   C43   A    
N4    Ni2   S    
C49   C50   A    
C59   H32   S    
C21   C24   A    
C32   C42   A    
C14   C15   A    
C53   H21   S    
C51   H20   S    
C22   H6    S    
C12   C54   A    
C60   H41   S    
C8    C62   A    
