data_mof_unit_34138.cif
_audit_creation_date              2013-03-05T16:48:43-0500
_audit_creation_method            fapswitch 2.2
_symmetry_space_group_name_H-M    P1
_symmetry_Int_Tables_number       1
_space_group_crystal_system       triclinic
_cell_length_a                    27.572038
_cell_length_b                    8.926294
_cell_length_c                    8.115114
_cell_angle_alpha                 89.754015
_cell_angle_beta                  90.035589
_cell_angle_gamma                 89.788947
_cell_volume                      1997.22798784

loop_
_atom_site_label
_atom_site_type_symbol
_atom_site_description
_atom_site_fract_x
_atom_site_fract_y
_atom_site_fract_z
_atom_type_partial_charge
O1    O     O_R   0.500000 0.285350 0.636850 -0.616079
O2    O     O_R   0.500000 0.714650 0.363150 -0.614833
O3    O     O_R   0.500000 0.714650 0.636850 -0.615344
O4    O     O_R   0.500000 0.285350 0.363150 -0.613997
C1    C     C_R   0.500028 0.218042 0.500226 0.939269
C2    C     C_R   0.499994 0.781959 0.499777 0.939439
O5    O     O_R   0.428760 0.500000 0.636860 -0.624657
O6    O     O_R   0.571240 0.500000 0.363140 -0.617633
O7    O     O_R   0.571240 0.500000 0.636860 -0.620824
O8    O     O_R   0.428760 0.500000 0.363140 -0.618884
C3    C     C_R   0.405669 0.503342 0.500460 0.889757
C4    C     C_R   0.594228 0.497070 0.500354 0.884903
Zn1   Zn    Zn3+2 0.500000 0.500000 0.682780 0.987539
Zn2   Zn    Zn3+2 0.500000 0.500000 0.317220 0.991395
C5    C     C_R   0.180228 0.384998 0.604272 0.481101
C6    C     C_R   0.819147 0.586418 0.614469 0.469838
C7    C     C_R   0.173824 0.648365 0.554588 0.500555
C8    C     C_R   0.826062 0.334473 0.518841 0.489084
O9    O     O_2   0.208423 0.262397 0.625114 -0.569194
O10   O     O_2   0.790808 0.704403 0.654590 -0.567481
O11   O     O_2   0.195426 0.779328 0.516237 -0.561072
O12   O     O_2   0.805074 0.212428 0.452433 -0.574705
N1    N     N_R   0.200822 0.519833 0.566088 -0.347819
N2    N     N_R   0.798711 0.458372 0.554084 -0.355323
C9    C     C_R   0.281935 0.584052 0.667239 0.177562
C10   C     C_R   0.717769 0.377107 0.643022 0.174581
C11   C     C_R   0.272873 0.470307 0.393467 0.185019
C12   C     C_R   0.726312 0.539444 0.398340 0.204378
C13   C     C_R   0.331969 0.577415 0.648601 -0.234875
C14   C     C_R   0.667409 0.391895 0.629150 -0.207063
C15   C     C_R   0.323545 0.468565 0.377360 -0.267941
C16   C     C_R   0.675830 0.549092 0.386788 -0.242052
C17   C     C_R   0.252089 0.526822 0.540920 0.279791
C18   C     C_R   0.747322 0.455109 0.528881 0.223972
C19   C     C_R   0.101369 0.504307 0.607514 -0.058936
C20   C     C_R   0.898081 0.468890 0.600155 -0.052096
C21   C     C_R   0.129891 0.373618 0.619524 -0.016950
C22   C     C_R   0.869474 0.596772 0.630090 -0.016028
C23   C     C_R   0.123720 0.643727 0.580372 -0.028818
C24   C     C_R   0.875925 0.334557 0.550825 -0.013350
C25   C     C_R   0.107542 0.234988 0.644359 -0.135520
C26   C     C_R   0.891704 0.732029 0.671914 -0.141490
C27   C     C_R   0.095495 0.774076 0.574640 -0.138482
C28   C     C_R   0.904074 0.205122 0.531368 -0.145581
C29   C     C_R   0.352925 0.517806 0.506411 -0.098896
C30   C     C_R   0.646688 0.479241 0.504151 -0.116008
H1    H     H_    0.340207 0.422571 0.267657 0.160721
H2    H     H_    0.659282 0.615940 0.289941 0.164547
H3    H     H_    0.354798 0.616899 0.748072 0.173494
H4    H     H_    0.643571 0.335405 0.714730 0.174097
H5    H     H_    0.128818 0.133660 0.659512 0.189598
H6    H     H_    0.870395 0.831285 0.698334 0.189855
H7    H     H_    0.111804 0.882277 0.551647 0.180839
H8    H     H_    0.887776 0.100233 0.494346 0.186764
C31   C     C_R   0.977143 0.343980 0.602039 0.047500
C32   C     C_R   0.022202 0.628060 0.620555 0.048325
C33   C     C_R   0.971364 0.617446 0.637647 0.046185
C34   C     C_R   0.027935 0.352741 0.622863 0.047176
C35   C     C_R   0.948978 0.476476 0.615024 0.071472
C36   C     C_R   0.050385 0.495118 0.618698 0.073674
C37   C     C_R   0.953772 0.208712 0.560478 -0.222004
C38   C     C_R   0.045603 0.766736 0.596982 -0.218197
C39   C     C_R   0.941959 0.743215 0.672445 -0.225963
C40   C     C_R   0.057266 0.224270 0.643670 -0.224090
H9    H     H_    0.973579 0.105991 0.540014 0.135676
H10   H     H_    0.025634 0.870132 0.585247 0.128088
H11   H     H_    0.957085 0.850745 0.704019 0.141749
H12   H     H_    0.041971 0.114820 0.663536 0.134805
C41   C     C_1   0.500026 0.065213 0.500329 -0.190229
C42   C     C_1   0.500013 0.934788 0.499685 -0.189885
N3    N     N_1   0.500000 0.500000 0.073640 -0.035496
N4    N     N_1   0.500000 0.500000 0.926360 -0.036220
C43   C     C_3   0.242401 0.401889 0.257201 -0.397929
C44   C     C_3   0.206166 0.512140 0.181000 -0.842785
H13   H     H_    0.173031 0.521088 0.257320 0.260352
H14   H     H_    0.222599 0.624744 0.165857 0.277521
H15   H     H_    0.194522 0.470000 0.058780 0.245298
H16   H     H_    0.266152 0.360129 0.156529 0.201480
H17   H     H_    0.222639 0.302792 0.305036 0.245775
C45   C     C_3   0.756594 0.624049 0.273061 -0.376292
C46   C     C_3   0.753310 0.552072 0.103819 -0.855965
H18   H     H_    0.765158 0.433323 0.112741 0.276133
H19   H     H_    0.715641 0.558064 0.055820 0.265661
H20   H     H_    0.777474 0.611761 0.016183 0.276955
H21   H     H_    0.743809 0.742123 0.265394 0.225776
H22   H     H_    0.795466 0.627578 0.307001 0.220018
C47   C     C_3   0.261976 0.643578 0.828032 -0.431888
C48   C     C_3   0.271771 0.810933 0.847574 -0.765900
H23   H     H_    0.311324 0.832684 0.855193 0.242596
H24   H     H_    0.256327 0.874988 0.742301 0.308866
H25   H     H_    0.254627 0.851522 0.962941 0.247536
H26   H     H_    0.222420 0.625452 0.839122 0.213567
H27   H     H_    0.279397 0.581859 0.931648 0.213635
C49   C     C_3   0.741067 0.281129 0.777733 -0.383676
C50   C     C_3   0.706813 0.219747 0.910034 -0.869410
H28   H     H_    0.686234 0.311866 0.969575 0.262921
H29   H     H_    0.681270 0.137717 0.855575 0.264861
H30   H     H_    0.728337 0.160972 0.006469 0.272020
H31   H     H_    0.759256 0.183600 0.720023 0.257672
H32   H     H_    0.769453 0.347867 0.840159 0.206473

loop_
_geom_bond_atom_site_label_1
_geom_bond_atom_site_label_2
_geom_bond_distance
_ccdc_geom_bond_type
C10   C49   1.526004 S    
C47   C48   1.527961 S    
C31   C35   1.416807 A    
C43   C44   1.528327 S    
C50   H28   1.109899 S    
C20   C35   1.410318 A    
C46   H18   1.110089 S    
C50   H30   1.110619 S    
C13   H3    1.084187 S    
C11   C17   1.420794 A    
O5    C3    1.276783 A    
C7    N1    1.368155 A    
C44   H14   1.110429 S    
O1    C1    1.263308 A    
C40   H12   1.077078 S    
C19   C21   1.407459 A    
C22   C26   1.399015 A    
C41   C42   1.164243 T    
C7    C23   1.398095 A    
C33   C35   1.416219 A    
C34   C36   1.415944 A    
C47   H27   1.111231 S    
C9    C47   1.514104 S    
C32   C33   1.412130 A    
Zn2   N3    1.976679 S    
O7    Zn1   1.999493 S    
C5    C21   1.397520 A    
C20   C24   1.407298 A    
C45   H22   1.107022 S    
C5    O9    1.350026 S    
C27   H7    1.082406 S    
N1    C17   1.429897 S    
C44   H15   1.109953 S    
C1    C41   1.364193 S    
C43   H16   1.112087 S    
C8    N2    1.367648 A    
C24   C28   1.399037 A    
O3    Zn1   1.950374 S    
C6    O10   1.350153 S    
O3    C2    1.261977 A    
C5    N1    1.367134 A    
C14   H4    1.081005 S    
C12   C18   1.419054 A    
C6    N2    1.368653 A    
C15   H1    1.083696 S    
C47   H26   1.106831 S    
C34   C40   1.410295 A    
C16   H2    1.084167 S    
O2    C2    1.263339 A    
C12   C45   1.516631 S    
C46   H19   1.110039 S    
C10   C18   1.416439 A    
C33   C39   1.411985 A    
C9    C13   1.388972 A    
C39   H11   1.079731 S    
C44   H13   1.106903 S    
C38   H10   1.076785 S    
C11   C15   1.403361 A    
C12   C16   1.397302 A    
C4    C30   1.454890 S    
O8    Zn2   1.999496 S    
C45   C46   1.521557 S    
C23   C27   1.398002 A    
C7    O11   1.349229 S    
C32   C36   1.416196 A    
C13   C29   1.397226 A    
C19   C36   1.411401 A    
C19   C23   1.407318 A    
C45   H21   1.111598 S    
C37   H9    1.079035 S    
C48   H25   1.110582 S    
C49   H32   1.108889 S    
O6    C4    1.281040 A    
C43   H17   1.109461 S    
C48   H24   1.109793 S    
C10   C14   1.398738 A    
C32   C38   1.410394 A    
C3    C29   1.460350 S    
O1    Zn1   1.953516 S    
C46   H20   1.110629 S    
C2    C42   1.364202 S    
O6    Zn2   1.999038 S    
C8    O12   1.349589 S    
C16   C30   1.393196 A    
C14   C30   1.397303 A    
O4    C1    1.261999 A    
C50   H29   1.110709 S    
Zn1   N4    1.976679 S    
C28   C37   1.390848 A    
C20   C22   1.407180 A    
N3    N4    1.195193 T    
O4    Zn2   1.950375 S    
C49   H31   1.108745 S    
C31   C37   1.412745 A    
C21   C25   1.398293 A    
C49   C50   1.531309 S    
O2    Zn2   1.953515 S    
O7    C4    1.276925 A    
N2    C18   1.431868 S    
C9    C17   1.412636 A    
O8    C3    1.284164 A    
C28   H8    1.083582 S    
O5    Zn1   1.999041 S    
C8    C24   1.398975 A    
C48   H23   1.110140 S    
C15   C29   1.397021 A    
C31   C34   1.413002 A    
C6    C22   1.396763 A    
C25   C40   1.389876 A    
C11   C43   1.519909 S    
C26   C39   1.389617 A    
C25   H5    1.082771 S    
C27   C38   1.389402 A    
C26   H6    1.083553 S    
