data_mof_unit_62308.cif
_audit_creation_date              2012-12-10T17:01:26-0500
_audit_creation_method            fapswitch 2.2
_symmetry_space_group_name_H-M    P1
_symmetry_Int_Tables_number       1
_space_group_crystal_system       triclinic
_cell_length_a                    20.02107
_cell_length_b                    22.672541
_cell_length_c                    15.073679
_cell_angle_alpha                 90.15857
_cell_angle_beta                  90.328483
_cell_angle_gamma                 90.043526
_cell_volume                      6842.23224599

loop_
_atom_site_label
_atom_site_type_symbol
_atom_type_description
_atom_site_fract_x
_atom_site_fract_y
_atom_site_fract_z
_atom_type_partial_charge
C1    C     C_R   0.372481 0.886161 0.485524 0.820550
C2    C     C_R   0.278789 0.744463 0.515997 0.160699
C3    C     C_R   0.778828 0.755696 0.516237 0.161000
C4    C     C_R   0.778792 0.244461 0.515984 0.160709
C5    C     C_R   0.330227 0.214222 0.516053 -0.245532
C6    C     C_R   0.330237 0.785917 0.515522 -0.242468
C7    C     C_R   0.830239 0.714230 0.516006 -0.245521
C8    C     C_R   0.830241 0.285914 0.515504 -0.242485
C9    C     C_R   0.255937 0.142211 0.449162 -0.205305
C10   C     C_R   0.255784 0.857803 0.449486 -0.202518
C11   C     C_R   0.755917 0.642191 0.449244 -0.205309
C12   C     C_R   0.372489 0.113898 0.485592 0.819709
C13   C     C_R   0.755776 0.357812 0.449517 -0.202514
C14   C     C_R   0.203849 0.182749 0.450865 -0.169021
C15   C     C_R   0.203647 0.817257 0.451412 -0.167039
C16   C     C_R   0.703827 0.682726 0.450965 -0.169019
C17   C     C_R   0.703638 0.317266 0.451450 -0.167040
C18   C     C_R   0.519856 0.995650 0.163740 -0.025154
C19   C     C_R   0.019856 0.495649 0.163740 -0.025160
C20   C     C_R   0.478524 0.001286 0.834758 0.012260
C21   C     C_R   0.978524 0.501286 0.834758 0.012257
C22   C     C_R   0.420703 0.035930 0.965195 -0.203913
C23   C     C_R   0.872481 0.386161 0.485525 0.820528
C24   C     C_R   0.920705 0.535934 0.965195 -0.203909
C25   C     C_R   0.424994 0.031397 0.873368 -0.188993
C26   C     C_R   0.924996 0.531401 0.873368 -0.188989
C27   C     C_R   0.528464 0.976165 0.887484 -0.268427
C28   C     C_R   0.028462 0.476162 0.887484 -0.268429
C29   C     C_R   0.627235 0.113737 0.514429 0.844790
C30   C     C_R   0.627252 0.886325 0.514359 0.841643
C31   C     C_R   0.127235 0.613737 0.514429 0.844786
C32   C     C_R   0.127253 0.386326 0.514361 0.841652
C33   C     C_R   0.525912 0.982399 0.979526 0.180500
C34   C     C_R   0.872489 0.613897 0.485592 0.819690
C35   C     C_R   0.025911 0.482397 0.979526 0.180498
C36   C     C_R   0.471162 0.011960 0.018668 0.173212
C37   C     C_R   0.971163 0.511961 0.018669 0.173213
C38   C     C_R   0.468120 0.017637 0.110592 -0.259274
C39   C     C_R   0.968122 0.517639 0.110592 -0.259273
C40   C     C_R   0.574969 0.967790 0.124730 -0.179352
C41   C     C_R   0.074967 0.467786 0.124731 -0.179333
C42   C     C_R   0.577668 0.960634 0.033000 -0.208732
C43   C     C_R   0.077665 0.460630 0.033001 -0.208733
C44   C     C_R   0.514488 0.999564 0.260005 0.835513
C45   C     C_R   0.713999 0.739812 0.485682 0.101294
C46   C     C_R   0.014488 0.499564 0.260005 0.835537
C47   C     C_R   0.484916 0.000171 0.739154 0.779083
C48   C     C_R   0.984916 0.500171 0.739154 0.779084
C49   C     C_R   0.318932 0.157505 0.482859 -0.020995
C50   C     C_R   0.318876 0.842565 0.482679 -0.020075
C51   C     C_R   0.818929 0.657501 0.482868 -0.020974
C52   C     C_R   0.818875 0.342567 0.482682 -0.020065
C53   C     C_R   0.677507 0.840138 0.515720 -0.078669
C54   C     C_R   0.677422 0.160006 0.515913 -0.078614
C55   C     C_R   0.177506 0.340139 0.515724 -0.078632
C56   C     C_R   0.713870 0.260264 0.485935 0.101501
C57   C     C_R   0.177422 0.660005 0.515914 -0.078601
C58   C     C_R   0.792074 0.813089 0.545339 -0.194852
C59   C     C_R   0.792098 0.187162 0.544864 -0.192408
C60   C     C_R   0.292054 0.313072 0.545431 -0.194841
C61   C     C_R   0.292090 0.687169 0.544900 -0.192405
C62   C     C_R   0.742016 0.855239 0.543499 -0.214117
C63   C     C_R   0.742003 0.144996 0.543239 -0.211176
C64   C     C_R   0.242000 0.355226 0.543578 -0.214146
C65   C     C_R   0.241997 0.645001 0.543269 -0.211182
C66   C     C_R   0.662187 0.782131 0.487747 -0.093008
C67   C     C_R   0.214007 0.239822 0.485637 0.101306
C68   C     C_R   0.662029 0.217935 0.488240 -0.091759
C69   C     C_R   0.162197 0.282144 0.487687 -0.092995
C70   C     C_R   0.162033 0.717930 0.488218 -0.091748
C71   C     C_2   0.592962 0.766688 0.459715 0.890938
C72   C     C_2   0.592717 0.233278 0.460716 0.891556
C73   C     C_2   0.092984 0.266715 0.459581 0.890880
C74   C     C_2   0.092726 0.733268 0.460670 0.891534
C75   C     C_R   0.213874 0.760260 0.485919 0.101505
C76   C     C_R   0.278820 0.255691 0.516268 0.160989
H1    H     H_    0.379417 0.226351 0.540604 0.163280
H2    H     H_    0.070332 0.453928 0.856625 0.137838
H3    H     H_    0.246574 0.098449 0.422843 0.164364
H4    H     H_    0.246387 0.901526 0.423457 0.164448
H5    H     H_    0.746545 0.598418 0.422970 0.164340
H6    H     H_    0.746375 0.401540 0.423506 0.164434
H7    H     H_    0.341516 0.325629 0.568238 0.150204
H8    H     H_    0.341633 0.674684 0.567292 0.150270
H9    H     H_    0.841549 0.825657 0.568086 0.150205
H10   H     H_    0.841646 0.174672 0.567234 0.150279
H11   H     H_    0.656201 0.669027 0.423737 0.175791
H12   H     H_    0.379506 0.773837 0.539669 0.163456
H13   H     H_    0.655923 0.330891 0.424604 0.175789
H14   H     H_    0.156237 0.169064 0.423577 0.175798
H15   H     H_    0.155938 0.830876 0.424544 0.175787
H16   H     H_    0.753387 0.899841 0.564838 0.145762
H17   H     H_    0.753416 0.100443 0.564330 0.145808
H18   H     H_    0.253361 0.399819 0.564968 0.145733
H19   H     H_    0.253406 0.600452 0.564379 0.145799
H20   H     H_    0.425842 0.039654 0.140804 0.158413
H21   H     H_    0.925845 0.539659 0.140804 0.158414
H22   H     H_    0.615071 0.950272 0.165347 0.168555
H23   H     H_    0.879441 0.726370 0.540500 0.163259
H24   H     H_    0.115068 0.450266 0.165348 0.168563
H25   H     H_    0.378752 0.059004 0.994247 0.147436
H26   H     H_    0.878756 0.559011 0.994246 0.147438
H27   H     H_    0.513312 0.713246 0.475198 0.340143
H28   H     H_    0.513184 0.286708 0.476912 0.339778
H29   H     H_    0.013325 0.213269 0.474941 0.340153
H30   H     H_    0.013189 0.786699 0.476830 0.339770
H31   H     H_    0.879516 0.273828 0.539628 0.163455
H32   H     H_    0.620131 0.938313 0.003947 0.147194
H33   H     H_    0.120126 0.438305 0.003948 0.147193
H34   H     H_    0.386622 0.051311 0.832286 0.145905
H35   H     H_    0.886625 0.551316 0.832286 0.145910
H36   H     H_    0.570336 0.953934 0.856625 0.137839
O1    O     O_3   0.500000 1.000000 0.500000 -0.494682
O2    O     O_R   0.135640 0.430410 0.463140 -0.638407
O3    O     O_R   0.456890 0.000000 0.295720 -0.639979
O4    O     O_R   0.956890 0.500000 0.295720 -0.639977
O5    O     O_R   0.488070 0.049450 0.698020 -0.641737
O6    O     O_R   0.488070 0.950550 0.698020 -0.639953
O7    O     O_R   0.988070 0.549450 0.698020 -0.641736
O8    O     O_R   0.988070 0.450550 0.698020 -0.639954
O9    O     O_R   0.370630 0.069610 0.433010 -0.651661
O10   O     O_R   0.370630 0.930390 0.433010 -0.649817
O11   O     O_R   0.870630 0.569610 0.433010 -0.651652
O12   O     O_3   0.000000 0.500000 0.500000 -0.494686
O13   O     O_R   0.870630 0.430390 0.433010 -0.649809
O14   O     O_R   0.574320 0.880940 0.560740 -0.629287
O15   O     O_R   0.574320 0.119060 0.560740 -0.628098
O16   O     O_R   0.074320 0.380940 0.560740 -0.629312
O17   O     O_R   0.074320 0.619060 0.560740 -0.628106
O18   O     O_R   0.566990 0.000000 0.308240 -0.633566
O19   O     O_R   0.066990 0.500000 0.308240 -0.633552
O20   O     O_2   0.564372 0.796089 0.403197 -0.641286
O21   O     O_R   0.560290 0.719053 0.499162 -0.805365
O22   O     O_2   0.563894 0.203754 0.404261 -0.639675
O23   O     O_R   0.419410 0.880950 0.543120 -0.631408
O24   O     O_R   0.560241 0.280974 0.500555 -0.805310
O25   O     O_2   0.064423 0.296142 0.403069 -0.641294
O26   O     O_R   0.060291 0.219064 0.498952 -0.805376
O27   O     O_2   0.063912 0.703737 0.404216 -0.639682
O28   O     O_R   0.060242 0.780969 0.500486 -0.805310
O29   O     O_R   0.419410 0.119050 0.543120 -0.633297
O30   O     O_R   0.919410 0.380950 0.543120 -0.631416
O31   O     O_R   0.919410 0.619050 0.543120 -0.633291
O32   O     O_R   0.635640 0.069590 0.463140 -0.635687
O33   O     O_R   0.635640 0.930410 0.463140 -0.638441
O34   O     O_R   0.135640 0.569590 0.463140 -0.635676
Zn1   Zn    Zn3+2 0.583120 0.000000 0.434770 1.012255
Zn2   Zn    Zn3+2 0.083120 0.500000 0.434770 1.012291
Zn3   Zn    Zn3+2 0.425830 1.000000 0.416880 0.993306
Zn4   Zn    Zn3+2 0.925830 0.500000 0.416880 0.993317
Zn5   Zn    Zn3+2 0.495530 0.070660 0.574170 0.998262
Zn6   Zn    Zn3+2 0.495530 0.929340 0.574170 0.998153
Zn7   Zn    Zn3+2 0.995530 0.570660 0.574170 0.998258
Zn8   Zn    Zn3+2 0.995530 0.429340 0.574170 0.998135

loop_
_geom_bond_atom_site_label_1
_geom_bond_atom_site_label_2
_ccdc_geom_bond_type
C58   C62   A    
C15   C75   A    
C21   C26   A    
C30   O14   A    
C34   O11   A    
O12   Zn8   S    
C15   H15   S    
O1    Zn5   S    
C4    C8    A    
O4    Zn4   S    
C12   C49   S    
C19   C46   S    
C48   O8    A    
H28   O24   S    
H30   O28   S    
C27   C33   A    
O12   Zn2   S    
C34   C51   S    
C22   H25   S    
C7    H23   S    
C33   C42   A    
C35   C37   A    
C24   C26   A    
C3    C7    A    
C10   C15   A    
C40   H22   S    
C32   O16   A    
C60   H7    S    
C72   O24   S    
C54   C68   A    
C20   C25   A    
C44   O18   A    
O23   Zn6   S    
C33   C36   A    
C6    H12   S    
C12   O29   A    
C9    H3    S    
C18   C40   A    
C1    O10   A    
C14   H14   S    
O15   Zn5   S    
C71   O20   D    
C31   O34   A    
O14   Zn6   S    
C47   O6    A    
C12   O9    A    
C44   O3    A    
O9    Zn3   S    
C22   C25   A    
C62   H16   S    
C70   C74   S    
C16   H11   S    
C14   C67   A    
C23   O30   A    
C69   C73   S    
C57   C70   A    
C35   C43   A    
C1    C50   S    
C8    C52   A    
C32   C55   S    
C2    C61   A    
O16   Zn8   S    
C73   O26   S    
C23   O13   A    
C21   C48   S    
C40   C42   A    
H29   O26   S    
O11   Zn4   S    
O7    Zn7   S    
O12   Zn7   S    
C4    C56   A    
C41   C43   A    
O1    Zn6   S    
C5    C49   A    
C2    C6    A    
O32   Zn1   S    
O33   Zn1   S    
C48   O7    A    
O34   Zn2   S    
O31   Zn7   S    
C30   C53   S    
C34   O31   A    
O10   Zn3   S    
O1    Zn3   S    
C9    C49   A    
C28   C35   A    
C46   O19   A    
C10   H4    S    
C56   C68   A    
C29   O32   A    
C74   O28   S    
C13   H6    S    
C3    C45   A    
C11   H5    S    
C67   C69   A    
C9    C14   A    
C18   C44   S    
C13   C52   A    
C11   C16   A    
C72   O22   D    
C66   C71   S    
C47   O5    A    
C68   C72   S    
C55   C64   A    
O3    Zn3   S    
O8    Zn8   S    
C24   C37   A    
C41   H24   S    
C17   H13   S    
O19   Zn2   S    
O5    Zn5   S    
O30   Zn8   S    
O6    Zn6   S    
C53   C66   A    
C17   C56   A    
C55   C69   A    
C19   C39   A    
C25   H34   S    
C21   C28   A    
C27   H36   S    
C29   O15   A    
C5    H1    S    
C10   C50   A    
C8    H31   S    
C70   C75   A    
C28   H2    S    
O29   Zn5   S    
C30   O33   A    
O12   Zn4   S    
C6    C50   A    
O18   Zn1   S    
C57   C65   A    
C61   H8    S    
C16   C45   A    
C71   O21   S    
C29   C54   S    
C20   C27   A    
C46   O4    A    
C22   C36   A    
C74   O27   D    
C63   H17   S    
C59   C63   A    
C58   H9    S    
C13   C17   A    
C60   C64   A    
C31   C57   S    
C5    C76   A    
C36   C38   A    
C18   C38   A    
C59   H10   S    
C7    C51   A    
C37   C39   A    
O17   Zn7   S    
O1    Zn1   S    
C23   C52   S    
C73   O25   D    
C4    C59   A    
C60   C76   A    
C24   H26   S    
C11   C51   A    
H27   O21   S    
O2    Zn2   S    
C20   C47   S    
C39   H21   S    
O13   Zn4   S    
C64   H18   S    
C3    C58   A    
C61   C65   A    
C65   H19   S    
C53   C62   A    
C31   O17   A    
C54   C63   A    
C38   H20   S    
C45   C66   A    
C67   C76   A    
C43   H33   S    
C32   O2    A    
C1    O23   A    
C42   H32   S    
C26   H35   S    
C2    C75   A    
C19   C41   A    
