data_mof_unit_42484.cif
_audit_creation_date              2012-12-11T15:46:58-0500
_audit_creation_method            fapswitch 2.2
_symmetry_space_group_name_H-M    P1
_symmetry_Int_Tables_number       1
_space_group_crystal_system       triclinic
_cell_length_a                    11.538226
_cell_length_b                    11.527888
_cell_length_c                    19.560384
_cell_angle_alpha                 90.459978
_cell_angle_beta                  90.060659
_cell_angle_gamma                 59.94915
_cell_volume                      2251.94355284

loop_
_atom_site_label
_atom_site_type_symbol
_atom_type_description
_atom_site_fract_x
_atom_site_fract_y
_atom_site_fract_z
_atom_type_partial_charge
C1    C     C_R   0.640466 0.117343 0.599284 0.546516
C2    C     C_1   0.652981 0.149641 0.668663 0.003416
C3    C     C_R   0.649538 0.691254 0.187057 0.018158
C4    C     C_R   0.612506 0.745956 0.598658 0.545904
C5    C     C_R   0.530315 0.723993 0.221479 0.029879
C6    C     C_R   0.525191 0.733948 0.291034 0.043597
C7    C     C_R   0.744379 0.710396 0.294018 -0.161390
C8    C     C_R   0.750592 0.700360 0.222720 -0.164975
C9    C     C_3   0.444120 0.659855 0.222075 -0.268672
C10   C     C_3   0.440899 0.670537 0.299016 -0.276456
C11   C     C_R   0.635447 0.714953 0.328802 0.018733
C12   C     C_1   0.641284 0.703900 0.668025 0.003853
C13   C     C_R   0.160656 0.188324 0.187466 0.015836
C14   C     C_R   0.192349 0.273141 0.223864 0.026159
C15   C     C_R   0.217070 0.256051 0.292520 0.044056
C16   C     C_R   0.240979 0.145288 0.598213 0.546537
C17   C     C_R   0.203210 0.054828 0.290169 -0.162544
C18   C     C_R   0.179351 0.070981 0.219566 -0.161769
C19   C     C_3   0.119993 0.422691 0.231081 -0.272411
C20   C     C_3   0.148437 0.403116 0.306896 -0.272984
C21   C     C_R   0.211567 0.154281 0.328152 0.016049
C22   C     C_R   0.667420 0.176570 0.190132 0.016239
C23   C     C_1   0.126707 0.198781 0.859278 0.003893
C24   C     C_R   0.754256 0.053500 0.221119 0.031912
C25   C     C_R   0.746758 0.036206 0.289797 0.037644
C26   C     C_R   0.551385 0.255419 0.298548 -0.156908
C27   C     C_R   0.557631 0.272994 0.228095 -0.165587
C28   C     C_R   0.643128 0.111178 0.401500 0.544056
C29   C     C_3   0.904351 0.970206 0.222192 -0.266534
C30   C     C_3   0.894546 0.951888 0.297980 -0.277885
C31   C     C_R   0.653829 0.140228 0.330726 0.016934
C32   C     C_R   0.081812 0.231133 0.928576 0.546788
C33   C     C_R   0.683918 0.604444 0.929485 0.545285
C34   C     C_1   0.171543 0.170238 0.727725 -0.030778
C35   C     C_R   0.708383 0.206669 0.930111 0.546746
C36   C     C_R   0.085590 0.234596 0.124360 0.545484
C37   C     C_R   0.680651 0.615820 0.124018 0.546378
C38   C     C_R   0.707439 0.209799 0.126206 0.545917
C39   C     C_R   0.614572 0.743623 0.400839 0.542831
C40   C     C_R   0.248672 0.138548 0.399822 0.543785
C41   C     C_1   0.670396 0.646464 0.860113 0.004591
C42   C     C_1   0.654805 0.683683 0.728447 -0.031125
C43   C     C_1   0.663462 0.666667 0.799689 -0.030958
C44   C     C_1   0.150164 0.182263 0.798940 -0.030692
C45   C     C_1   0.195328 0.160861 0.667409 0.003401
C46   C     C_1   0.678597 0.191302 0.860756 0.004035
C47   C     C_1   0.658551 0.167202 0.729040 -0.030804
C48   C     C_1   0.665683 0.180918 0.800330 -0.030565
Cr1   Cr    Cr6+3 0.404720 0.198220 0.499960 1.024533
Cr2   Cr    Cr6+3 0.698290 0.897110 0.500380 1.025819
Cr3   Cr    Cr6+3 0.396970 0.904720 0.499610 1.025548
Cr4   Cr    Cr6+3 0.926290 0.152010 0.028150 1.021921
Cr5   Cr    Cr6+3 0.921440 0.451830 0.027490 1.023825
Cr6   Cr    Cr6+3 0.626370 0.446880 0.028730 1.022248
H1    H     H_    0.826198 0.709145 0.321723 0.127214
H2    H     H_    0.839741 0.685804 0.196738 0.122630
H3    H     H_    0.496759 0.553933 0.204773 0.165276
H4    H     H_    0.344725 0.724423 0.198226 0.127860
H5    H     H_    0.339830 0.740172 0.319922 0.137112
H6    H     H_    0.494940 0.571605 0.324693 0.134377
H7    H     H_    0.209177 0.968837 0.315184 0.123244
H8    H     H_    0.164915 0.997833 0.191641 0.120763
H9    H     H_    0.011739 0.469239 0.219520 0.157489
H10   H     H_    0.482784 0.364962 0.204784 0.117207
H11   H     H_    0.173222 0.467970 0.205005 0.132311
H12   H     H_    0.219094 0.436020 0.324555 0.136499
H13   H     H_    0.056685 0.439029 0.338706 0.136553
H14   H     H_    0.469331 0.333198 0.327862 0.127393
H15   H     H_    0.953820 0.029380 0.211342 0.159569
H16   H     H_    0.942384 0.875632 0.192206 0.131216
H17   H     H_    0.926325 0.846917 0.311792 0.134975
H18   H     H_    0.937589 0.000926 0.330176 0.136669
O1    O     O_R   0.267750 0.231960 0.575440 -0.505159
O2    O     O_R   0.596230 0.579400 0.952760 -0.505044
O3    O     O_R   0.639160 0.321170 0.958690 -0.493291
O4    O     O_R   0.527290 0.186640 0.570530 -0.494221
O5    O     O_R   0.821370 0.124220 0.104400 -0.522252
O6    O     O_R   0.037020 0.167050 0.097880 -0.510171
O7    O     O_R   0.056310 0.349620 0.102920 -0.518626
O8    O     O_R   0.797790 0.564880 0.097980 -0.508850
O9    O     O_R   0.596000 0.584270 0.104310 -0.524830
O10   O     O_R   0.638950 0.325690 0.099180 -0.507896
O11   O     O_3   0.824700 0.350240 0.028120 -0.250780
O12   O     O_R   0.685950 0.784660 0.430010 -0.507683
O13   O     O_R   0.728110 0.003450 0.576380 -0.504877
O14   O     O_R   0.682980 0.789190 0.570500 -0.493819
O15   O     O_R   0.499300 0.771880 0.575540 -0.504802
O16   O     O_R   0.285350 0.030870 0.569740 -0.493407
O17   O     O_R   0.270960 0.227070 0.423890 -0.518292
O18   O     O_R   0.530270 0.182120 0.430040 -0.508178
O19   O     O_R   0.731320 0.998570 0.424830 -0.515826
O20   O     O_R   0.502510 0.767000 0.423980 -0.517995
O21   O     O_R   0.288320 0.026340 0.429250 -0.505547
O22   O     O_3   0.499990 0.000020 0.499980 -0.254272
O23   O     O_R   0.821590 0.119350 0.952850 -0.505003
O24   O     O_R   0.037230 0.162540 0.957390 -0.494247
O25   O     O_R   0.056530 0.344750 0.951370 -0.504510
O26   O     O_R   0.798000 0.560370 0.957490 -0.494246

loop_
_geom_bond_atom_site_label_1
_geom_bond_atom_site_label_2
_ccdc_geom_bond_type
C25   C31   A    
C20   H13   S    
C19   C20   S    
C7    H1    S    
C40   O21   A    
C8    H2    S    
C30   H17   S    
Cr2   O12   S    
C7    C8    A    
C4    O15   A    
C7    C11   A    
C35   O3    A    
C26   C27   A    
C13   C18   A    
C20   H12   S    
Cr5   O7    S    
C39   O12   A    
C9    H4    S    
C5    C6    A    
Cr5   O26   S    
C4    O14   A    
C22   C38   S    
C32   O25   A    
Cr4   O23   S    
C1    C2    S    
C24   C29   S    
C12   C42   T    
Cr2   O13   S    
C17   H7    S    
Cr6   O2    S    
C33   O26   A    
C19   H9    S    
Cr4   O24   S    
Cr1   O22   S    
C4    C12   S    
C9    C10   S    
Cr1   O18   S    
C9    H3    S    
C26   C31   A    
C13   C14   A    
C38   O10   A    
C41   C43   T    
C37   O9    A    
Cr4   O6    S    
Cr6   O11   S    
C29   H15   S    
C1    O13   A    
C15   C20   S    
C37   O8    A    
C46   C48   T    
C16   O1    A    
Cr5   O8    S    
C34   C44   S    
C24   C25   A    
C13   C36   S    
C3    C8    A    
Cr3   O15   S    
C6    C11   A    
Cr2   O22   S    
Cr5   O25   S    
C17   C21   A    
C23   C44   T    
Cr3   O16   S    
Cr4   O11   S    
C10   H6    S    
C5    C9    S    
C29   C30   S    
Cr3   O20   S    
Cr2   O19   S    
C47   C48   S    
C17   C18   A    
Cr1   O4    S    
C34   C45   T    
C11   C39   S    
Cr3   O21   S    
C32   O24   A    
C22   C27   A    
C40   O17   A    
Cr1   O1    S    
C42   C43   S    
Cr4   O5    S    
C39   O20   A    
Cr6   O10   S    
C29   H16   S    
C25   C30   S    
C1    O4    A    
C14   C19   S    
C28   C31   S    
C18   H8    S    
Cr1   O17   S    
C3    C5    A    
C36   O7    A    
C16   C45   S    
C6    C10   S    
C30   H18   S    
C38   O5    A    
C35   O23   A    
C2    C47   T    
Cr5   O11   S    
C33   C41   S    
C23   C32   S    
C10   H5    S    
C26   H14   S    
C36   O6    A    
C21   C40   S    
C19   H11   S    
C28   O19   A    
C22   C24   A    
C27   H10   S    
Cr2   O14   S    
Cr3   O22   S    
Cr6   O3    S    
C33   O2    A    
C15   C21   A    
C3    C37   S    
C16   O16   A    
C14   C15   A    
C28   O18   A    
C35   C46   S    
Cr6   O9    S    
