data_mof_unit_17343.cif
_audit_creation_date              2012-12-10T17:59:44-0500
_audit_creation_method            fapswitch 2.2
_symmetry_space_group_name_H-M    P1
_symmetry_Int_Tables_number       1
_space_group_crystal_system       triclinic
_cell_length_a                    10.827829
_cell_length_b                    9.565902
_cell_length_c                    15.894874
_cell_angle_alpha                 89.520381
_cell_angle_beta                  90.881396
_cell_angle_gamma                 89.769722
_cell_volume                      1646.09184459

loop_
_atom_site_label
_atom_site_type_symbol
_atom_type_description
_atom_site_fract_x
_atom_site_fract_y
_atom_site_fract_z
_atom_type_partial_charge
C1    C     C_R   0.262213 0.500160 0.500059 0.777765
C2    C     C_3   0.628934 0.497602 0.954817 -0.418340
C3    C     C_3   0.625823 0.511017 0.051364 -0.460805
C4    C     C_1   0.497925 0.500426 0.824290 -0.032980
C5    C     C_1   0.494755 0.503200 0.175380 -0.031314
C6    C     C_1   0.497629 0.501808 0.250831 -0.197980
C7    C     C_R   0.064378 0.373045 0.500709 -0.185170
C8    C     C_R   0.063391 0.627125 0.500380 -0.189978
C9    C     C_R   0.936624 0.372854 0.500826 -0.192385
C10   C     C_R   0.935637 0.626937 0.500499 -0.180505
C11   C     C_R   0.871719 0.499797 0.500585 -0.018910
C12   C     C_R   0.128291 0.500188 0.500377 -0.017320
C13   C     C_R   0.430262 0.075502 0.442884 -0.069821
C14   C     C_R   0.429411 0.927088 0.443388 -0.095194
C15   C     C_R   0.499776 0.500515 0.340341 0.826961
C16   C     C_R   0.571787 0.922703 0.556180 0.296692
C17   C     C_R   0.569482 0.070892 0.558218 0.210617
C18   C     C_R   0.737793 0.499838 0.500277 0.785184
C19   C     C_R   0.500183 0.499535 0.659604 0.830515
C20   C     C_3   0.421681 0.641938 0.047320 0.238858
C21   C     C_3   0.429234 0.365516 0.048704 0.253099
C22   C     C_3   0.424634 0.371921 0.949036 0.255558
C23   C     C_3   0.423285 0.637267 0.947908 0.305330
C24   C     C_1   0.499267 0.498958 0.748937 -0.215580
C25   C     C_3   0.490328 0.505133 0.082845 0.169844
C26   C     C_3   0.495839 0.504355 0.916382 0.030778
Cu1   Cu    Cu3+1 0.500020 0.640660 0.500000 0.957373
Cu2   Cu    Cu3+1 0.500020 0.359340 0.500000 0.934088
H1    H     H_    0.326938 0.615186 0.927115 0.083629
H2    H     H_    0.325568 0.384885 0.929531 0.049184
H3    H     H_    0.670720 0.610379 0.070328 0.201165
H4    H     H_    0.684318 0.428167 0.081251 0.185297
H5    H     H_    0.691432 0.578027 0.929337 0.170645
H6    H     H_    0.672561 0.396029 0.938601 0.217230
H7    H     H_    0.112784 0.273719 0.500797 0.150398
H8    H     H_    0.111018 0.726495 0.500196 0.150330
H9    H     H_    0.889015 0.273478 0.500979 0.149364
H10   H     H_    0.887248 0.726263 0.500375 0.151377
H11   H     H_    0.373940 0.131997 0.397130 0.139317
H12   H     H_    0.372320 0.872442 0.398041 0.138439
N1    N     N_R   0.500030 0.852070 0.500020 -0.171223
N2    N     N_R   0.500030 0.147930 0.500020 -0.174129
O1    O     O_R   0.319660 0.618740 0.500000 -0.588437
O2    O     O_R   0.319660 0.381260 0.500000 -0.588323
O3    O     O_R   0.500020 0.618840 0.379440 -0.580237
O4    O     O_R   0.500020 0.381160 0.379440 -0.570148
O5    O     O_R   0.680370 0.618830 0.500010 -0.560827
O6    O     O_R   0.680370 0.381170 0.500010 -0.600502
O7    O     O_R   0.500010 0.618730 0.620560 -0.547905
O8    O     O_R   0.500010 0.381270 0.620560 -0.592984
N3    N     N_3   0.649314 0.845663 0.613908 -0.528150
H13   H     H_    0.623826 0.870425 0.675185 0.196421
H14   H     H_    0.740597 0.877502 0.605543 0.199753
N4    N     N_3   0.637306 0.134954 0.625517 -0.643086
H15   H     H_    0.694521 0.213973 0.604192 0.262258
H16   H     H_    0.576607 0.168799 0.671458 0.232855
N5    N     N_3   0.292951 0.653166 0.076334 -0.617253
H17   H     H_    0.233315 0.584188 0.045729 0.225530
H18   H     H_    0.288214 0.634995 0.141114 0.229061
N6    N     N_3   0.302676 0.352223 0.080441 -0.660389
H19   H     H_    0.305584 0.335962 0.145593 0.240691
H20   H     H_    0.261157 0.263326 0.054990 0.205831
N7    N     N_3   0.500980 0.242942 0.079794 -0.568993
H21   H     H_    0.452269 0.151181 0.066824 0.224049
H22   H     H_    0.585123 0.233700 0.049062 0.246707
N8    N     N_3   0.487002 0.767649 0.076676 -0.579725
H23   H     H_    0.435950 0.856372 0.058683 0.250913
H24   H     H_    0.489304 0.769359 0.142422 0.214075
O9    O     O_3   0.476340 0.247698 0.914709 -0.616735
C27   C     C_3   0.399771 0.187129 0.851835 0.061198
H25   H     H_    0.460094 0.122793 0.811524 0.163562
H26   H     H_    0.355175 0.266376 0.809486 0.132415
C28   C     C_3   0.301884 0.092598 0.891067 -0.362956
H27   H     H_    0.346156 0.021658 0.938286 0.254658
H28   H     H_    0.232304 0.157354 0.923477 0.191717
C29   C     C_3   0.235428 0.005870 0.824262 -0.849985
H29   H     H_    0.187701 0.075506 0.777773 0.239246
H30   H     H_    0.165628 0.938268 0.854676 0.258005
H31   H     H_    0.302006 0.938121 0.790982 0.264813
O10   O     O_3   0.440233 0.772754 0.910515 -0.611701
C30   C     C_3   0.554275 0.807475 0.873228 0.112317
H32   H     H_    0.530807 0.876378 0.818746 0.148236
H33   H     H_    0.605463 0.721326 0.844925 0.130321
C31   C     C_3   0.637198 0.891208 0.933018 -0.347375
H34   H     H_    0.582546 0.975776 0.962429 0.246878
H35   H     H_    0.675124 0.821539 0.983217 0.227648
C32   C     C_3   0.744886 0.957105 0.886418 -0.927448
H36   H     H_    0.801608 0.874861 0.856464 0.251265
H37   H     H_    0.804132 0.015409 0.931563 0.259893
H38   H     H_    0.710114 0.031334 0.837302 0.265443

loop_
_geom_bond_atom_site_label_1
_geom_bond_atom_site_label_2
_ccdc_geom_bond_type
N8    H24   S    
C32   H36   S    
N7    H22   S    
C11   C18   S    
C28   H27   S    
C31   C32   S    
C18   O5    A    
C30   H32   S    
Cu2   O4    S    
C23   H1    S    
C20   N8    S    
C29   H30   S    
C5    C6    T    
C4    C24   T    
N5    H18   S    
C20   C25   S    
N6    H20   S    
C8    H8    S    
C23   C26   S    
C19   O7    A    
C17   N2    A    
C6    C15   S    
Cu2   O8    S    
C1    O1    A    
C16   C17   A    
C29   H31   S    
C27   H25   S    
C23   O10   S    
C22   O9    S    
C2    H6    S    
N8    H23   S    
C13   C14   A    
C28   H28   S    
O9    C27   S    
C1    C12   S    
C13   N2    A    
C30   H33   S    
C7    C12   A    
N4    H16   S    
C13   H11   S    
N3    H13   S    
C3    C25   S    
C29   H29   S    
C21   N6    S    
Cu2   O2    S    
N6    H19   S    
N3    H14   S    
Cu1   N1    S    
C1    O2    A    
C20   C23   S    
C8    C12   A    
C27   C28   S    
C9    H9    S    
C2    C26   S    
C31   H34   S    
C3    H3    S    
C9    C11   A    
C14   N1    A    
C5    C25   S    
C2    H5    S    
C32   H37   S    
C28   C29   S    
C15   O3    A    
C30   C31   S    
Cu1   O5    S    
C7    C9    A    
C21   C25   S    
N4    H15   S    
Cu2   O6    S    
C16   N3    S    
C22   H2    S    
C7    H7    S    
C31   H35   S    
O10   C30   S    
C18   O6    A    
C4    C26   S    
C10   H10   S    
C19   C24   S    
C19   O8    A    
Cu1   O3    S    
N5    H17   S    
C16   N1    A    
Cu2   N2    S    
C2    C3    S    
C3    H4    S    
C21   N7    S    
C10   C11   A    
C14   H12   S    
N7    H21   S    
Cu1   O1    S    
C8    C10   A    
C22   C26   S    
C32   H38   S    
Cu1   Cu2   S    
C27   H26   S    
C15   O4    A    
C20   N5    S    
C21   C22   S    
C17   N4    S    
Cu1   O7    S    
