data_mof_unit_66277.cif
_audit_creation_date              2012-10-26T21:14:00-0400
_audit_creation_method            fapswitch 2.2
_symmetry_space_group_name_H-M    P1
_symmetry_Int_Tables_number       1
_space_group_crystal_system       triclinic
_cell_length_a                    15.861332
_cell_length_b                    15.86504
_cell_length_c                    17.118236
_cell_angle_alpha                 83.759981
_cell_angle_beta                  91.002773
_cell_angle_gamma                 112.232929
_cell_volume                      3962.45423198

loop_
_atom_site_label
_atom_site_type_symbol
_atom_type_description
_atom_site_fract_x
_atom_site_fract_y
_atom_site_fract_z
_atom_type_partial_charge
C1    C     C_R   0.500648 0.510558 0.348586 0.561328
C2    C     C_R   0.502356 0.559348 0.774883 -0.154514
C3    C     C_R   0.497229 0.445834 0.143484 -0.094367
C4    C     C_R   0.502067 0.554478 0.856366 -0.092370
C5    C     C_R   0.502029 0.527243 0.097768 0.236125
C6    C     C_R   0.498298 0.473502 0.902188 0.235995
C7    C     C_R   0.506532 0.602945 0.135498 0.110319
C8    C     C_R   0.494663 0.397987 0.864604 0.108700
C9    C     C_R   0.506090 0.597470 0.217313 -0.123512
C10   C     C_R   0.494981 0.403216 0.782804 -0.122734
C11   C     C_R   0.561239 0.268034 0.482926 0.029625
C12   C     C_R   0.499368 0.489482 0.651414 0.559683
C13   C     C_R   0.477453 0.741743 0.552112 0.024530
C14   C     C_R   0.560501 0.178739 0.486293 0.070653
C15   C     C_R   0.480045 0.831446 0.551891 0.065098
C16   C     C_R   0.674991 0.555187 0.498229 0.553045
C17   C     C_R   0.325010 0.444708 0.503295 0.552795
C18   C     C_R   0.480764 0.102784 0.514538 0.237796
C19   C     C_R   0.514953 0.895748 0.484116 0.227886
C20   C     C_R   0.407110 0.122162 0.541378 0.064973
C21   C     C_R   0.548844 0.866103 0.421184 0.062189
C22   C     C_R   0.412896 0.213071 0.538960 0.033077
C23   C     C_R   0.099519 0.608879 0.524054 -0.120900
C24   C     C_R   0.546831 0.776379 0.425712 0.028836
C25   C     C_R   0.774570 0.587159 0.502138 -0.000263
C26   C     C_R   0.225374 0.412011 0.510157 -0.000931
C27   C     C_R   0.922678 0.707563 0.511171 -0.115070
C28   C     C_R   0.077035 0.289667 0.529746 -0.112384
C29   C     C_R   0.828646 0.679897 0.504710 -0.121425
C30   C     C_R   0.171184 0.318354 0.520907 -0.120643
C31   C     C_R   0.815340 0.522636 0.506342 -0.121604
C32   C     C_R   0.184629 0.476382 0.508721 -0.123462
C33   C     C_R   0.909501 0.548198 0.516066 0.036731
C34   C     C_R   0.900121 0.387254 0.533726 -0.115082
C35   C     C_R   0.090295 0.449355 0.520601 0.035164
C36   C     C_R   0.963484 0.642672 0.516419 0.050395
C37   C     C_R   0.036221 0.354259 0.529219 0.049715
C38   C     C_R   0.951515 0.482813 0.523467 0.034778
C39   C     C_R   0.048224 0.514141 0.522163 0.034809
C40   C     C_R   0.057599 0.671559 0.521930 -0.110734
C41   C     C_R   0.942007 0.324468 0.537182 -0.104945
C42   C     C_R   0.501187 0.516391 0.262539 -0.018388
C43   C     C_R   0.498899 0.483863 0.737452 -0.018805
C44   C     C_R   0.496845 0.440738 0.224973 -0.153957
Cu1   Cu    Cu3+1 0.504410 0.586150 0.496120 0.960289
Cu2   Cu    Cu3+1 0.495590 0.413850 0.503880 0.964329
H1    H     H_    0.099429 0.743453 0.523635 0.143312
H2    H     H_    0.036051 0.216891 0.537120 0.130534
H3    H     H_    0.172416 0.636896 0.529674 0.121849
H4    H     H_    0.827130 0.358338 0.541841 0.129851
H5    H     H_    0.504799 0.614218 0.883102 0.175623
H6    H     H_    0.493731 0.385901 0.116663 0.174258
H7    H     H_    0.509589 0.656716 0.245264 0.156632
H8    H     H_    0.492200 0.344138 0.754957 0.164718
H9    H     H_    0.355905 0.226372 0.560331 0.148104
H10   H     H_    0.573746 0.755363 0.377036 0.150740
H11   H     H_    0.505315 0.622385 0.741295 0.151488
H12   H     H_    0.900100 0.251911 0.545220 0.147861
H13   H     H_    0.493088 0.377381 0.258473 0.157326
H14   H     H_    0.448999 0.692827 0.603008 0.152236
H15   H     H_    0.621236 0.324733 0.459324 0.151320
H16   H     H_    0.227962 0.547529 0.496468 0.130583
H17   H     H_    0.772205 0.452780 0.500188 0.122673
H18   H     H_    0.201412 0.267382 0.522398 0.139838
H19   H     H_    0.798403 0.730951 0.501694 0.146410
H20   H     H_    0.963574 0.779759 0.512216 0.131769
I1    I     I_    0.436601 0.859711 0.659605 -0.259458
I2    I     I_    0.686482 0.171456 0.454255 -0.324727
I3    I     I_    0.284436 0.015936 0.585380 -0.299999
I4    I     I_    0.603175 0.954307 0.316887 -0.231970
I5    I     I_    0.514070 0.727294 0.070634 -0.254445
I6    I     I_    0.488743 0.274328 0.929726 -0.261913
N1    N     N_2   0.502425 0.535598 0.014427 -0.211761
N2    N     N_2   0.497969 0.465298 0.985513 -0.211810
N3    N     N_R   0.488960 0.284450 0.509710 -0.258870
N4    N     N_R   0.511040 0.715550 0.490290 -0.260964
N5    N     N_2   0.472110 0.008456 0.521564 -0.151079
N6    N     N_2   0.522384 0.989745 0.476776 -0.150987
O1    O     O_R   0.504130 0.580750 0.382440 -0.510177
O2    O     O_R   0.495870 0.419250 0.617560 -0.494200
O3    O     O_R   0.496670 0.435250 0.388990 -0.493572
O4    O     O_R   0.503330 0.564750 0.611010 -0.512235
O5    O     O_R   0.635650 0.613550 0.494890 -0.493937
O6    O     O_R   0.364350 0.386450 0.505110 -0.509575
O7    O     O_R   0.628200 0.468050 0.501440 -0.517201
O8    O     O_R   0.371800 0.531950 0.498560 -0.501012

loop_
_geom_bond_atom_site_label_1
_geom_bond_atom_site_label_2
_ccdc_geom_bond_type
C25   C31   A    
C40   H1    S    
C26   C32   A    
C30   H18   S    
C27   C29   A    
N1    N2    D    
C14   C18   A    
C2    C4    A    
Cu1   O4    S    
C2    H11   S    
C13   H14   S    
Cu1   Cu2   S    
C15   C19   A    
C9    C42   A    
Cu1   N4    S    
C17   C26   S    
C35   C37   A    
C41   H12   S    
C12   C43   S    
C7    I5    S    
C38   C39   A    
C11   C14   A    
C23   H3    S    
C44   H13   S    
C1    O3    A    
C23   C40   A    
C33   C36   A    
C31   C33   A    
Cu2   O7    S    
C5    N1    S    
Cu1   O5    S    
C34   C41   A    
C42   C44   A    
C22   N3    A    
Cu2   N3    S    
C6    N2    S    
C25   C29   A    
C3    C44   A    
C34   H4    S    
C8    I6    S    
C4    H5    S    
C17   O8    A    
C32   C35   A    
C31   H17   S    
C36   C40   A    
C4    C6    A    
C5    C7    A    
C24   N4    A    
C6    C8    A    
C3    C5    A    
N5    N6    D    
C16   O5    A    
C19   N6    S    
C35   C39   A    
Cu2   O3    S    
C13   N4    A    
C2    C43   A    
C15   I1    S    
C12   O4    A    
Cu1   O1    S    
Cu2   O6    S    
C20   C22   A    
C26   C30   A    
C13   C15   A    
C16   O7    A    
C1    O1    A    
C29   H19   S    
C20   I3    S    
C9    H7    S    
C16   C25   S    
C7    C9    A    
C28   H2    S    
C19   C21   A    
C10   C43   A    
C34   C38   A    
C11   H15   S    
C3    H6    S    
C22   H9    S    
C27   C36   A    
C24   H10   S    
C33   C38   A    
C21   I4    S    
C17   O6    A    
C28   C30   A    
Cu1   O8    S    
C32   H16   S    
C27   H20   S    
C11   N3    A    
Cu2   O2    S    
C28   C37   A    
C18   N5    S    
C23   C39   A    
C12   O2    A    
C18   C20   A    
C37   C41   A    
C10   H8    S    
C1    C42   S    
C8    C10   A    
C21   C24   A    
C14   I2    S    
