data_mof_unit_34903.cif
_audit_creation_date              2012-12-10T17:32:56-0500
_audit_creation_method            fapswitch 2.2
_symmetry_space_group_name_H-M    P1
_symmetry_Int_Tables_number       1
_space_group_crystal_system       triclinic
_cell_length_a                    12.357818
_cell_length_b                    13.281038
_cell_length_c                    14.100249
_cell_angle_alpha                 93.460747
_cell_angle_beta                  107.472159
_cell_angle_gamma                 117.2487
_cell_volume                      1908.31484799

loop_
_atom_site_label
_atom_site_type_symbol
_atom_type_description
_atom_site_fract_x
_atom_site_fract_y
_atom_site_fract_z
_atom_type_partial_charge
C1    C     C_R   0.654130 0.714598 0.513559 0.809068
C2    C     C_R   0.822468 0.464290 0.917061 -0.118255
C3    C     C_R   0.768925 0.475471 0.989900 -0.222375
C4    C     C_R   0.922630 0.434157 0.943396 -0.088639
C5    C     C_R   0.994214 0.450781 0.048779 -0.173749
C6    C     C_R   0.951112 0.483448 0.122800 0.323688
C7    C     C_R   0.830679 0.479452 0.091641 0.592576
C8    C     C_R   0.954852 0.389260 0.868145 0.513948
C9    C     C_R   0.074863 0.393207 0.895694 -0.211756
C10   C     C_R   0.154655 0.422134 0.998226 -0.066231
C11   C     C_R   0.108851 0.439951 0.075153 0.039060
C12   C     C_R   0.618382 0.516623 0.687786 0.841869
C13   C     C_R   0.276810 0.427288 0.025175 0.602017
C14   C     C_R   0.353072 0.449135 0.127807 -0.278391
C15   C     C_R   0.179175 0.444700 0.175498 -0.207535
C16   C     C_R   0.119747 0.969951 0.344665 0.546654
C17   C     C_R   0.246424 0.161960 0.457723 -0.255628
C18   C     C_R   0.774973 0.910234 0.625185 -0.407640
C19   C     C_R   0.897069 0.010466 0.675550 0.426483
C20   C     C_R   0.994374 0.041648 0.633774 0.386200
C21   C     C_R   0.964819 0.979636 0.534318 -0.065406
C22   C     C_R   0.843373 0.874925 0.487741 -0.066855
C23   C     C_R   0.343667 0.285165 0.482169 0.840257
C24   C     C_R   0.052646 0.015013 0.480964 -0.043794
C25   C     C_R   0.028077 0.937771 0.392730 -0.176205
C26   C     C_R   0.908484 0.833744 0.350062 0.656398
C27   C     C_R   0.815038 0.806978 0.393472 -0.245604
C28   C     C_R   0.158454 0.128398 0.507798 -0.257535
C29   C     C_R   0.228600 0.082043 0.376389 0.335697
C30   C     C_R   0.752792 0.837724 0.537154 -0.112537
C31   C     C_R   0.256918 0.692546 0.658753 0.336329
C32   C     C_R   0.654243 0.340679 0.363938 0.117513
C33   C     C_R   0.731436 0.305208 0.333891 -0.208728
C34   C     C_R   0.379048 0.479317 0.312447 0.804627
C35   C     C_R   0.867010 0.364961 0.385273 -0.109490
C36   C     C_R   0.927732 0.462075 0.467661 0.044291
C37   C     C_R   0.844080 0.495853 0.494870 0.300835
C38   C     C_R   0.067704 0.527235 0.523522 -0.079515
C39   C     C_R   0.120625 0.626591 0.602889 0.038476
C40   C     C_R   0.037325 0.659475 0.625626 -0.220648
C41   C     C_R   0.902928 0.594273 0.574872 -0.080415
C42   C     C_R   0.158498 0.499216 0.503884 0.028675
C43   C     C_R   0.340062 0.662691 0.631922 0.005033
C44   C     C_R   0.674975 0.512223 0.795068 -0.336257
C45   C     C_R   0.304044 0.457987 0.203467 -0.181259
C46   C     C_R   0.664511 0.497414 0.963248 -0.151041
C47   C     C_R   0.619945 0.519512 0.867907 0.407955
C48   C     C_R   0.782136 0.493462 0.823483 0.583793
Cu1   Cu    Cu3+1 0.416420 0.526630 0.522910 0.944199
Cu2   Cu    Cu3+1 0.583580 0.473370 0.477090 0.966950
H1    H     H_    0.168701 0.195456 0.562443 0.247048
H2    H     H_    0.702015 0.883124 0.659953 0.166251
H3    H     H_    0.719775 0.731077 0.352318 0.182409
H4    H     H_    0.444892 0.716305 0.670357 0.123959
H5    H     H_    0.137067 0.434089 0.233219 0.216266
H6    H     H_    0.075634 0.736356 0.684423 0.173436
H7    H     H_    0.126355 0.424904 0.445295 0.136068
H8    H     H_    0.549538 0.293961 0.323719 0.154318
H9    H     H_    0.921861 0.333954 0.358478 0.131205
H10   H     H_    0.685909 0.231026 0.270410 0.138694
H11   H     H_    0.848757 0.624367 0.601948 0.204262
H12   H     H_    0.448625 0.456587 0.147768 0.196977
H13   H     H_    0.102500 0.368121 0.836144 0.241975
H14   H     H_    0.621645 0.503921 0.018356 0.235959
N1    N     N_R   0.290690 0.566960 0.557640 -0.208138
N2    N     N_R   0.709100 0.433710 0.442970 -0.214298
O1    O     O_R   0.545970 0.684450 0.528810 -0.585873
O2    O     O_R   0.687130 0.639470 0.490120 -0.607032
O3    O     O_R   0.519670 0.535100 0.660030 -0.543122
O4    O     O_R   0.660830 0.490120 0.621340 -0.544020
O5    O     O_R   0.312870 0.360530 0.509880 -0.587627
O6    O     O_R   0.454030 0.315550 0.471190 -0.557312
O7    O     O_R   0.339170 0.509880 0.378660 -0.586624
O8    O     O_R   0.480330 0.464900 0.339970 -0.586366
F1    F     F_    0.786923 0.500241 0.164216 -0.625985
F2    F     F_    0.323200 0.413072 0.952476 -0.672470
O9    O     O_3   0.313814 0.113997 0.324464 -0.559878
C49   C     C_3   0.259357 0.140220 0.232200 0.101801
H15   H     H_    0.300229 0.235791 0.244851 0.135372
H16   H     H_    0.150284 0.098279 0.202525 0.138392
C50   C     C_3   0.296626 0.100563 0.149544 -0.749908
H17   H     H_    0.251451 0.004273 0.132365 0.269760
H18   H     H_    0.261075 0.126915 0.078747 0.194932
H19   H     H_    0.404540 0.140459 0.174928 0.227956
F3    F     F_    0.877265 0.760800 0.262285 -0.609319
F4    F     F_    0.100479 0.896264 0.262485 -0.652112
O10   O     O_3   0.119238 0.129229 0.694909 -0.556928
C51   C     C_3   0.192794 0.078214 0.743219 0.065600
H20   H     H_    0.195881 0.018519 0.686362 0.150292
H21   H     H_    0.150891 0.028913 0.796347 0.136430
C52   C     C_3   0.332851 0.173904 0.804858 -0.701281
H22   H     H_    0.334037 0.233120 0.864685 0.296817
H23   H     H_    0.392064 0.134793 0.842326 0.182299
H24   H     H_    0.377304 0.224929 0.753800 0.240161
O11   O     O_3   0.925462 0.080559 0.766630 -0.551701
C53   C     C_3   0.909958 0.016000 0.842498 0.053615
H25   H     H_    0.948867 0.955125 0.841039 0.126370
H26   H     H_    0.804907 0.965897 0.832527 0.130314
C54   C     C_3   0.984988 0.099951 0.947202 -0.783114
H27   H     H_    0.978045 0.050401 0.007893 0.202457
H28   H     H_    0.089663 0.154818 0.957971 0.263067
H29   H     H_    0.943331 0.157218 0.954167 0.231753
O12   O     O_3   0.310930 0.790238 0.735903 -0.602395
C55   C     C_3   0.309493 0.754937 0.828321 0.055775
H30   H     H_    0.354247 0.698687 0.843458 0.163326
H31   H     H_    0.207667 0.705928 0.826615 0.177115
C56   C     C_3   0.387083 0.862233 0.916372 -0.810645
H32   H     H_    0.342329 0.918662 0.904774 0.247092
H33   H     H_    0.386893 0.835504 0.989478 0.209844
H34   H     H_    0.489896 0.912310 0.920829 0.244178
O13   O     O_3   0.529346 0.556605 0.849772 -0.514838
C57   C     C_3   0.596265 0.679177 0.887829 0.090482
H35   H     H_    0.546808 0.715235 0.833531 0.144357
H36   H     H_    0.700434 0.725256 0.893379 0.106971
C58   C     C_3   0.589779 0.709661 0.991372 -0.772583
H37   H     H_    0.656211 0.692781 0.052228 0.272597
H38   H     H_    0.621364 0.803607 0.010887 0.198123
H39   H     H_    0.488169 0.657719 0.988995 0.269834
F5    F     F_    0.858252 0.520448 0.766356 -0.647450
O14   O     O_3   0.028723 0.530127 0.225344 -0.587367
C59   C     C_3   0.110759 0.651021 0.238956 0.141545
H40   H     H_    0.052288 0.693230 0.207871 0.245883
H41   H     H_    0.181948 0.667613 0.200510 0.130147
C60   C     C_3   0.187290 0.707354 0.352346 -0.689993
H42   H     H_    0.249080 0.669045 0.385413 0.242214
H43   H     H_    0.251876 0.802362 0.363419 0.223227
H44   H     H_    0.118760 0.693816 0.392577 0.257404
O15   O     O_3   0.872119 0.341854 0.766442 -0.515968
C61   C     C_3   0.761502 0.235089 0.757635 0.082781
H45   H     H_    0.696257 0.249604 0.789355 0.123042
H46   H     H_    0.790454 0.176523 0.797729 0.164158
C62   C     C_3   0.684023 0.173995 0.645102 -0.696410
H47   H     H_    0.745968 0.156753 0.611195 0.254211
H48   H     H_    0.596603 0.089846 0.636915 0.193186
H49   H     H_    0.651385 0.229452 0.603249 0.259958

loop_
_geom_bond_atom_site_label_1
_geom_bond_atom_site_label_2
_ccdc_geom_bond_type
C12   O3    A    
C20   O10   S    
C17   C29   A    
O11   C53   S    
C41   H11   S    
C4    C8    A    
O15   C61   S    
C55   H31   S    
C50   H17   S    
C18   H2    S    
O9    C49   S    
C26   C27   A    
C17   C23   S    
Cu1   N1    S    
C60   H43   S    
C36   C37   A    
C62   H49   S    
C38   C42   A    
C3    C7    A    
Cu2   O8    S    
C5    C6    A    
C28   H1    S    
C49   H16   S    
C58   H37   S    
C14   H12   S    
C53   C54   S    
C1    O2    A    
C35   H9    S    
C18   C19   A    
C6    O14   S    
Cu2   O6    S    
C55   H30   S    
C59   C60   S    
C1    O1    A    
C11   C15   A    
C8    O15   S    
C35   C36   A    
C62   H47   S    
C40   H6    S    
C53   H26   S    
C42   N1    A    
C56   H32   S    
C51   C52   S    
C18   C30   A    
C32   H8    S    
C48   F5    S    
Cu1   O1    S    
C9    C10   A    
C44   C47   A    
C61   C62   S    
Cu1   O3    S    
C21   C22   A    
C37   N2    A    
C16   F4    S    
C56   H33   S    
C42   H7    S    
C57   H36   S    
C57   H35   S    
C50   H18   S    
C14   C45   A    
C23   O5    A    
C24   C25   A    
C52   H22   S    
C49   H15   S    
C8    C9    A    
C7    F1    S    
C58   H38   S    
C16   C29   A    
C46   H14   S    
C15   H5    S    
C2    C4    A    
C52   H23   S    
C43   H4    S    
C54   H27   S    
C13   F2    S    
C43   N1    A    
C58   H39   S    
C53   H25   S    
C34   C45   S    
C20   C21   A    
Cu2   N2    S    
C59   H40   S    
C31   C43   A    
C34   O8    A    
C60   H44   S    
C40   C41   A    
C54   H28   S    
C51   H21   S    
C33   H10   S    
C22   C27   A    
C56   H34   S    
Cu1   O7    S    
C15   C45   A    
C39   C40   A    
C50   H19   S    
C19   O11   S    
O14   C59   S    
C32   N2    A    
C61   H45   S    
C16   C25   A    
C12   O4    A    
C46   C47   A    
C22   C30   A    
O13   C57   S    
C9    H13   S    
C17   C28   A    
C23   O6    A    
C24   C28   A    
C4    C5    A    
C10   C13   A    
C27   H3    S    
C5    C11   A    
C6    C7    A    
C3    C46   A    
C2    C48   A    
C32   C33   A    
C19   C20   A    
C36   C38   A    
C2    C3    A    
Cu2   O4    S    
C12   C44   S    
C25   C26   A    
C52   H24   S    
C49   C50   S    
C38   C39   A    
C26   F3    S    
C47   O13   S    
C1    C30   S    
C33   C35   A    
C31   C39   A    
C55   C56   S    
C37   C41   A    
C59   H41   S    
C10   C11   A    
C34   O7    A    
C54   H29   S    
C29   O9    S    
C51   H20   S    
O10   C51   S    
C62   H48   S    
Cu1   Cu2   S    
Cu1   O5    S    
C21   C24   A    
O12   C55   S    
C13   C14   A    
Cu2   O2    S    
C57   C58   S    
C44   C48   A    
C31   O12   S    
C60   H42   S    
C61   H46   S    
