data_mof_unit_67854.cif
_audit_creation_date              2013-03-05T15:41:50-0500
_audit_creation_method            fapswitch 2.2
_symmetry_space_group_name_H-M    P1
_symmetry_Int_Tables_number       1
_space_group_crystal_system       triclinic
_cell_length_a                    8.05297
_cell_length_b                    8.829647
_cell_length_c                    10.787608
_cell_angle_alpha                 94.3761
_cell_angle_beta                  87.200839
_cell_angle_gamma                 91.862532
_cell_volume                      763.583908144

loop_
_atom_site_label
_atom_site_type_symbol
_atom_site_description
_atom_site_fract_x
_atom_site_fract_y
_atom_site_fract_z
_atom_type_partial_charge
O1    O     O_R   0.389250 0.738570 0.508410 -0.642210
O2    O     O_R   0.610750 0.261430 0.491590 -0.642197
O3    O     O_R   0.678390 0.711620 0.486450 -0.616799
O4    O     O_R   0.321610 0.288380 0.513550 -0.616823
C1    C     C_R   0.542944 0.792694 0.495447 0.949827
C2    C     C_R   0.457057 0.207309 0.504582 0.949806
O5    O     O_R   0.355460 0.513510 0.697030 -0.629298
O6    O     O_R   0.644540 0.486490 0.302970 -0.629308
O7    O     O_R   0.644600 0.486560 0.675070 -0.641797
O8    O     O_R   0.355400 0.513440 0.324930 -0.641793
C3    C     C_R   0.503711 0.503855 0.741984 0.835993
C4    C     C_R   0.496289 0.496156 0.258016 0.836000
Zn1   Zn    Zn3+2 0.306940 0.517990 0.514670 0.928862
Zn2   Zn    Zn3+2 0.693060 0.482010 0.485330 0.928874
N1    N     N_2   0.950320 0.457950 0.465730 -0.160724
N2    N     N_2   0.049680 0.542050 0.534270 -0.160727
C5    C     C_3   0.410338 0.614630 0.968846 -0.221836
C6    C     C_3   0.589660 0.385397 0.031153 -0.221813
C7    C     C_3   0.560842 0.628696 0.052344 0.069163
C8    C     C_3   0.439152 0.371336 0.947658 0.069199
H1    H     H_    0.330662 0.709300 0.953723 0.143155
H2    H     H_    0.669350 0.290737 0.046278 0.143134
C9    C     C_3   0.491167 0.495654 0.122184 -0.011575
C10   C     C_3   0.508833 0.504374 0.877817 -0.011591
C11   C     C_3   0.339795 0.479895 0.039709 -0.236708
C12   C     C_3   0.660205 0.520138 0.960294 -0.236743
H3    H     H_    0.204849 0.469443 0.061371 0.126273
H4    H     H_    0.795155 0.530607 0.938649 0.126289
C13   C     C_2   0.564959 0.954643 0.492703 -0.372069
C14   C     C_2   0.435042 0.045365 0.507378 -0.372100
H5    H     H_    0.689725 0.999197 0.478934 0.185325
H6    H     H_    0.310271 0.000815 0.521183 0.185309
C15   C     C_R   0.615144 0.780306 0.109712 0.119076
C16   C     C_R   0.774767 0.841222 0.084513 -0.176511
C17   C     C_R   0.808953 0.994437 0.115668 -0.150789
C18   C     C_R   0.694727 0.081006 0.188520 -0.112546
C19   C     C_R   0.537742 0.019983 0.216436 -0.129887
C20   C     C_R   0.497742 0.869503 0.178267 -0.152591
H7    H     H_    0.870113 0.773353 0.035633 0.113592
H8    H     H_    0.923989 0.046542 0.083828 0.139111
H9    H     H_    0.727108 0.196195 0.221926 0.158240
H10   H     H_    0.448198 0.090075 0.267768 0.147697
H11   H     H_    0.375718 0.821827 0.200661 0.120725
C21   C     C_R   0.384768 0.219748 0.890293 0.119071
C22   C     C_R   0.225087 0.158941 0.915453 -0.176523
C23   C     C_R   0.190795 0.005738 0.884327 -0.150748
C24   C     C_R   0.305000 0.919068 0.811543 -0.112571
C25   C     C_R   0.462034 0.979996 0.783632 -0.129859
C26   C     C_R   0.502121 0.130471 0.821768 -0.152581
H12   H     H_    0.129773 0.226878 0.964301 0.113577
H13   H     H_    0.075646 0.953724 0.916124 0.139094
H14   H     H_    0.272544 0.803881 0.778166 0.158193
H15   H     H_    0.551542 0.909834 0.732329 0.147656
H16   H     H_    0.624169 0.178091 0.799374 0.120694
C27   C     C_R   0.011863 0.327854 0.399617 0.328579
C28   C     C_R   0.960356 0.185817 0.435661 -0.173986
C29   C     C_R   0.004898 0.055367 0.361915 -0.185475
C30   C     C_R   0.117810 0.067107 0.261546 -0.151220
C31   C     C_R   0.162352 0.210170 0.222994 -0.223651
C32   C     C_R   0.091061 0.338425 0.283952 -0.112037
H17   H     H_    0.882313 0.178569 0.518985 0.149277
H18   H     H_    0.947515 0.946657 0.378393 0.162803
H19   H     H_    0.156495 0.966421 0.206305 0.136005
H20   H     H_    0.249530 0.220727 0.145994 0.155706
H21   H     H_    0.100655 0.447497 0.245569 0.132474
C33   C     C_R   0.988123 0.672131 0.600392 0.328602
C34   C     C_R   0.039598 0.814190 0.564361 -0.174111
C35   C     C_R   0.994973 0.944619 0.638104 -0.185530
C36   C     C_R   0.882004 0.932832 0.738437 -0.151281
C37   C     C_R   0.837504 0.789753 0.776976 -0.223532
C38   C     C_R   0.908905 0.661530 0.716047 -0.112042
H22   H     H_    0.117719 0.821486 0.481087 0.149334
H23   H     H_    0.052364 0.053339 0.621667 0.162787
H24   H     H_    0.843265 0.033499 0.793675 0.135970
H25   H     H_    0.750285 0.779164 0.853951 0.155643
H26   H     H_    0.899347 0.552456 0.754426 0.132468

loop_
_geom_bond_atom_site_label_1
_geom_bond_atom_site_label_2
_geom_bond_distance
_ccdc_geom_bond_type
C21   C26   1.397209 A    
C27   C28   1.385976 A    
C17   C18   1.389769 A    
C6    C12   1.541070 S    
C29   H18   1.075018 S    
C22   C23   1.390801 A    
O5    C3    1.318038 A    
C4    C9    1.467563 S    
C31   H20   1.068706 S    
C19   C20   1.392962 A    
O1    C1    1.317071 A    
C18   C19   1.386540 A    
C10   C12   1.540434 S    
C16   C17   1.390807 A    
C38   H26   1.076003 S    
C8    C11   1.540143 S    
C26   H16   1.080091 S    
C3    C10   1.467560 S    
C19   H10   1.071146 S    
C28   C29   1.395498 A    
C34   H22   1.076064 S    
O4    Zn1   2.033727 S    
C7    C12   1.540153 S    
C16   H7    1.081134 S    
C24   C25   1.386564 A    
C35   C36   1.387377 A    
C37   C38   1.391498 A    
C33   C34   1.386048 A    
C31   C32   1.391469 A    
C27   C32   1.381494 A    
C18   H9    1.080892 S    
O2    C2    1.317079 A    
C8    C21   1.492726 S    
C1    C13   1.437543 S    
C25   H15   1.071159 S    
C5    C10   1.539282 S    
C34   C35   1.395498 A    
C8    C10   1.520960 S    
O4    C2    1.319618 A    
C7    C15   1.492716 S    
C35   H23   1.075033 S    
C23   H13   1.074125 S    
C5    H1    1.096780 S    
C6    C9    1.539295 S    
N1    C27   1.396878 S    
C7    C9    1.520962 S    
O7    Zn2   2.062503 S    
C13   C14   1.334262 D    
C33   C38   1.381494 A    
Zn2   N1    2.088248 S    
O6    C4    1.318043 A    
C15   C16   1.399563 A    
C36   H24   1.077727 S    
O7    C3    1.321391 A    
O3    Zn2   2.033727 S    
O8    C4    1.321387 A    
C25   C26   1.392995 A    
C2    C14   1.437554 S    
C32   H21   1.076015 S    
O1    Zn1   2.041816 S    
C21   C22   1.399556 A    
C30   H19   1.077750 S    
C23   C24   1.389783 A    
O6    Zn2   2.027849 S    
C6    H2    1.096784 S    
O3    C1    1.319622 A    
O8    Zn1   2.062503 S    
C24   H14   1.080919 S    
C11   H3    1.102747 S    
C12   H4    1.102755 S    
C15   C20   1.397234 A    
C5    C11   1.541054 S    
C17   H8    1.073853 S    
C30   C31   1.390475 A    
C20   H11   1.080110 S    
C13   H5    1.074691 S    
C14   H6    1.074765 S    
C29   C30   1.387340 A    
C22   H12   1.081137 S    
C5    C7    1.541260 S    
C6    C8    1.541272 S    
C9    C11   1.540414 S    
C36   C37   1.390483 A    
O2    Zn2   2.041817 S    
O5    Zn1   2.027851 S    
N2    C33   1.396857 S    
Zn1   N2    2.088248 S    
C37   H25   1.068742 S    
C28   H17   1.076120 S    
N1    N2    1.293717 D    
