data_mof_unit_56102.cif
_audit_creation_date              2013-03-05T16:59:36-0500
_audit_creation_method            fapswitch 2.2
_symmetry_space_group_name_H-M    P1
_symmetry_Int_Tables_number       1
_space_group_crystal_system       triclinic
_cell_length_a                    8.722254
_cell_length_b                    16.244858
_cell_length_c                    16.388845
_cell_angle_alpha                 84.199998
_cell_angle_beta                  95.773759
_cell_angle_gamma                 99.583854
_cell_volume                      2269.71022116

loop_
_atom_site_label
_atom_site_type_symbol
_atom_site_description
_atom_site_fract_x
_atom_site_fract_y
_atom_site_fract_z
_atom_type_partial_charge
O1    O     O_R   0.493140 0.422050 0.612640 -0.558623
O2    O     O_R   0.506860 0.577950 0.387360 -0.555137
O3    O     O_R   0.505450 0.562230 0.618920 -0.573968
O4    O     O_R   0.494550 0.437770 0.381080 -0.581314
C1    C     C_R   0.482278 0.485913 0.653047 0.977104
C2    C     C_R   0.512899 0.514054 0.346278 0.984434
O5    O     O_R   0.723530 0.446300 0.497600 -0.565403
O6    O     O_R   0.276470 0.553700 0.502400 -0.568207
O7    O     O_R   0.735850 0.586490 0.503880 -0.556527
O8    O     O_R   0.264150 0.413510 0.496120 -0.566110
C3    C     C_R   0.799059 0.520724 0.500835 0.929363
C4    C     C_R   0.200734 0.479354 0.497523 0.884124
Zn1   Zn    Zn3+2 0.491780 0.406400 0.495810 1.132055
Zn2   Zn    Zn3+2 0.508220 0.593600 0.504190 1.138365
C5    C     C_2   0.959922 0.532669 0.491355 0.061822
C6    C     C_2   0.038647 0.466906 0.503157 0.050870
C7    C     C_R   0.419708 0.471622 0.735352 -0.377407
C8    C     C_R   0.530057 0.526268 0.256863 -0.336616
C9    C     C_R   0.331106 0.529374 0.760113 0.183854
C10   C     C_R   0.559475 0.458956 0.215911 0.173287
C11   C     C_R   0.284555 0.520746 0.840615 0.183792
C12   C     C_R   0.514980 0.457299 0.131250 0.132566
C13   C     C_R   0.321109 0.452800 0.895004 0.026855
C14   C     C_R   0.436916 0.521303 0.089624 0.048172
C15   C     C_R   0.377059 0.387127 0.865344 0.391502
C16   C     C_R   0.425396 0.592071 0.129485 0.363080
C17   C     C_R   0.432792 0.397607 0.787180 0.176143
C18   C     C_R   0.498058 0.599954 0.209808 0.096376
N1    N     N_2   0.327873 0.454449 0.981332 -0.066841
N2    N     N_2   0.396286 0.523055 0.003901 -0.038762
N3    N     N_R   0.519180 0.718290 0.509780 -0.211729
N4    N     N_R   0.480820 0.281710 0.490220 -0.213758
C19   C     C_R   0.434745 0.763607 0.450725 0.271509
C20   C     C_R   0.572062 0.235196 0.545059 0.250637
C21   C     C_R   0.419760 0.847377 0.460466 0.293186
C22   C     C_R   0.581979 0.151278 0.532519 0.289346
C23   C     C_R   0.511345 0.890458 0.522862 0.023391
C24   C     C_R   0.482096 0.109392 0.472221 0.022763
C25   C     C_R   0.602441 0.844734 0.581148 0.059355
C26   C     C_R   0.388767 0.156647 0.417053 0.061434
C27   C     C_R   0.604709 0.758358 0.573416 0.271502
C28   C     C_R   0.388966 0.242780 0.427559 0.273695
N5    N     N_2   0.514436 0.978549 0.529405 -0.021055
N6    N     N_2   0.475211 0.021097 0.464664 -0.021847
N7    N     N_R   0.027744 0.616072 0.463204 0.231077
O9    O     O_R   0.975676 0.647396 0.391523 -0.362254
O10   O     O_R   0.094021 0.667152 0.517233 -0.317241
N8    N     N_R   0.968665 0.382315 0.526213 0.234575
O11   O     O_R   0.020981 0.345098 0.595012 -0.366790
O12   O     O_R   0.896137 0.336586 0.469068 -0.321885
N9    N     N_R   0.653225 0.399921 0.258075 0.260073
O13   O     O_R   0.773465 0.426150 0.307761 -0.354074
O14   O     O_R   0.623158 0.320828 0.245692 -0.246527
N10   N     N_R   0.268741 0.589001 0.701086 0.258290
O15   O     O_R   0.122987 0.572931 0.673172 -0.323902
O16   O     O_R   0.342411 0.665305 0.691443 -0.270427
N11   N     N_R   0.559480 0.395081 0.086351 0.270828
O17   O     O_R   0.661249 0.417018 0.032180 -0.314023
O18   O     O_R   0.484813 0.318718 0.092170 -0.262582
N12   N     N_R   0.194307 0.578160 0.866528 0.265315
O19   O     O_R   0.074700 0.549774 0.908386 -0.352802
O20   O     O_R   0.230713 0.658499 0.848851 -0.236015
O21   O     O_3   0.395655 0.316093 0.917118 -0.530952
C29   C     C_3   0.264921 0.253019 0.903241 0.159622
H1    H     H_    0.305125 0.191456 0.918465 0.210779
H2    H     H_    0.215631 0.253891 0.837645 0.152017
C30   C     C_3   0.137080 0.258799 0.959230 -0.397122
H3    H     H_    0.186669 0.257182 0.024425 0.292428
H4    H     H_    0.091229 0.318708 0.943153 0.248627
C31   C     C_3   0.001806 0.186651 0.949970 -0.724980
H5    H     H_    0.948721 0.187949 0.885408 0.284440
H6    H     H_    0.911119 0.192763 0.990950 0.298773
H7    H     H_    0.043096 0.125651 0.967348 0.268821
O22   O     O_3   0.354033 0.655449 0.086152 -0.546411
C32   C     C_3   0.224255 0.668387 0.126482 0.184535
H8    H     H_    0.202249 0.733305 0.107645 0.213318
H9    H     H_    0.245703 0.664265 0.194805 0.180300
C33   C     C_3   0.077196 0.607543 0.100892 -0.402274
H10   H     H_    0.043093 0.621874 0.034608 0.302859
H11   H     H_    0.100996 0.541998 0.110651 0.247777
C34   C     C_3   0.941398 0.615220 0.150198 -0.746046
H12   H     H_    0.970230 0.598396 0.216731 0.295340
H13   H     H_    0.836070 0.571877 0.128778 0.270927
H14   H     H_    0.914616 0.680193 0.141521 0.283434
N13   N     N_R   0.501245 0.331761 0.761849 0.265234
O23   O     O_R   0.629860 0.313867 0.801716 -0.252438
O24   O     O_R   0.412255 0.275232 0.720282 -0.373673
N14   N     N_R   0.563685 0.681750 0.236142 0.262080
O25   O     O_R   0.545585 0.748863 0.188012 -0.277635
O26   O     O_R   0.675580 0.688682 0.295068 -0.337039
N15   N     N_R   0.653167 0.267156 0.619245 0.268978
O27   O     O_R   0.717960 0.344507 0.621717 -0.294113
O28   O     O_R   0.678154 0.215780 0.683705 -0.256478
N16   N     N_R   0.369400 0.730448 0.374530 0.238121
O29   O     O_R   0.282361 0.657766 0.373556 -0.358761
O30   O     O_R   0.369045 0.780277 0.307193 -0.310696
O31   O     O_3   0.689626 0.109319 0.580454 -0.555612
C35   C     C_3   0.836684 0.133048 0.548687 0.144961
H15   H     H_    0.885199 0.198111 0.562596 0.232354
H16   H     H_    0.828692 0.128648 0.480760 0.158722
C36   C     C_3   0.948187 0.075093 0.589855 -0.264699
H17   H     H_    0.946260 0.071728 0.657860 0.283524
H18   H     H_    0.909415 0.011311 0.569283 0.239871
C37   C     C_3   0.114721 0.106018 0.567342 -0.889110
H19   H     H_    0.117450 0.112593 0.499507 0.269312
H20   H     H_    0.191578 0.060288 0.594050 0.285845
H21   H     H_    0.159935 0.167675 0.591685 0.300336
O32   O     O_3   0.313703 0.887238 0.408896 -0.554765
C38   C     C_3   0.162021 0.858246 0.433820 0.155032
H22   H     H_    0.160611 0.848168 0.502268 0.164888
H23   H     H_    0.114496 0.798683 0.406265 0.237335
C39   C     C_3   0.055699 0.922566 0.402824 -0.276541
H24   H     H_    0.100478 0.981913 0.431463 0.238354
H25   H     H_    0.056171 0.934994 0.334892 0.287161
C40   C     C_3   0.888556 0.891812 0.424839 -0.871320
H26   H     H_    0.838881 0.833863 0.394624 0.308734
H27   H     H_    0.815021 0.940779 0.403744 0.282297
H28   H     H_    0.886033 0.878567 0.492518 0.264514
N17   N     N_R   0.693583 0.885910 0.647919 0.250939
O33   O     O_R   0.635402 0.937641 0.687121 -0.267602
O34   O     O_R   0.835396 0.872296 0.669813 -0.323137
N18   N     N_R   0.293267 0.117296 0.350489 0.248313
O35   O     O_R   0.150736 0.131171 0.331761 -0.329912
O36   O     O_R   0.348105 0.066527 0.308559 -0.272336
N19   N     N_R   0.699345 0.713185 0.632165 0.271130
O37   O     O_R   0.833676 0.700123 0.612869 -0.279123
O38   O     O_R   0.671233 0.704273 0.709295 -0.255549
N20   N     N_R   0.289605 0.288798 0.372656 0.263663
O39   O     O_R   0.314603 0.302123 0.295184 -0.298316
O40   O     O_R   0.152753 0.294855 0.394056 -0.297978

loop_
_geom_bond_atom_site_label_1
_geom_bond_atom_site_label_2
_geom_bond_distance
_ccdc_geom_bond_type
C36   H17   1.112011 S    
Zn1   N4    2.022806 S    
Zn2   N3    2.022806 S    
C32   H8    1.110842 S    
C19   N16   1.436972 S    
C6    N8    1.437317 S    
C12   N11   1.432514 S    
C37   H20   1.110821 S    
C34   H12   1.111033 S    
C25   C27   1.425135 A    
N7    O9    1.301567 A    
O5    C3    1.280320 A    
O1    C1    1.306913 A    
C13   N1    1.412884 S    
C9    C11   1.405924 A    
C14   C16   1.400678 A    
C10   N9    1.441995 S    
C38   H23   1.108652 S    
C33   H11   1.111271 S    
N11   O18   1.300649 A    
C1    C7    1.487916 S    
C5    C6    1.351279 D    
O32   C38   1.414706 S    
N12   O20   1.300815 A    
C15   O21   1.383691 S    
N7    O10   1.300987 A    
O4    Zn1   1.899252 S    
C17   N13   1.423123 S    
C20   N15   1.442376 S    
C39   H24   1.109726 S    
C21   O32   1.385957 S    
C19   C21   1.414846 A    
C3    C5    1.406260 S    
C4    C6    1.405504 S    
C40   H27   1.110569 S    
C18   N14   1.446531 S    
N3    C19   1.383530 A    
C31   H5    1.111113 S    
C8    C10   1.410104 A    
C28   N20   1.429142 S    
N8    O12   1.301564 A    
C36   H18   1.110225 S    
N20   O39   1.300349 A    
O2    C2    1.303870 A    
C39   H25   1.111538 S    
C37   H19   1.108348 S    
C34   H13   1.110258 S    
O31   C35   1.412110 S    
N17   O34   1.301305 A    
C2    C8    1.478061 S    
N10   O16   1.299981 A    
O22   C32   1.421332 S    
N13   O24   1.300987 A    
N9    O13   1.301544 A    
C7    C17   1.414189 A    
C29   C30   1.533717 S    
C27   N19   1.430340 S    
C8    C18   1.409549 A    
C11   N12   1.435854 S    
O4    C2    1.302340 A    
C38   C39   1.526557 S    
N15   O27   1.291967 A    
C33   H10   1.108924 S    
N13   O23   1.300999 A    
C30   H3    1.111090 S    
N12   O19   1.300558 A    
C30   H4    1.110444 S    
C29   H2    1.116574 S    
C23   N5    1.441406 S    
O7    Zn2   2.008449 S    
C24   N6    1.442923 S    
N1    N2    1.245975 D    
N15   O28   1.302351 A    
C32   H9    1.113639 S    
O6    C4    1.282428 A    
C40   H28   1.110022 S    
C31   H7    1.110824 S    
C37   H21   1.111525 S    
N16   O30   1.301050 A    
O7    C3    1.288524 A    
C22   O31   1.385571 S    
O3    Zn2   1.899252 S    
O8    C4    1.286518 A    
C9    N10   1.431832 S    
N8    O11   1.302167 A    
C10   C12   1.404355 A    
C36   C37   1.525049 S    
C35   H16   1.117175 S    
C11   C13   1.405581 A    
N5    N6    1.256214 D    
N19   O37   1.299526 A    
C12   C14   1.417382 A    
O1    Zn1   1.955425 S    
C5    N7    1.435329 S    
N18   O36   1.301243 A    
C34   H14   1.110817 S    
N10   O15   1.300105 A    
O6    Zn2   2.015593 S    
N3    C27   1.373627 A    
C21   C23   1.402755 A    
N14   O26   1.301379 A    
O3    C1    1.299933 A    
O8    Zn1   2.008450 S    
N20   O40   1.299169 A    
N17   O33   1.301227 A    
C15   C17   1.399984 A    
C35   C36   1.527065 S    
C26   N18   1.439917 S    
C16   C18   1.410734 A    
C30   C31   1.525874 S    
C29   H1    1.110918 S    
C22   C24   1.401372 A    
C23   C25   1.412781 A    
C38   H22   1.118186 S    
C24   C26   1.410368 A    
C33   C34   1.527609 S    
N11   O17   1.300919 A    
C25   N17   1.439705 S    
C26   C28   1.426630 A    
C7    C9    1.422516 A    
C20   C22   1.416908 A    
C13   C15   1.392308 A    
N16   O29   1.293657 A    
O2    Zn2   1.955425 S    
C32   C33   1.533451 S    
C14   N2    1.412543 S    
O21   C29   1.416945 S    
O5    Zn1   2.015592 S    
N14   O25   1.301616 A    
C16   O22   1.388688 S    
C35   H15   1.108386 S    
N19   O38   1.300968 A    
N4    C28   1.376025 A    
C31   H6    1.110455 S    
N9    O14   1.300237 A    
N18   O35   1.301188 A    
C39   C40   1.527090 S    
C40   H26   1.111020 S    
N4    C20   1.389647 A    
