data_mof_unit_52407.cif
_audit_creation_date              2012-12-10T18:49:55-0500
_audit_creation_method            fapswitch 2.2
_symmetry_space_group_name_H-M    P1
_symmetry_Int_Tables_number       1
_space_group_crystal_system       triclinic
_cell_length_a                    10.747532
_cell_length_b                    9.904934
_cell_length_c                    10.690717
_cell_angle_alpha                 90.420121
_cell_angle_beta                  92.070643
_cell_angle_gamma                 89.200764
_cell_volume                      1137.18494292

loop_
_atom_site_label
_atom_site_type_symbol
_atom_type_description
_atom_site_fract_x
_atom_site_fract_y
_atom_site_fract_z
_atom_type_partial_charge
C1    C     C_R   0.259729 0.501138 0.502671 0.964198
C2    C     C_3   0.623966 0.555414 0.938079 0.693091
C3    C     C_R   0.065723 0.394845 0.564630 0.368433
C4    C     C_R   0.056581 0.613198 0.457052 0.412376
C5    C     C_R   0.937578 0.392394 0.559964 -0.132053
C6    C     C_R   0.929621 0.608136 0.453639 -0.189895
C7    C     C_R   0.871001 0.498243 0.503497 -0.165436
C8    C     C_R   0.126483 0.503637 0.508661 -0.235061
C9    C     C_R   0.566027 0.071474 0.589789 -0.100934
C10   C     C_R   0.565473 0.927986 0.590164 -0.089307
C11   C     C_R   0.436278 0.929332 0.408326 0.503228
C12   C     C_R   0.434368 0.071248 0.409715 0.501144
C13   C     C_R   0.493071 0.499377 0.257967 0.992251
C14   C     C_R   0.739390 0.499096 0.501338 0.950627
C15   C     C_R   0.499224 0.500405 0.742215 0.998637
C16   C     C_3   0.397893 0.608171 0.067007 0.213544
C17   C     C_3   0.455390 0.354608 0.067994 0.144149
C18   C     C_3   0.384503 0.589288 0.923984 0.118076
C19   C     C_3   0.474078 0.352942 0.926042 0.120868
C20   C     C_3   0.623632 0.531600 0.080817 -0.609235
C21   C     C_3   0.489756 0.497809 0.121583 -0.239779
C22   C     C_3   0.497671 0.500823 0.878948 -0.235501
H1    H     H_    0.438592 0.709022 0.087785 0.227252
H2    H     H_    0.516414 0.276029 0.113188 0.188022
H3    H     H_    0.297099 0.533729 0.899605 0.172525
H4    H     H_    0.386879 0.316795 0.878113 0.234600
H5    H     H_    0.659863 0.621892 0.132211 0.245223
H6    H     H_    0.687963 0.446786 0.107687 0.214166
H7    H     H_    0.889984 0.309876 0.603042 0.211424
H8    H     H_    0.876264 0.690807 0.411325 0.206293
H9    H     H_    0.619212 0.125123 0.661627 0.225756
H10   H     H_    0.618189 0.873896 0.662260 0.230659
N1    N     N_R   0.499970 0.857200 0.499970 -0.196040
N2    N     N_R   0.499970 0.142800 0.499970 -0.193227
O1    O     O_R   0.316750 0.614620 0.499990 -0.603417
O2    O     O_R   0.316750 0.385380 0.499990 -0.608858
O3    O     O_R   0.499970 0.614670 0.314790 -0.645317
O4    O     O_R   0.499970 0.385330 0.314790 -0.638420
O5    O     O_R   0.683220 0.614710 0.500010 -0.622895
O6    O     O_R   0.683220 0.385290 0.500010 -0.624530
O7    O     O_R   0.500010 0.614660 0.685200 -0.541167
O8    O     O_R   0.500010 0.385340 0.685200 -0.580425
Zn1   Zn    Zn3+2 0.499980 0.653120 0.500000 1.035246
Zn2   Zn    Zn3+2 0.499980 0.346880 0.500000 1.025694
O9    O     O_3   0.370626 0.867163 0.312440 -0.641697
H11   H     H_    0.353293 0.775575 0.339872 0.409328
O10   O     O_3   0.361689 0.133795 0.318913 -0.636388
H12   H     H_    0.344345 0.226099 0.347375 0.397020
Cl1   Cl    Cl    0.247354 0.613757 0.134630 -0.466711
Cl2   Cl    Cl    0.299052 0.304943 0.098106 -0.437082
O11   O     O_3   0.376325 0.716375 0.866068 -0.661432
H13   H     H_    0.292209 0.753988 0.881923 0.390262
O12   O     O_3   0.567983 0.259713 0.892356 -0.686443
H14   H     H_    0.638261 0.263528 0.954777 0.374274
Cl3   Cl    Cl    0.643936 0.732639 0.910138 -0.481627
Cl4   Cl    Cl    0.758947 0.476231 0.872990 -0.539693
Cl5   Cl    Cl    0.143515 0.264137 0.649236 -0.504660
Cl6   Cl    Cl    0.117294 0.761382 0.395283 -0.461136

loop_
_geom_bond_atom_site_label_1
_geom_bond_atom_site_label_2
_ccdc_geom_bond_type
C17   Cl2   S    
O3    Zn1   S    
C11   C12   A    
C2    C22   S    
C6    C7    A    
C20   H5    S    
C2    C20   S    
C16   H1    S    
C1    C8    S    
O1    Zn1   S    
C9    C10   A    
C15   O8    A    
C13   O3    A    
O10   H12   S    
C11   N1    A    
C4    C8    A    
C19   O12   S    
C18   C22   S    
C13   C21   S    
C2    Cl4   S    
O9    H11   S    
C16   Cl1   S    
O4    Zn2   S    
O7    Zn1   S    
C15   O7    A    
C13   O4    A    
C16   C21   S    
C18   H3    S    
O8    Zn2   S    
C12   O10   S    
C3    Cl5   S    
C16   C18   S    
C17   C19   S    
C18   O11   S    
C10   N1    A    
C5    H7    S    
C2    Cl3   S    
C7    C14   S    
C9    N2    A    
O2    Zn2   S    
C17   H2    S    
C11   O9    S    
C9    H9    S    
C12   N2    A    
O11   H13   S    
N1    Zn1   S    
C10   H10   S    
O6    Zn2   S    
C19   C22   S    
N2    Zn2   S    
C20   C21   S    
C1    O1    A    
C4    C6    A    
C3    C8    A    
C4    Cl6   S    
C5    C7    A    
C19   H4    S    
O5    Zn1   S    
C20   H6    S    
C6    H8    S    
C14   O5    A    
O12   H14   S    
C14   O6    A    
C15   C22   S    
C17   C21   S    
C1    O2    A    
C3    C5    A    
