data_mof_unit_52695.cif
_audit_creation_date              2012-12-10T17:02:01-0500
_audit_creation_method            fapswitch 2.2
_symmetry_space_group_name_H-M    P1
_symmetry_Int_Tables_number       1
_space_group_crystal_system       triclinic
_cell_length_a                    10.831197
_cell_length_b                    11.069076
_cell_length_c                    9.894457
_cell_angle_alpha                 111.472225
_cell_angle_beta                  98.335198
_cell_angle_gamma                 92.205169
_cell_volume                      1086.85513061

loop_
_atom_site_label
_atom_site_type_symbol
_atom_type_description
_atom_site_fract_x
_atom_site_fract_y
_atom_site_fract_z
_atom_type_partial_charge
C1    C     C_R   0.490968 0.253975 0.440254 0.897249
C2    C     C_R   0.086795 0.604239 0.630493 0.001829
C3    C     C_R   0.128547 0.517758 0.502133 -0.183993
C4    C     C_R   0.039815 0.444959 0.373132 0.393422
C5    C     C_R   0.913886 0.451537 0.378153 -0.223406
C6    C     C_R   0.871657 0.526204 0.505912 -0.128961
C7    C     C_2   0.487187 0.114207 0.406771 -0.313082
C8    C     C_2   0.499147 0.069538 0.516004 -0.132896
C9    C     C_2   0.512370 0.885831 0.593250 -0.291266
C10   C     C_2   0.496485 0.930257 0.483823 -0.122182
C11   C     C_2   0.497730 0.523068 0.084254 0.041099
C12   C     C_R   0.262419 0.504516 0.501151 0.838372
C13   C     C_2   0.479756 0.498416 0.920914 0.379229
C14   C     C_R   0.508846 0.746040 0.559754 0.816885
C15   C     C_R   0.737405 0.511302 0.502582 0.791289
C16   C     C_R   0.170667 0.689495 0.756154 -0.248694
C17   C     C_R   0.130577 0.758817 0.888786 0.382566
C18   C     C_R   0.000875 0.762491 0.890460 0.364646
C19   C     C_R   0.916659 0.693948 0.760136 -0.280923
C20   C     C_R   0.957062 0.607432 0.632697 0.041418
Cu1   Cu    Cu3+1 0.521920 0.521810 0.644910 1.035429
Cu2   Cu    Cu3+1 0.478080 0.478190 0.355090 1.111767
H1    H     H_    0.475300 0.047481 0.292403 0.213653
H2    H     H_    0.546941 0.615501 0.160390 0.099599
H3    H     H_    0.632593 0.611855 0.932762 0.217931
H4    H     H_    0.268704 0.705175 0.754206 0.216821
H5    H     H_    0.819328 0.710191 0.760385 0.221626
H6    H     H_    0.846602 0.392825 0.281761 0.223124
H7    H     H_    0.481589 0.863601 0.369093 0.213193
H8    H     H_    0.511337 0.136059 0.630621 0.215444
H9    H     H_    0.527688 0.952784 0.707798 0.192507
N1    N     N_2   0.445130 0.445430 0.137370 -0.005200
N2    N     N_2   0.554930 0.554500 0.862630 -0.306930
O1    O     O_R   0.511700 0.332330 0.577400 -0.564597
O2    O     O_R   0.474680 0.295500 0.332650 -0.510232
O3    O     O_R   0.338160 0.518420 0.622400 -0.561142
O4    O     O_R   0.301140 0.481590 0.377650 -0.496450
O5    O     O_R   0.525320 0.704500 0.667350 -0.560242
O6    O     O_R   0.488300 0.667670 0.422600 -0.597594
O7    O     O_R   0.698860 0.518410 0.622350 -0.578501
O8    O     O_R   0.661840 0.481580 0.377600 -0.594043
S1    S     S_3+6 0.077261 0.339825 0.201835 0.082617
O9    O     O_2   0.134799 0.420840 0.129462 -0.217113
O10   O     O_2   0.168378 0.248615 0.228066 -0.218785
O11   O     O_3   0.947901 0.251252 0.087072 -0.504563
H10   H     H_    0.975661 0.207164 0.991324 0.399643
Br1   Br    Br    0.328035 0.389706 0.805316 -0.344369
Br2   Br    Br    0.441065 0.263716 0.027311 -0.265355
S2    S     S_3+6 0.246795 0.832324 0.049023 0.049504
O12   O     O_2   0.236674 0.761091 0.151067 -0.263403
O13   O     O_2   0.376091 0.823637 0.009902 -0.312612
O14   O     O_3   0.227224 0.990311 0.135119 -0.428806
H11   H     H_    0.228526 0.002841 0.239725 0.387996
S3    S     S_3+6 0.938704 0.852876 0.049894 0.051735
O15   O     O_2   0.989200 0.812988 0.175326 -0.236322
O16   O     O_2   0.974931 0.995757 0.092044 -0.201078
O17   O     O_3   0.781315 0.826688 0.017225 -0.567001
H12   H     H_    0.755140 0.879296 0.111507 0.379146

loop_
_geom_bond_atom_site_label_1
_geom_bond_atom_site_label_2
_ccdc_geom_bond_type
C11   N1    D    
C9    C14   S    
S1    O10   D    
C13   N2    D    
Cu1   O1    S    
Cu1   N2    S    
C14   O5    A    
C5    H6    S    
C2    C16   A    
C9    C10   D    
C19   C20   A    
S2    O14   S    
C8    H8    S    
C4    S1    S    
C17   C18   A    
C6    C15   S    
C7    C8    D    
Cu1   O3    S    
O11   H10   S    
Cu2   O2    S    
C11   C13   S    
C10   H7    S    
C15   O8    A    
O17   H12   S    
N1    Br2   S    
Cu1   O7    S    
Cu2   N1    S    
C6    C20   A    
C7    H1    S    
Cu2   O6    S    
Cu1   Cu2   S    
C1    O1    A    
C2    C3    A    
C16   H4    S    
C5    C6    A    
S3    O16   D    
C15   O7    A    
Cu2   O8    S    
C12   O3    A    
S1    O9    D    
C18   S3    S    
C2    C20   A    
C3    C4    A    
C11   H2    S    
C19   H5    S    
O14   H11   S    
C1    O2    A    
C8    C10   S    
C18   C19   A    
C17   S2    S    
C12   O4    A    
S2    O12   D    
C9    H9    S    
S3    O15   D    
C16   C17   A    
C3    C12   S    
C14   O6    A    
C1    C7    S    
Cu2   O4    S    
C13   Br1   S    
S1    O11   S    
Cu1   O5    S    
H3    N2    S    
C4    C5    A    
S2    O13   D    
S3    O17   S    
