data_mof_unit_32411.cif
_audit_creation_date              2012-12-10T18:11:38-0500
_audit_creation_method            fapswitch 2.2
_symmetry_space_group_name_H-M    P1
_symmetry_Int_Tables_number       1
_space_group_crystal_system       triclinic
_cell_length_a                    10.539641
_cell_length_b                    12.689689
_cell_length_c                    13.110138
_cell_angle_alpha                 82.681802
_cell_angle_beta                  90.463111
_cell_angle_gamma                 101.877033
_cell_volume                      1701.6000393

loop_
_atom_site_label
_atom_site_type_symbol
_atom_type_description
_atom_site_fract_x
_atom_site_fract_y
_atom_site_fract_z
_atom_type_partial_charge
C1    C     C_R   0.481065 0.439090 0.691129 0.829862
C2    C     C_3   0.062803 0.594647 0.524088 0.574879
C3    C     C_3   0.958829 0.510390 0.589312 -0.484868
C4    C     C_3   0.877376 0.500252 0.491983 -0.331968
C5    C     C_R   0.490362 0.719195 0.041719 -0.196814
C6    C     C_R   0.495767 0.593890 0.197416 -0.237565
C7    C     C_R   0.500289 0.301534 0.836715 -0.172660
C8    C     C_R   0.522051 0.276303 0.940231 -0.173922
C9    C     C_R   0.513543 0.350071 0.009681 0.227781
C10   C     C_R   0.459134 0.443683 0.975113 0.069122
C11   C     C_R   0.425813 0.462797 0.870694 -0.030594
C12   C     C_R   0.742085 0.501127 0.496005 0.953232
C13   C     C_R   0.449868 0.526455 0.035297 -0.057116
C14   C     C_R   0.441634 0.630358 0.988450 -0.044724
C15   C     C_R   0.376654 0.638352 0.894498 0.153988
C16   C     C_R   0.357667 0.547159 0.839339 0.136346
C17   C     C_R   0.440675 0.509721 0.140655 0.543961
C18   C     C_R   0.531193 0.701528 0.144166 0.101015
C19   C     C_R   0.462502 0.398601 0.800695 -0.108084
C20   C     C_R   0.289108 0.085270 0.370217 0.640827
C21   C     C_R   0.660691 0.806881 0.626125 0.058954
C22   C     C_R   0.680288 0.909729 0.658160 0.490559
C23   C     C_R   0.510273 0.560622 0.308093 0.915832
C24   C     C_R   0.609326 0.983753 0.617605 0.546659
C25   C     C_R   0.523627 0.960453 0.536846 -0.262574
C26   C     C_R   0.498349 0.852992 0.508894 -0.120309
C27   C     C_R   0.460378 0.039830 0.484469 -0.087647
C28   C     C_R   0.356306 0.008222 0.418275 -0.256082
C29   C     C_R   0.325212 0.901652 0.397647 0.608788
C30   C     C_R   0.400376 0.828477 0.435503 0.601832
C31   C     C_R   0.499711 0.151149 0.492153 0.031982
C32   C     C_R   0.329040 0.192622 0.385749 -0.105503
C33   C     C_R   0.258499 0.500099 0.500033 0.957554
C34   C     C_3   0.939442 0.407191 0.463227 0.077279
C35   C     C_3   0.021380 0.418350 0.560134 0.626896
C36   C     C_3   0.124384 0.502543 0.496523 -0.352593
C37   C     C_3   0.043410 0.493327 0.399082 -0.088586
C38   C     C_3   0.980388 0.585269 0.427863 0.637668
H1    H     H_    0.523505 0.248928 0.783810 0.215237
H2    H     H_    0.559098 0.203553 0.963847 0.161409
H3    H     H_    0.277115 0.253001 0.351420 0.193671
H4    H     H_    0.583561 0.184920 0.533132 0.201121
H5    H     H_    0.918253 0.518011 0.665153 0.181716
H6    H     H_    0.503845 0.801044 0.002115 0.182617
N1    N     N_R   0.432930 0.222190 0.444670 -0.161846
N2    N     N_R   0.566370 0.776980 0.554790 -0.125801
O1    O     O_R   0.467970 0.366730 0.627150 -0.588275
O2    O     O_R   0.510820 0.544830 0.662520 -0.647834
O3    O     O_R   0.664630 0.410960 0.482340 -0.643227
O4    O     O_R   0.707470 0.589060 0.517710 -0.613138
O5    O     O_R   0.489180 0.455170 0.337480 -0.578721
O6    O     O_R   0.532030 0.633270 0.372850 -0.546650
O7    O     O_R   0.292530 0.410940 0.482290 -0.609457
O8    O     O_R   0.335370 0.589040 0.517660 -0.523520
Zn1   Zn    Zn3+2 0.471390 0.381080 0.476380 0.979696
Zn2   Zn    Zn3+2 0.528610 0.618920 0.523620 1.001185
F1    F     F_    0.047406 0.333333 0.628438 -0.644536
F2    F     F_    0.360911 0.417401 0.185275 -0.698288
C39   C     C_3   0.579831 0.330349 0.112100 -0.376181
C40   C     C_3   0.702808 0.416120 0.121429 -0.894059
H7    H     H_    0.781210 0.402344 0.071802 0.270930
H8    H     H_    0.688288 0.499794 0.098597 0.254886
H9    H     H_    0.733308 0.409620 0.202726 0.252478
H10   H     H_    0.514489 0.321922 0.178912 0.272381
H11   H     H_    0.609878 0.250671 0.120513 0.190922
C41   C     C_3   0.240025 0.522260 0.772064 -0.370839
C42   C     C_3   0.120535 0.470197 0.840062 -0.793197
H12   H     H_    0.138088 0.396751 0.889270 0.280900
H13   H     H_    0.096633 0.527710 0.890305 0.233774
H14   H     H_    0.035832 0.444579 0.792088 0.279106
H15   H     H_    0.223739 0.595885 0.723048 0.245936
H16   H     H_    0.251179 0.463623 0.718972 0.222801
F3    F     F_    0.228489 0.869237 0.332107 -0.538530
F4    F     F_    0.186369 0.057935 0.308775 -0.594785
C43   C     C_3   0.744717 0.733157 0.678350 -0.357547
C44   C     C_3   0.884272 0.766687 0.636938 -0.673966
H17   H     H_    0.887731 0.758603 0.553743 0.299481
H18   H     H_    0.927068 0.851964 0.647727 0.288314
H19   H     H_    0.944217 0.713918 0.679382 0.246500
H20   H     H_    0.744884 0.737766 0.762515 0.218361
H21   H     H_    0.710005 0.647322 0.673658 0.249519
C45   C     C_3   0.867341 0.297625 0.434413 -0.345386
C46   C     C_3   0.959288 0.224411 0.412207 -0.732005
H22   H     H_    0.019067 0.259125 0.342165 0.254313
H23   H     H_    0.023952 0.212843 0.478109 0.300098
H24   H     H_    0.901791 0.143689 0.399191 0.252175
H25   H     H_    0.802819 0.255583 0.499953 0.240185
H26   H     H_    0.806908 0.311058 0.366186 0.197799
F5    F     F_    0.616867 0.072735 0.666536 -0.654654
F6    F     F_    0.763884 0.936608 0.734759 -0.623776
F7    F     F_    0.377939 0.738382 0.390370 -0.618889
C47   C     C_3   0.109081 0.493873 0.295061 -0.275854
C48   C     C_3   0.012932 0.482215 0.208213 -0.812912
H27   H     H_    0.951369 0.399468 0.218316 0.250559
H28   H     H_    0.951548 0.543807 0.206197 0.289905
H29   H     H_    0.066435 0.494043 0.133618 0.260078
H30   H     H_    0.180614 0.571661 0.277159 0.250264
H31   H     H_    0.162707 0.426894 0.300151 0.242686
F8    F     F_    0.954757 0.671636 0.361188 -0.613572
F9    F     F_    0.130485 0.691038 0.553609 -0.650014
C49   C     C_3   0.612467 0.797519 0.188575 -0.322276
C50   C     C_3   0.538817 0.888925 0.192813 -0.783402
H32   H     H_    0.539956 0.937334 0.115927 0.242979
H33   H     H_    0.436470 0.855530 0.217017 0.310692
H34   H     H_    0.585524 0.944035 0.247886 0.229304
H35   H     H_    0.650354 0.775435 0.265244 0.245655
H36   H     H_    0.700071 0.829581 0.138531 0.215819
C51   C     C_3   0.310864 0.733548 0.863773 -0.421472
C52   C     C_3   0.382771 0.809920 0.774726 -0.796581
H37   H     H_    0.482242 0.844226 0.798709 0.263462
H38   H     H_    0.387004 0.765775 0.707532 0.265498
H39   H     H_    0.331850 0.877523 0.752349 0.275490
H40   H     H_    0.208552 0.705557 0.842844 0.224076
H41   H     H_    0.305037 0.780443 0.928879 0.223806

loop_
_geom_bond_atom_site_label_1
_geom_bond_atom_site_label_2
_ccdc_geom_bond_type
C49   H36   S    
C49   C50   S    
C31   H4    S    
C34   C37   S    
C32   N1    A    
C35   C36   S    
C44   H19   S    
C24   F5    S    
C12   O3    A    
C47   H31   S    
C7    C8    A    
C11   C19   A    
C39   H10   S    
C48   H27   S    
C40   H9    S    
C36   C37   S    
C44   H18   S    
C52   H38   S    
C20   C32   A    
C29   F3    S    
C45   H25   S    
C49   H35   S    
C33   C36   S    
C51   C52   S    
C50   H34   S    
C40   H8    S    
C34   C35   S    
C51   H41   S    
C41   H16   S    
C46   H22   S    
C8    C9    A    
C32   H3    S    
C30   F7    S    
C4    C12   S    
C29   C30   A    
C9    C10   A    
C17   F2    S    
C41   C42   S    
C2    F9    S    
C39   C40   S    
C48   H28   S    
C21   C22   A    
C47   H30   S    
O8    Zn2   S    
O7    Zn1   S    
C33   O7    A    
C6    C18   A    
C4    C34   S    
C1    C19   S    
C15   C16   A    
C27   C31   A    
C42   H12   S    
C24   C25   A    
C52   H39   S    
C1    O1    A    
C5    C18   A    
C20   C28   A    
C25   C26   A    
O3    Zn1   S    
O4    Zn2   S    
C40   H7    S    
C42   H13   S    
C18   C49   S    
C51   H40   S    
C43   C44   S    
C37   C38   S    
C11   C16   A    
C2    C38   S    
C23   O5    A    
C41   H15   S    
C3    C35   S    
C3    H5    S    
C22   F6    S    
C20   F4    S    
C44   H17   S    
C50   H33   S    
C5    C14   A    
C46   H23   S    
C5    H6    S    
C4    C38   S    
C26   C30   A    
C48   H29   S    
C7    C19   A    
C22   C24   A    
C16   C41   S    
C3    C4    S    
O1    Zn1   S    
C21   N2    A    
C43   H20   S    
C2    C36   S    
C33   O8    A    
O2    Zn2   S    
C6    C17   A    
C28   C29   A    
C37   C47   S    
C43   H21   S    
C15   C51   S    
C38   F8    S    
C10   C13   A    
C12   O4    A    
C1    O2    A    
C25   C27   A    
C34   C45   S    
C21   C43   S    
C13   C17   A    
C35   F1    S    
C42   H14   S    
C2    C3    S    
C52   H37   S    
C39   H11   S    
C23   O6    A    
C45   H26   S    
C6    C23   S    
C47   C48   S    
O5    Zn1   S    
C50   H32   S    
C10   C11   A    
C26   N2    A    
C46   H24   S    
N1    Zn1   S    
C45   C46   S    
C31   N1    A    
N2    Zn2   S    
C27   C28   A    
C7    H1    S    
C14   C15   A    
C8    H2    S    
C9    C39   S    
C13   C14   A    
O6    Zn2   S    
