data_mof_unit_33590.cif
_audit_creation_date              2012-12-11T16:07:19-0500
_audit_creation_method            fapswitch 2.2
_symmetry_space_group_name_H-M    P1
_symmetry_Int_Tables_number       1
_space_group_crystal_system       triclinic
_cell_length_a                    17.17109
_cell_length_b                    17.115852
_cell_length_c                    17.338232
_cell_angle_alpha                 90.114806
_cell_angle_beta                  90.034731
_cell_angle_gamma                 89.977374
_cell_volume                      5095.65728901

loop_
_atom_site_label
_atom_site_type_symbol
_atom_type_description
_atom_site_fract_x
_atom_site_fract_y
_atom_site_fract_z
_atom_type_partial_charge
C1    C     C_R   0.398654 0.694346 0.617064 -0.109012
C2    C     C_R   0.581402 0.674906 0.642198 -0.018216
C3    C     C_3   0.792283 0.231072 0.646671 0.503286
C4    C     C_3   0.731353 0.740611 0.298064 0.474928
C5    C     C_3   0.312366 0.226305 0.747011 0.521411
C6    C     C_3   0.823032 0.260840 0.343553 0.551027
C7    C     C_3   0.211041 0.774755 0.645423 0.513838
C8    C     C_3   0.777778 0.675648 0.826166 0.506250
C9    C     C_3   0.271314 0.284021 0.149223 0.521171
C10   C     C_3   0.754923 0.222570 0.792826 0.486240
C11   C     C_3   0.272645 0.810457 0.246016 0.526211
C12   C     C_3   0.236380 0.323049 0.839930 0.513350
C13   C     C_R   0.699645 0.391017 0.401935 -0.042484
C14   C     C_3   0.726693 0.716543 0.148716 0.514736
C15   C     C_3   0.241366 0.773012 0.793666 0.483414
C16   C     C_3   0.727818 0.188971 0.246528 0.527877
C17   C     C_2   0.821243 0.675865 0.672911 1.074507
C18   C     C_2   0.224329 0.427041 0.188790 1.046298
C19   C     C_2   0.619609 0.169214 0.743382 1.079460
C20   C     C_2   0.322110 0.881313 0.377194 1.093483
C21   C     C_2   0.165034 0.361812 0.702739 1.066036
C22   C     C_2   0.772004 0.572501 0.185237 1.064758
C23   C     C_2   0.381709 0.821677 0.753549 1.083229
C24   C     C_R   0.305830 0.602700 0.616227 -0.049723
C25   C     C_2   0.679511 0.118986 0.378273 1.092718
C26   C     C_2   0.682974 0.332128 0.209713 1.051008
C27   C     C_2   0.206578 0.623289 0.786595 1.123142
C28   C     C_2   0.576615 0.753878 0.163395 1.123902
C29   C     C_2   0.383136 0.374341 0.868877 1.105392
C30   C     C_2   0.316550 0.666928 0.209715 1.053543
C31   C     C_2   0.783309 0.374086 0.795715 1.105148
C32   C     C_2   0.422316 0.248838 0.160686 1.131315
C33   C     C_2   0.654112 0.588342 0.868229 1.147822
C34   C     C_2   0.317732 0.115600 0.259676 1.130469
C35   C     C_R   0.575769 0.667869 0.353286 0.010712
C36   C     C_2   0.621213 0.774933 0.917068 1.161321
C37   C     C_2   0.130420 0.663763 0.216083 1.063948
C38   C     C_2   0.927779 0.283901 0.699403 1.065850
C39   C     C_2   0.685132 0.884654 0.261922 1.129839
C40   C     C_2   0.379708 0.182414 0.881407 1.093254
C41   C     C_2   0.868950 0.336366 0.215458 1.066614
C42   C     C_2   0.070614 0.725495 0.689163 1.088063
C43   C     C_2   0.235573 0.927977 0.657893 1.139259
C44   C     C_2   0.871045 0.112741 0.370601 1.109269
C45   C     C_2   0.171981 0.175871 0.708629 1.044941
C46   C     C_R   0.416882 0.324564 0.641617 -0.002580
C47   C     C_2   0.879564 0.701503 0.287338 1.114201
C48   C     C_2   0.772240 0.078615 0.644855 1.201010
C49   C     C_2   0.130733 0.889465 0.369638 1.104148
C50   C     C_2   0.791919 0.851483 0.723192 1.063836
C51   C     C_2   0.121021 0.295520 0.290590 1.116581
C52   C     C_R   0.300386 0.609147 0.401900 -0.045511
C53   C     C_R   0.693819 0.397735 0.617092 -0.035364
C54   C     C_R   0.918185 0.175213 0.141832 -0.047202
C55   C     C_R   0.074894 0.832033 0.853323 -0.016652
C56   C     C_R   0.192301 0.099775 0.120550 -0.126097
C57   C     C_R   0.607487 0.299945 0.400951 -0.110174
C58   C     C_R   0.800304 0.890932 0.902004 -0.181535
C59   C     C_R   0.082070 0.824721 0.141593 -0.046043
C60   C     C_R   0.925065 0.168032 0.853566 -0.015579
C61   C     C_R   0.807472 0.899881 0.119998 -0.129558
C62   C     C_R   0.199715 0.107556 0.900841 -0.113232
C63   C     C_R   0.892179 0.799707 0.901614 -0.041054
C64   C     C_R   0.100610 0.192795 0.119851 -0.032704
C65   C     C_R   0.166466 0.925081 0.852512 -0.026335
C66   C     C_R   0.825184 0.083073 0.142072 -0.004834
C67   C     C_R   0.108577 0.199736 0.901098 -0.050176
C68   C     C_R   0.672787 0.581082 0.643690 -0.062916
C69   C     C_R   0.899240 0.806979 0.119180 -0.034917
C70   C     C_R   0.833667 0.074783 0.852277 -0.032000
C71   C     C_R   0.175244 0.916719 0.141816 -0.007870
C72   C     C_3   0.319832 0.321129 0.257031 -0.061382
C73   C     C_3   0.681381 0.682682 0.746245 -0.065107
C74   C     C_3   0.266369 0.736811 0.345699 -0.080807
C75   C     C_3   0.724273 0.273804 0.685593 -0.092841
C76   C     C_3   0.679949 0.679126 0.257002 -0.062990
C77   C     C_3   0.313235 0.315762 0.741751 -0.043879
C78   C     C_3   0.733976 0.263523 0.345787 -0.083293
C79   C     C_R   0.331942 0.424726 0.353521 -0.031184
C80   C     C_3   0.275141 0.726751 0.685003 -0.098717
C81   C     C_3   0.763532 0.761274 0.849127 -0.042704
C82   C     C_3   0.222504 0.222234 0.190985 -0.082099
C83   C     C_3   0.823608 0.178838 0.754510 -0.072950
C84   C     C_3   0.183320 0.813859 0.243060 -0.080898
C85   C     C_3   0.235652 0.233653 0.844233 -0.051645
C86   C     C_3   0.777331 0.777249 0.190196 -0.078839
C87   C     C_3   0.176660 0.821632 0.754776 -0.087383
C88   C     C_3   0.817181 0.186169 0.243348 -0.080842
C89   C     C_R   0.326498 0.674711 0.644341 0.186612
C90   C     C_R   0.600823 0.306053 0.617572 -0.108743
C91   C     C_R   0.685109 0.313223 0.390927 0.185757
C92   C     C_R   0.641615 0.643186 0.683944 0.142493
C93   C     C_R   0.366337 0.367102 0.309480 0.132041
C94   C     C_R   0.672944 0.325799 0.645090 0.185842
C95   C     C_R   0.315063 0.686947 0.390864 0.186912
C96   C     C_R   0.355067 0.355918 0.681800 0.136081
C97   C     C_R   0.633871 0.633300 0.309776 0.131165
C98   C     C_R   0.856583 0.145035 0.182280 0.152269
C99   C     C_R   0.131614 0.867034 0.808976 0.115779
C100  C     C_R   0.170942 0.170764 0.150383 0.151452
C101  C     C_R   0.392678 0.700059 0.400995 -0.107206
C102  C     C_R   0.814399 0.812813 0.891437 0.156222
C103  C     C_R   0.143971 0.854763 0.181884 0.154109
C104  C     C_R   0.868292 0.133196 0.809008 0.114685
C105  C     C_R   0.828731 0.828736 0.149444 0.145992
C106  C     C_R   0.186169 0.185214 0.889954 0.193809
C107  C     C_3   0.770132 0.697709 0.740674 -0.395272
C108  C     C_3   0.247509 0.345468 0.209971 -0.286527
C109  C     C_3   0.700703 0.197734 0.726997 -0.280266
C110  C     C_3   0.271118 0.825852 0.333176 -0.287042
C111  C     C_3   0.223577 0.318369 0.751956 -0.397964
C112  C     C_R   0.325465 0.418500 0.642042 -0.030677
C113  C     C_3   0.750828 0.654195 0.208198 -0.269392
C114  C     C_3   0.299796 0.799193 0.732257 -0.281812
C115  C     C_3   0.729862 0.174383 0.333769 -0.290341
C116  C     C_3   0.731599 0.277403 0.257773 -0.297832
C117  C     C_3   0.216903 0.700928 0.747562 -0.265857
C118  C     C_3   0.655733 0.741352 0.197487 -0.243213
C119  C     C_3   0.325821 0.321266 0.829704 -0.260731
C120  C     C_3   0.268293 0.722164 0.257726 -0.303870
C121  C     C_3   0.778246 0.298231 0.752362 -0.260382
C122  C     C_3   0.343654 0.259813 0.196250 -0.236122
C123  C     C_R   0.668257 0.575533 0.353600 -0.033618
C124  C     C_3   0.689367 0.659476 0.831872 -0.269879
C125  C     C_3   0.294306 0.197578 0.238347 -0.417834
C126  C     C_3   0.675247 0.746141 0.855291 -0.310792
C127  C     C_3   0.178865 0.724628 0.256265 -0.297424
C128  C     C_3   0.846662 0.255180 0.713202 -0.287007
C129  C     C_3   0.706901 0.802490 0.239301 -0.413268
C130  C     C_3   0.324750 0.230939 0.834463 -0.302828
C131  C     C_3   0.821030 0.275562 0.256061 -0.301192
C132  C     C_3   0.152423 0.749162 0.707729 -0.302545
C133  C     C_3   0.235019 0.847712 0.692415 -0.254607
C134  C     C_R   0.424492 0.332500 0.352924 0.011310
C135  C     C_3   0.820051 0.171467 0.331080 -0.278367
C136  C     C_3   0.223957 0.228456 0.755961 -0.277796
C137  C     C_3   0.801809 0.715459 0.250053 -0.275631
C138  C     C_3   0.769367 0.154436 0.687805 -0.299579
C139  C     C_3   0.180934 0.829464 0.330722 -0.277682
C140  C     C_3   0.754855 0.783138 0.763114 -0.240764
C141  C     C_3   0.198375 0.283093 0.252026 -0.270848
C142  C     C_3   0.270162 0.258567 0.298336 0.474604
C143  C     C_3   0.667521 0.768038 0.769713 0.524835
C144  C     C_3   0.177312 0.740210 0.343707 0.550231
H1    H     H_    0.424976 0.751660 0.616726 0.120656
H2    H     H_    0.546936 0.725509 0.655751 0.171706
H3    H     H_    0.755804 0.419621 0.401573 0.147465
H4    H     H_    0.248333 0.576951 0.616086 0.132361
H5    H     H_    0.541897 0.718932 0.338577 0.118661
H6    H     H_    0.450715 0.273598 0.656010 0.163195
H7    H     H_    0.244149 0.580696 0.401475 0.147037
H8    H     H_    0.751229 0.423679 0.617758 0.127867
H9    H     H_    0.953296 0.225060 0.156348 0.123119
H10   H     H_    0.040450 0.781290 0.838880 0.120164
H11   H     H_    0.249582 0.073681 0.121141 0.134487
H12   H     H_    0.577874 0.244238 0.400238 0.100010
H13   H     H_    0.744498 0.920041 0.901087 0.164278
H14   H     H_    0.046835 0.775017 0.156057 0.124920
H15   H     H_    0.959750 0.218617 0.839558 0.110085
H16   H     H_    0.750180 0.925977 0.120663 0.133289
H17   H     H_    0.255333 0.077956 0.900227 0.103889
H18   H     H_    0.921633 0.743916 0.902208 0.160992
H19   H     H_    0.075356 0.250662 0.120316 0.120904
H20   H     H_    0.216697 0.959610 0.836894 0.104589
H21   H     H_    0.774431 0.049318 0.156850 0.164103
H22   H     H_    0.079951 0.256031 0.900401 0.135900
H23   H     H_    0.722991 0.546684 0.659259 0.123375
H24   H     H_    0.924645 0.749179 0.119354 0.121894
H25   H     H_    0.783697 0.039891 0.836335 0.110174
H26   H     H_    0.226202 0.950292 0.156508 0.163914
H27   H     H_    0.230060 0.206068 0.387866 0.330620
H28   H     H_    0.616135 0.867707 0.768555 0.349590
H29   H     H_    0.075895 0.720822 0.385619 0.336552
H30   H     H_    0.859213 0.211093 0.560423 0.378918
H31   H     H_    0.773910 0.791795 0.387472 0.328246
H32   H     H_    0.336378 0.121869 0.714073 0.356818
H33   H     H_    0.924413 0.281188 0.385298 0.336697
H34   H     H_    0.281237 0.459187 0.339263 0.124374
H35   H     H_    0.147434 0.798454 0.557766 0.381016
H36   H     H_    0.819860 0.574299 0.848611 0.319196
H37   H     H_    0.299556 0.342447 0.059627 0.373733
H38   H     H_    0.692248 0.254810 0.879104 0.347548
H39   H     H_    0.376371 0.830712 0.209866 0.342361
H40   H     H_    0.219715 0.423496 0.886336 0.320370
H41   H     H_    0.686503 0.666290 0.058604 0.372795
H42   H     H_    0.297923 0.733696 0.881124 0.350512
H43   H     H_    0.624038 0.168339 0.210498 0.342850
H44   H     H_    0.884448 0.595096 0.730875 0.336499
H45   H     H_    0.574191 0.248921 0.617053 0.120259
H46   H     H_    0.252800 0.526132 0.133481 0.358250
H47   H     H_    0.541386 0.081688 0.736402 0.363924
H48   H     H_    0.408396 0.961048 0.374256 0.350224
H49   H     H_    0.116864 0.422716 0.791070 0.323074
H50   H     H_    0.740761 0.474955 0.128211 0.357410
H51   H     H_    0.465230 0.904370 0.755347 0.350179
H52   H     H_    0.593763 0.038642 0.376122 0.351041
H53   H     H_    0.604505 0.419762 0.205533 0.358108
H54   H     H_    0.145959 0.560013 0.863963 0.331994
H55   H     H_    0.465675 0.717825 0.154432 0.344946
H56   H     H_    0.422424 0.755688 0.400389 0.098943
H57   H     H_    0.431679 0.410018 0.968745 0.343310
H58   H     H_    0.395116 0.579371 0.205579 0.360527
H59   H     H_    0.833810 0.433941 0.882633 0.334215
H60   H     H_    0.532754 0.286158 0.151089 0.342241
H61   H     H_    0.647182 0.519213 0.961927 0.347500
H62   H     H_    0.211778 0.089169 0.302662 0.290547
H63   H     H_    0.573822 0.867594 0.971575 0.369410
H64   H     H_    0.104719 0.608356 0.116576 0.343894
H65   H     H_    0.033524 0.261196 0.654733 0.353714
H66   H     H_    0.792295 0.909209 0.303227 0.291005
H67   H     H_    0.276321 0.454420 0.657046 0.128368
H68   H     H_    0.461621 0.098073 0.883153 0.343207
H69   H     H_    0.893640 0.391309 0.115693 0.345246
H70   H     H_    0.967922 0.756104 0.641785 0.366940
H71   H     H_    0.174019 0.012305 0.604470 0.348431
H72   H     H_    0.905160 0.064140 0.470731 0.341104
H73   H     H_    0.087291 0.094269 0.705699 0.353541
H74   H     H_    0.942526 0.636112 0.361173 0.360440
H75   H     H_    0.839379 0.997248 0.593399 0.342614
H76   H     H_    0.099518 0.942116 0.468936 0.345802
H77   H     H_    0.891301 0.908083 0.696448 0.347760
H78   H     H_    0.718950 0.541077 0.339174 0.124453
H79   H     H_    0.058455 0.358869 0.366640 0.358116
H80   H     H_    0.458426 0.281515 0.337907 0.117962
N1    N     N_R   0.424590 0.632770 0.578330 -0.064391
N2    N     N_R   0.575410 0.632770 0.578330 -0.065272
N3    N     N_R   0.632770 0.424590 0.421670 -0.059601
N4    N     N_R   0.367230 0.575410 0.578330 -0.067597
N5    N     N_R   0.575410 0.632770 0.421670 -0.057570
N6    N     N_R   0.424590 0.367230 0.578330 -0.066166
N7    N     N_R   0.367230 0.575410 0.421670 -0.059136
N8    N     N_R   0.632770 0.424590 0.578330 -0.066970
N9    N     N_R   0.924590 0.132770 0.078330 -0.058883
N10   N     N_R   0.075410 0.867230 0.921670 -0.054704
N11   N     N_R   0.132770 0.075410 0.078330 -0.060209
N12   N     N_R   0.575410 0.367230 0.421670 -0.049776
N13   N     N_R   0.867230 0.924590 0.921670 -0.053653
N14   N     N_R   0.075410 0.867230 0.078330 -0.058727
N15   N     N_R   0.924590 0.132770 0.921670 -0.053697
N16   N     N_R   0.867230 0.924590 0.078330 -0.056064
N17   N     N_R   0.132770 0.075410 0.921670 -0.048372
N18   N     N_R   0.924590 0.867230 0.921670 -0.067521
N19   N     N_R   0.075410 0.132770 0.078330 -0.067505
N20   N     N_R   0.132770 0.924590 0.921670 -0.046645
N21   N     N_R   0.867230 0.075410 0.078330 -0.063695
N22   N     N_R   0.075410 0.132770 0.921670 -0.059529
N23   N     N_R   0.632770 0.575410 0.578330 -0.052366
N24   N     N_R   0.924590 0.867230 0.078330 -0.065911
N25   N     N_R   0.867230 0.075410 0.921670 -0.044846
N26   N     N_R   0.132770 0.924590 0.078330 -0.064538
N27   N     N_R   0.367230 0.424590 0.421670 -0.052008
N28   N     N_R   0.575410 0.367230 0.578330 -0.064450
N29   N     N_R   0.424590 0.632770 0.421670 -0.049653
N30   N     N_R   0.367230 0.424590 0.578330 -0.057248
N31   N     N_R   0.632770 0.575410 0.421670 -0.051684
N32   N     N_R   0.424590 0.367230 0.421670 -0.056779
Ni1   Ni    Ni4+2 0.500000 0.631570 0.500000 0.257959
Ni2   Ni    Ni4+2 0.500000 0.368430 0.500000 0.260920
Ni3   Ni    Ni4+2 0.631570 0.500000 0.500000 0.271748
Ni4   Ni    Ni4+2 0.368430 0.500000 0.500000 0.273560
Ni5   Ni    Ni4+2 0.000000 0.131570 0.000000 0.260607
Ni6   Ni    Ni4+2 0.000000 0.868430 0.000000 0.258719
Ni7   Ni    Ni4+2 0.131570 0.000000 0.000000 0.265369
Ni8   Ni    Ni4+2 0.868430 0.000000 0.000000 0.266347
O1    O     O_3   0.270662 0.245970 0.378189 -0.708402
O2    O     O_3   0.269095 0.294420 0.069292 -0.685551
O3    O     O_3   0.735851 0.217683 0.871276 -0.706314
O4    O     O_3   0.323257 0.846524 0.193794 -0.691678
O5    O     O_3   0.197555 0.370509 0.893236 -0.738086
O6    O     O_3   0.726919 0.706243 0.068728 -0.721882
O7    O     O_3   0.256299 0.772992 0.873160 -0.706110
O8    O     O_3   0.677124 0.152122 0.194710 -0.691363
O9    O     O_2   0.809581 0.707122 0.610756 -0.566290
O10   O     O_R   0.880380 0.620112 0.678414 -0.719887
O11   O     O_2   0.160256 0.452093 0.206918 -0.584177
O12   O     O_3   0.610027 0.817680 0.740322 -0.722692
O13   O     O_R   0.276083 0.473604 0.147233 -0.793144
O14   O     O_2   0.573365 0.212449 0.775892 -0.628248
O15   O     O_R   0.597440 0.093639 0.722444 -0.734885
O16   O     O_2   0.315093 0.886821 0.447131 -0.576161
O17   O     O_R   0.377589 0.925969 0.338279 -0.730223
O18   O     O_2   0.162873 0.348561 0.633583 -0.553022
O19   O     O_R   0.113143 0.416559 0.733353 -0.704354
O20   O     O_2   0.835663 0.545743 0.202356 -0.590194
O21   O     O_R   0.718874 0.527832 0.143093 -0.785034
O22   O     O_2   0.423706 0.774039 0.785595 -0.621640
O23   O     O_3   0.129465 0.702934 0.397504 -0.691101
O24   O     O_R   0.409541 0.896496 0.737538 -0.732066
O25   O     O_2   0.686954 0.114198 0.448204 -0.574993
O26   O     O_R   0.624136 0.073579 0.339826 -0.729118
O27   O     O_2   0.686777 0.328044 0.139431 -0.574671
O28   O     O_R   0.633696 0.386709 0.244451 -0.803828
O29   O     O_2   0.250908 0.569228 0.772815 -0.676334
O30   O     O_R   0.147073 0.614316 0.840762 -0.740893
O31   O     O_2   0.566270 0.807412 0.118031 -0.584813
O32   O     O_R   0.515527 0.703800 0.182424 -0.809055
O33   O     O_2   0.422705 0.419293 0.830754 -0.596584
O34   O     O_3   0.808944 0.238379 0.568040 -0.688508
O35   O     O_R   0.391251 0.371783 0.948898 -0.757231
O36   O     O_2   0.312430 0.670465 0.139431 -0.566246
O37   O     O_R   0.366033 0.612655 0.244481 -0.802364
O38   O     O_2   0.740655 0.428620 0.779084 -0.673436
O39   O     O_R   0.836267 0.380965 0.856543 -0.744030
O40   O     O_2   0.432569 0.196169 0.114126 -0.533150
O41   O     O_R   0.483153 0.299236 0.179950 -0.818463
O42   O     O_2   0.608428 0.547898 0.831722 -0.582945
O43   O     O_R   0.674314 0.568403 0.943662 -0.761516
O44   O     O_2   0.383626 0.092846 0.246004 -0.537278
O45   O     O_3   0.732623 0.752489 0.378062 -0.708487
O46   O     O_R   0.265058 0.064900 0.295132 -0.763651
O47   O     O_2   0.583311 0.728386 0.954943 -0.592760
O48   O     O_R   0.612971 0.855111 0.929611 -0.820971
O49   O     O_2   0.083036 0.625478 0.252517 -0.567676
O50   O     O_R   0.140336 0.650803 0.137114 -0.770012
O51   O     O_2   0.946772 0.349397 0.720256 -0.574403
O52   O     O_R   0.981141 0.235217 0.662179 -0.778602
O53   O     O_2   0.619324 0.908472 0.249710 -0.536019
O54   O     O_R   0.739252 0.934328 0.296913 -0.764047
O55   O     O_2   0.382242 0.191184 0.951290 -0.544696
O56   O     O_3   0.351502 0.175078 0.697336 -0.699295
O57   O     O_R   0.427206 0.127136 0.845312 -0.777878
O58   O     O_2   0.916552 0.374966 0.251501 -0.566220
O59   O     O_R   0.858338 0.348860 0.136541 -0.767147
O60   O     O_2   0.047720 0.659948 0.705151 -0.561295
O61   O     O_R   0.021172 0.778864 0.652983 -0.767576
O62   O     O_2   0.295470 0.966306 0.656205 -0.573482
O63   O     O_R   0.166722 0.958264 0.627138 -0.780265
O64   O     O_2   0.915039 0.071659 0.332775 -0.612748
O65   O     O_R   0.867848 0.105269 0.450654 -0.749528
O66   O     O_2   0.177102 0.177067 0.638339 -0.565673
O67   O     O_3   0.870789 0.299021 0.397016 -0.686735
O68   O     O_R   0.118727 0.125929 0.744134 -0.816256
O69   O     O_2   0.934288 0.745087 0.274365 -0.680839
O70   O     O_R   0.887983 0.639566 0.339023 -0.721819
O71   O     O_2   0.712075 0.046814 0.624263 -0.509173
O72   O     O_R   0.844443 0.046711 0.625255 -0.800417
O73   O     O_2   0.085733 0.929124 0.331601 -0.614565
O74   O     O_R   0.136071 0.900040 0.449274 -0.740769
O75   O     O_2   0.751366 0.899285 0.689857 -0.592033
O76   O     O_R   0.872859 0.859563 0.724364 -0.800434
O77   O     O_2   0.066424 0.251894 0.276976 -0.680308
O78   O     O_3   0.198398 0.772685 0.565759 -0.683943
O79   O     O_R   0.112779 0.356242 0.343918 -0.720281
O80   O     O_3   0.835287 0.628913 0.859816 -0.735308

loop_
_geom_bond_atom_site_label_1
_geom_bond_atom_site_label_2
_ccdc_geom_bond_type
C5    C136  S    
C36   O48   S    
C81   C126  S    
N15   N25   A    
C78   C115  S    
C142  O1    S    
C83   C128  S    
C101  H56   S    
N28   Ni2   S    
N2    N23   A    
C9    C108  S    
C72   C142  S    
C29   C119  S    
N13   N18   A    
C38   O52   S    
H40   O5    S    
C26   O28   S    
C27   O29   D    
C7    C133  S    
C17   C107  S    
C67   N22   A    
C50   C140  S    
C126  C143  S    
C119  C130  S    
H63   O48   S    
C107  C140  S    
C43   C133  S    
C117  C132  S    
C74   C144  S    
C29   O33   D    
C22   C113  S    
C53   H8    S    
C56   N11   A    
H51   O24   S    
N8    N28   A    
C33   O43   S    
C61   C105  A    
C34   O44   D    
C44   C135  S    
C19   C109  S    
C13   C91   A    
N13   Ni8   S    
C82   C141  S    
N2    Ni1   S    
N5    N31   A    
N24   Ni6   S    
C27   C117  S    
C44   O65   S    
C65   N20   A    
C16   C88   S    
C32   O41   S    
C8    C81   S    
C12   O5    S    
C31   C121  S    
C121  C128  S    
C83   C104  S    
C41   C131  S    
C69   C105  A    
C47   O70   S    
C76   C118  S    
C101  N29   A    
C82   C125  S    
C74   C110  S    
C4    O45   S    
C17   O9    D    
H29   O23   S    
H53   O28   S    
H68   O57   S    
H31   O45   S    
C71   H26   S    
C3    C138  S    
C70   N25   A    
N11   N19   A    
C7    C132  S    
H61   O43   S    
N22   Ni5   S    
H41   O6    S    
C48   O71   D    
C5    C130  S    
H43   O8    S    
C134  H80   S    
C143  O12   S    
C113  C137  S    
C20   O17   S    
C5    C77   S    
C16   C115  S    
H36   O80   S    
C2    N2    A    
N9    Ni5   S    
C9    O2    S    
C49   O73   D    
C80   C117  S    
C36   C126  S    
C88   C135  S    
C13   N3    A    
C38   C128  S    
C62   C106  A    
H52   O26   S    
C11   C84   S    
C74   C120  S    
N12   Ni2   S    
C48   C138  S    
C21   O19   S    
C69   H24   S    
C118  C129  S    
C31   O39   S    
C29   O35   S    
C42   O60   D    
C32   O40   D    
N9    N21   A    
N27   N32   A    
C30   C120  S    
C34   C125  S    
C68   C92   A    
H27   O1    S    
C18   C108  S    
H37   O2    S    
C19   O14   D    
C46   C96   A    
N17   Ni7   S    
C51   O79   S    
H64   O50   S    
C22   O20   D    
H48   O17   S    
C42   O61   S    
N10   N20   A    
C81   C140  S    
C1    H1    S    
C140  C143  S    
C30   O36   D    
N1    N4    A    
C120  C127  S    
C64   N19   A    
C70   H25   S    
C43   O62   D    
C52   H7    S    
C59   H14   S    
C111  C136  S    
C6    C78   S    
C62   H17   S    
C18   O13   S    
C10   C109  S    
C39   O54   S    
C4    C137  S    
H42   O7    S    
C72   C108  S    
N8    Ni3   S    
N32   Ni2   S    
C11   O4    S    
C3    C75   S    
C23   O24   S    
H49   O19   S    
N14   N26   A    
C11   C110  S    
N16   Ni8   S    
C63   C102  A    
C39   O53   D    
C11   C120  S    
C51   C141  S    
C57   H12   S    
C15   C114  S    
H70   O61   S    
C112  H67   S    
C14   C86   S    
H60   O41   S    
C61   H16   S    
C3    C128  S    
C39   C129  S    
H50   O21   S    
H30   O34   S    
C109  C138  S    
H33   O67   S    
C6    C135  S    
C12   C119  S    
H79   O79   S    
C112  N30   A    
H38   O3    S    
C51   O77   D    
C76   C113  S    
N18   Ni6   S    
C41   O58   D    
C20   C110  S    
H54   O30   S    
C13   H3    S    
C55   N10   A    
C85   C106  S    
C8    C107  S    
C62   N17   A    
C124  C126  S    
C71   C103  A    
N11   Ni7   S    
C66   H21   S    
C53   C94   A    
H74   O70   S    
C78   C116  S    
C20   O16   D    
C73   C92   S    
C58   H13   S    
H28   O12   S    
C38   O51   D    
N4    Ni4   S    
C52   N7    A    
C77   C96   S    
C37   O50   S    
C25   O26   S    
C59   C103  A    
C66   C98   A    
C122  C125  S    
C49   C139  S    
C97   C123  A    
C115  C135  S    
C50   O75   D    
C83   C138  S    
C53   N8    A    
C7    O78   S    
C23   O22   D    
N29   Ni1   S    
N10   Ni6   S    
H73   O68   S    
C5    O56   S    
C55   C99   A    
C28   O32   S    
N15   Ni5   S    
N19   Ni5   S    
C88   C131  S    
C33   O42   D    
C60   C104  A    
C88   C98   S    
C95   C101  A    
C144  O23   S    
C19   O15   S    
H76   O74   S    
C60   H15   S    
H71   O63   S    
N3    N12   A    
C110  C139  S    
C34   O46   S    
C70   C104  A    
C73   C107  S    
C47   O69   D    
C10   C83   S    
C28   C118  S    
C52   C95   A    
C80   C89   S    
C77   C111  S    
C43   O63   S    
C86   C137  S    
C21   C111  S    
C84   C139  S    
C33   C124  S    
C44   O64   D    
C58   C102  A    
C58   N13   A    
H65   O52   S    
C123  N31   A    
C9    C82   S    
C48   O72   S    
C36   O47   D    
C46   N6    A    
C64   H19   S    
C16   C116  S    
C108  C141  S    
C16   O8    S    
C90   C94   A    
H32   O56   S    
N17   N22   A    
C32   C122  S    
C26   O27   D    
C59   N14   A    
C8    C124  S    
C76   C97   S    
C63   N18   A    
H39   O4    S    
C15   C117  S    
C21   O18   D    
C22   O21   S    
C85   C130  S    
C30   O37   S    
C55   H10   S    
N30   Ni4   S    
C9    C122  S    
C6    O67   S    
C41   O59   S    
C60   N15   A    
C65   C99   A    
C72   C93   S    
H35   O78   S    
N14   Ni6   S    
C57   N12   A    
C73   C143  S    
C1    N1    A    
C40   C130  S    
C57   C91   A    
C61   N16   A    
C79   N27   A    
C6    C131  S    
N6    N30   A    
C14   O6    S    
C67   C106  A    
C4    C129  S    
H57   O35   S    
C14   C113  S    
N7    Ni4   S    
C134  N32   A    
H66   O54   S    
C23   C114  S    
H44   O10   S    
C45   O66   D    
C127  C144  S    
N25   Ni8   S    
N7    N29   A    
N26   Ni7   S    
C64   C100  A    
H58   O37   S    
N16   N24   A    
H69   O59   S    
C42   C132  S    
C35   H5    S    
C75   C94   S    
C7    C80   S    
C8    O80   S    
C66   N21   A    
N5    Ni1   S    
C49   O74   S    
C63   H18   S    
H46   O13   S    
C87   C133  S    
C10   C121  S    
C24   C89   A    
C54   H9    S    
C17   O10   S    
C96   C112  A    
C12   C85   S    
C79   C93   A    
C40   O57   S    
C25   C115  S    
N27   Ni4   S    
N6    Ni2   S    
C14   C118  S    
H72   O65   S    
C71   N26   A    
N3    Ni3   S    
C84   C127  S    
C56   H11   S    
C15   O7    S    
C87   C99   S    
C81   C102  S    
C68   N23   A    
C123  H78   S    
N31   Ni3   S    
C75   C109  S    
C10   O3    S    
H59   O39   S    
C93   C134  A    
C24   H4    S    
N20   Ni7   S    
C85   C136  S    
C90   N28   A    
C37   O49   D    
C25   O25   D    
C35   N5    A    
C87   C132  S    
C3    O34   S    
C139  C144  S    
C69   N24   A    
C125  C142  S    
C73   C124  S    
H47   O15   S    
C47   C137  S    
H77   O76   S    
H75   O72   S    
C79   H34   S    
C50   O76   S    
C2    C92   A    
C40   O55   D    
C45   O68   S    
C67   H22   S    
C46   H6    S    
C80   C114  S    
H55   O32   S    
C86   C105  S    
C56   C100  A    
C27   O30   S    
C15   C87   S    
C18   O11   D    
C45   C136  S    
C1    C89   A    
C72   C122  S    
C75   C121  S    
C82   C100  S    
C74   C95   S    
C77   C119  S    
C31   O38   D    
N23   Ni3   S    
C86   C129  S    
C78   C91   S    
C2    H2    S    
C54   N9    A    
N1    Ni1   S    
C24   N4    A    
C141  C142  S    
C116  C131  S    
C65   H20   S    
C114  C133  S    
C26   C116  S    
C4    C76   S    
C68   H23   S    
C84   C103  S    
C54   C98   A    
C28   O31   D    
C37   C127  S    
C35   C97   A    
N21   Ni8   S    
C12   C111  S    
H62   O46   S    
C90   H45   S    
