data_mof_unit_38107.cif
_audit_creation_date              2012-12-10T17:38:18-0500
_audit_creation_method            fapswitch 2.2
_symmetry_space_group_name_H-M    P1
_symmetry_Int_Tables_number       1
_space_group_crystal_system       triclinic
_cell_length_a                    12.091774
_cell_length_b                    12.893078
_cell_length_c                    19.132496
_cell_angle_alpha                 92.224072
_cell_angle_beta                  84.812882
_cell_angle_gamma                 94.159006
_cell_volume                      2961.15985652

loop_
_atom_site_label
_atom_site_type_symbol
_atom_type_description
_atom_site_fract_x
_atom_site_fract_y
_atom_site_fract_z
_atom_type_partial_charge
C1    C     C_R   0.523523 0.700688 0.499797 0.850161
C2    C     C_R   0.540486 0.134823 0.527356 -0.267640
C3    C     C_R   0.454777 0.972797 0.485498 0.127165
C4    C     C_R   0.542824 0.028046 0.518316 0.086164
C5    C     C_R   0.960413 0.414463 0.425387 -0.074622
C6    C     C_R   0.040383 0.592538 0.571135 -0.108302
C7    C     C_R   0.842297 0.414976 0.436100 0.204874
C8    C     C_R   0.157561 0.582700 0.565340 0.175888
C9    C     C_R   0.856383 0.540528 0.529541 -0.040291
C10   C     C_R   0.144282 0.465999 0.466873 0.017897
C11   C     C_R   0.973956 0.534354 0.525184 0.025155
C12   C     C_R   0.476301 0.299566 0.501342 0.944887
C13   C     C_R   0.026481 0.470688 0.472349 -0.046293
C14   C     C_R   0.499097 0.501442 0.634139 0.799862
C15   C     C_R   0.500984 0.499542 0.365926 0.920632
C16   C     C_R   0.437894 0.429648 0.750066 -0.042046
C17   C     C_R   0.531922 0.590945 0.254478 -0.071817
C18   C     C_R   0.432932 0.439703 0.822819 -0.130705
C19   C     C_R   0.518840 0.592401 0.183037 -0.119333
C20   C     C_R   0.488865 0.523619 0.855801 -0.024825
C21   C     C_R   0.476913 0.503933 0.147257 0.013707
C22   C     C_R   0.551319 0.601858 0.816560 -0.013300
C23   C     C_R   0.457330 0.187533 0.502221 -0.095755
C24   C     C_R   0.444531 0.410886 0.182504 -0.073323
C25   C     C_R   0.551851 0.595876 0.742681 -0.125371
C26   C     C_R   0.458426 0.407552 0.254690 -0.057765
C27   C     C_R   0.497610 0.508134 0.710051 -0.163464
C28   C     C_R   0.501732 0.498052 0.290159 -0.126846
C29   C     C_R   0.478025 0.508753 0.071611 0.358691
C30   C     C_R   0.487232 0.520796 0.931364 0.347631
C31   C     C_2   0.382308 0.335836 0.716734 0.451915
C32   C     C_2   0.575386 0.687351 0.291282 0.457219
C33   C     C_2   0.015259 0.355110 0.365251 0.361428
C34   C     C_R   0.541195 0.813209 0.500410 -0.156420
C35   C     C_2   0.988393 0.665152 0.624855 0.381555
C36   C     C_2   0.624304 0.683834 0.850529 0.513918
C37   C     C_2   0.396653 0.317274 0.144583 0.427762
C38   C     C_2   0.602494 0.683578 0.699205 0.402220
C39   C     C_2   0.424138 0.310453 0.293074 0.340342
C40   C     C_2   0.271481 0.187339 0.450282 0.408183
C41   C     C_2   0.735689 0.813885 0.540549 0.339517
C42   C     C_2   0.731087 0.034187 0.567969 0.480021
C43   C     C_2   0.275436 0.969656 0.424568 0.342071
C44   C     C_3   0.223489 0.642929 0.619732 -0.401183
C45   C     C_R   0.634348 0.976302 0.537991 -0.029627
C46   C     C_3   0.204602 0.593405 0.692238 -0.347279
C47   C     C_3   0.260156 0.661677 0.747855 -0.769306
C48   C     C_3   0.774903 0.336821 0.392277 -0.327944
C49   C     C_3   0.784990 0.224629 0.414434 -0.426588
C50   C     C_3   0.715267 0.146208 0.371964 -0.754176
C51   C     C_R   0.366426 0.025135 0.462022 -0.070485
C52   C     C_R   0.636028 0.868116 0.525846 -0.049450
C53   C     C_R   0.365605 0.133166 0.473073 -0.021803
C54   C     C_R   0.454279 0.865739 0.479495 -0.205003
H1    H     H_    0.387523 0.380084 0.854621 0.205139
H2    H     H_    0.015868 0.747104 0.625877 0.103756
H3    H     H_    0.698099 0.717786 0.821074 0.125463
H4    H     H_    0.412193 0.239839 0.159810 0.074534
H5    H     H_    0.642370 0.668788 0.647232 0.126256
H6    H     H_    0.352745 0.260906 0.278845 0.068812
H7    H     H_    0.255064 0.184089 0.395404 0.052030
H8    H     H_    0.772880 0.760595 0.501573 0.089387
H9    H     H_    0.814602 0.025514 0.543526 0.063823
H10   H     H_    0.189483 0.986120 0.439140 0.079358
H11   H     H_    0.349070 0.680877 0.730714 0.271767
H12   H     H_    0.543699 0.662394 0.154287 0.203985
H13   H     H_    0.217760 0.735193 0.757102 0.273570
H14   H     H_    0.254574 0.620011 0.797909 0.263230
H15   H     H_    0.114705 0.581872 0.709473 0.258302
H16   H     H_    0.238160 0.515431 0.689663 0.249831
H17   H     H_    0.312239 0.651954 0.604519 0.264068
H18   H     H_    0.200154 0.724756 0.624005 0.164022
H19   H     H_    0.625969 0.161790 0.380084 0.296063
H20   H     H_    0.743289 0.150434 0.315180 0.280944
H21   H     H_    0.724835 0.066340 0.389212 0.236135
H22   H     H_    0.872586 0.203410 0.406993 0.223248
H23   H     H_    0.606054 0.179746 0.551919 0.198343
H24   H     H_    0.757538 0.218072 0.471028 0.234182
H25   H     H_    0.687381 0.350585 0.395164 0.278317
H26   H     H_    0.801944 0.344338 0.335679 0.230296
H27   H     H_    0.383940 0.821075 0.459821 0.208079
H28   H     H_    0.186835 0.419109 0.426414 0.137145
H29   H     H_    0.814159 0.592255 0.566928 0.177723
H30   H     H_    0.392628 0.321668 0.660380 0.072214
H31   H     H_    0.588088 0.687848 0.346632 0.047679
H32   H     H_    0.071045 0.295910 0.374679 0.070708
N1    N     N_R   0.537220 0.444536 0.960436 -0.138087
N2    N     N_R   0.427641 0.584937 0.042530 -0.125002
N3    N     N_R   0.533162 0.438903 0.029680 -0.127181
N4    N     N_R   0.431318 0.590316 0.973173 -0.088783
N5    N     N_R   0.207800 0.519350 0.512860 -0.108185
N6    N     N_R   0.792200 0.480650 0.487140 -0.135294
O1    O     O_R   0.421690 0.658830 0.503430 -0.640223
O2    O     O_2   0.597710 0.768086 0.260049 -0.531467
O3    O     O_2   0.001264 0.374621 0.304891 -0.534051
O4    O     O_2   0.916795 0.633021 0.669474 -0.552577
O5    O     O_2   0.603419 0.715275 0.910892 -0.535788
O6    O     O_2   0.337047 0.325617 0.097165 -0.514651
O7    O     O_2   0.595975 0.773848 0.720034 -0.515320
O8    O     O_2   0.477114 0.283416 0.339680 -0.624325
O9    O     O_2   0.207615 0.229728 0.493520 -0.566464
O10   O     O_2   0.778021 0.829374 0.595919 -0.534885
O11   O     O_2   0.718540 0.087118 0.622039 -0.513138
O12   O     O_R   0.578310 0.341170 0.496570 -0.634951
O13   O     O_2   0.296341 0.910177 0.374666 -0.533821
O14   O     O_R   0.609320 0.646410 0.495180 -0.651657
O15   O     O_R   0.390680 0.353590 0.504820 -0.569930
O16   O     O_R   0.406160 0.506220 0.605990 -0.639377
O17   O     O_R   0.593840 0.493780 0.394010 -0.637775
O18   O     O_R   0.593780 0.493810 0.597740 -0.607680
O19   O     O_R   0.406220 0.506190 0.402260 -0.609444
O20   O     O_2   0.324303 0.272397 0.752058 -0.523637
Zn1   Zn    Zn3+2 0.374720 0.508290 0.505510 0.978290
Zn2   Zn    Zn3+2 0.625280 0.491710 0.494490 0.949090

loop_
_geom_bond_atom_site_label_1
_geom_bond_atom_site_label_2
_ccdc_geom_bond_type
C32   O2    D    
C15   O17   A    
C30   N4    A    
C42   O11   D    
C29   N3    A    
C39   O8    D    
C20   C30   S    
C35   O4    D    
C49   H24   S    
C16   C31   S    
C12   C23   S    
O14   Zn2   S    
C48   H25   S    
C19   C21   A    
C24   C26   A    
C12   O12   A    
C50   H20   S    
C3    C54   A    
C26   C39   S    
C32   H31   S    
C6    C35   S    
C19   H12   S    
C43   O13   D    
C49   C50   S    
O15   Zn1   S    
C46   H15   S    
C40   O9    D    
C29   N2    A    
C22   C25   A    
C5    C33   S    
C43   H10   S    
C31   O20   D    
C36   O5    D    
C14   C27   S    
O18   Zn2   S    
C41   C52   S    
C5    C13   A    
C37   H4    S    
C1    O14   A    
C16   C27   A    
C14   O16   A    
C41   H8    S    
C33   O3    D    
C9    N6    A    
C47   H13   S    
C37   O6    D    
C44   C46   S    
C1    C34   S    
C23   C53   A    
C4    C45   A    
C15   O19   A    
C36   H3    S    
C50   H19   S    
C6    C11   A    
C5    C7    A    
C3    C51   A    
C6    C8    A    
C45   C52   A    
C21   C29   S    
C10   H28   S    
C40   H7    S    
N5    Zn1   S    
C44   H17   S    
C51   C53   A    
C42   C45   S    
O16   Zn1   S    
C2    C4    A    
C33   H32   S    
C25   C38   S    
C24   C37   S    
C49   H22   S    
O19   Zn1   S    
C8    N5    A    
O1    Zn1   S    
C9    C11   A    
C18   H1    S    
C9    H29   S    
O12   Zn2   S    
O17   Zn2   S    
C1    O1    A    
C48   C49   S    
C20   C22   A    
C10   N5    A    
C34   C54   A    
N1    N3    A    
C41   O10   D    
C3    C4    A    
C47   H14   S    
C14   O18   A    
C46   C47   S    
C35   H2    S    
C17   C28   A    
C34   C52   A    
C8    C44   S    
N2    N4    A    
C38   O7    D    
C10   C13   A    
C12   O15   A    
C25   C27   A    
C22   C36   S    
C26   C28   A    
C7    C48   S    
C48   H26   S    
C2    H23   S    
C50   H21   S    
C11   C13   A    
C43   C51   S    
C15   C28   S    
C39   H6    S    
C17   C19   A    
C44   H18   S    
C18   C20   A    
C46   H16   S    
C31   H30   S    
C38   H5    S    
C16   C18   A    
C40   C53   S    
C21   C24   A    
C7    N6    A    
C2    C23   A    
C17   C32   S    
C30   N1    A    
N6    Zn2   S    
C42   H9    S    
C47   H11   S    
C54   H27   S    
