data_mof_unit_66657.cif
_audit_creation_date              2013-03-05T15:40:28-0500
_audit_creation_method            fapswitch 2.2
_symmetry_space_group_name_H-M    P1
_symmetry_Int_Tables_number       1
_space_group_crystal_system       triclinic
_cell_length_a                    8.387122
_cell_length_b                    15.414613
_cell_length_c                    16.461303
_cell_angle_alpha                 96.822831
_cell_angle_beta                  91.446794
_cell_angle_gamma                 100.478838
_cell_volume                      2075.47947435

loop_
_atom_site_label
_atom_site_type_symbol
_atom_site_description
_atom_site_fract_x
_atom_site_fract_y
_atom_site_fract_z
_atom_type_partial_charge
P1    P     P_3+3 0.037890 0.428670 0.315390 0.516351
O1    O     O_2   0.870790 0.455700 0.303190 -0.352798
O2    O     O_3   0.120480 0.453880 0.403310 -0.403453
O3    O     O_3   0.662860 0.618850 0.354340 -0.333323
O4    O     O_2   0.745068 0.550573 0.211398 -0.351764
O5    O     O_3   0.002125 0.315077 0.269132 -0.536677
O6    O     O_3   0.726356 0.715586 0.218838 -0.465587
H1    H     H_    0.588214 0.795532 0.282917 0.015656
C1    C     C_3   0.682894 0.851933 0.175817 -0.374356
H2    H     H_    0.605615 0.903233 0.185521 0.181253
H3    H     H_    0.804452 0.880694 0.203944 0.188163
P2    P     P_3+3 0.680030 0.705880 0.565670 0.521978
P3    P     P_3+3 0.150405 0.778669 0.397688 0.462476
O7    O     O_2   0.855710 0.719820 0.541650 -0.374653
O8    O     O_3   0.086210 0.664250 0.395340 -0.390981
O9    O     O_2   0.055564 0.819960 0.466632 -0.310972
O10   O     O_3   0.688109 0.741983 0.672093 -0.628236
O11   O     O_3   0.075530 0.817772 0.311311 -0.555016
C2    C     C_3   0.153317 0.792179 0.239792 0.506640
H4    H     H_    0.275558 0.777708 0.253453 -0.053910
C3    C     C_3   0.176059 0.872610 0.190619 -0.036411
H5    H     H_    0.057746 0.883613 0.167351 0.141946
H6    H     H_    0.232982 0.933174 0.231748 0.106203
C4    C     C_3   0.235356 0.736996 0.650340 0.200672
H7    H     H_    0.364090 0.739359 0.635844 0.090306
H8    H     H_    0.156910 0.709642 0.594437 0.118167
C5    C     C_3   0.205532 0.831338 0.679119 0.276384
H9    H     H_    0.072312 0.826473 0.683453 0.134903
Ba1   Ba    Ba6+2 0.854080 0.543710 0.461380 1.638843
C6    C     C_3   0.946572 0.252493 0.321998 0.221146
H10   H     H_    0.828686 0.263538 0.344430 0.063829
H11   H     H_    0.043717 0.256545 0.369338 0.071420
C7    C     C_3   0.917345 0.154022 0.282071 -0.083504
H12   H     H_    0.033955 0.134984 0.265851 0.139114
C8    C     C_3   0.773142 0.692944 0.717961 0.716856
H13   H     H_    0.892455 0.689358 0.691896 0.044307
C9    C     C_3   0.797142 0.736988 0.809083 0.095870
H14   H     H_    0.795977 0.809151 0.812140 0.188490
P4    P     P_3+3 0.151830 0.571400 0.684620 0.518393
O12   O     O_2   0.318910 0.544330 0.696860 -0.283970
O13   O     O_3   0.069240 0.546190 0.596700 -0.455668
O14   O     O_3   0.526850 0.381230 0.645670 -0.308380
O15   O     O_3   0.199531 0.686390 0.715113 -0.549410
P5    P     P_3+3 0.054198 0.219286 0.605096 0.482147
O16   O     O_3   0.607560 0.392310 0.457770 -0.309244
O17   O     O_3   0.103510 0.335820 0.604670 -0.367966
O18   O     O_2   0.185381 0.181751 0.555436 -0.329092
O19   O     O_3   0.104203 0.205196 0.706237 -0.488825
Ba2   Ba    Ba6+2 0.335760 0.456360 0.538630 1.646983
P6    P     P_3+3 0.634400 0.613580 0.247883 0.552554
C10   C     C_3   0.612604 0.771963 0.218754 0.333874
H15   H     H_    0.496942 0.738747 0.185373 0.070802
O20   O     O_3   0.582150 0.607760 0.542240 -0.329159
C11   C     C_3   0.479440 0.294678 0.268746 0.762415
C12   C     C_3   0.332004 0.238051 0.216789 0.222051
H16   H     H_    0.237108 0.234221 0.261327 0.096365
P7    P     P_3+3 0.514212 0.277956 0.434345 0.509874
O21   O     O_2   0.333990 0.280210 0.458400 -0.325151
O22   O     O_3   0.518080 0.240975 0.328230 -0.680628
C13   C     C_3   0.986462 0.141137 0.735917 0.756700
H17   H     H_    0.862016 0.139743 0.710450 -0.008436
C14   C     C_3   0.033749 0.049735 0.719308 -0.014884
H18   H     H_    0.143312 0.047199 0.757606 0.173634
H19   H     H_    0.062477 0.036176 0.654226 0.161505
P8    P     P_3+3 0.553863 0.384584 0.753183 0.612194
C15   C     C_3   0.555762 0.218112 0.767701 0.734282
H20   H     H_    0.686448 0.245605 0.761441 -0.046184
O23   O     O_2   0.446873 0.449437 0.790916 -0.291111
O24   O     O_3   0.458819 0.283274 0.783453 -0.462316
H21   H     H_    0.613430 0.106416 0.824018 0.143038
C16   C     C_3   0.542356 0.160161 0.837230 0.038530
H22   H     H_    0.413534 0.129436 0.843641 0.157403
C17   C     C_R   0.303493 0.550047 0.265295 -0.462202
C18   C     C_R   0.154959 0.495023 0.240101 0.404751
C19   C     C_R   0.109454 0.479311 0.155185 -0.287347
C20   C     C_R   0.216296 0.513517 0.095902 0.119865
C21   C     C_R   0.375970 0.555534 0.123445 0.309570
C22   C     C_R   0.420497 0.571899 0.208227 0.080839
C23   C     C_R   0.085967 0.514557 0.844946 -0.154603
C24   C     C_R   0.032631 0.509647 0.761656 0.328803
C25   C     C_R   0.980563 0.474797 0.902738 0.197569
N1    N     N_2   0.172077 0.505703 0.009265 -0.007527
N2    N     N_2   0.024547 0.478902 0.988939 -0.047114
C26   C     C_R   0.879080 0.462225 0.736493 -0.410800
H23   H     H_    0.206011 0.551014 0.864591 0.169176
C27   C     C_R   0.769079 0.427351 0.791871 0.192335
C28   C     C_R   0.820152 0.434016 0.874969 -0.176061
H24   H     H_    0.995206 0.437299 0.135146 0.178591
H25   H     H_    0.734447 0.408949 0.918484 0.200413
H26   H     H_    0.337699 0.564207 0.330012 0.197834
H27   H     H_    0.837706 0.462921 0.674188 0.170945
C29   C     C_R   0.745376 0.226113 0.533062 -0.175980
C30   C     C_R   0.845101 0.169029 0.557063 0.098442
C31   C     C_R   0.790692 0.076609 0.537973 -0.275421
C32   C     C_R   0.633211 0.040151 0.500927 0.075405
C33   C     C_R   0.533757 0.102580 0.479362 0.061615
C34   C     C_R   0.599132 0.195141 0.489519 0.271946
C35   C     C_R   0.446615 0.900258 0.427804 -0.300340
C36   C     C_R   0.368468 0.812249 0.427187 0.256835
C37   C     C_R   0.590832 0.784827 0.510070 0.311206
C38   C     C_R   0.652946 0.877650 0.523221 -0.194464
C39   C     C_R   0.578881 0.938637 0.483288 0.149408
C40   C     C_R   0.445143 0.753668 0.464620 -0.438191
H28   H     H_    0.398293 0.937553 0.386272 0.140503
H29   H     H_    0.873926 0.033925 0.550790 0.147419
H30   H     H_    0.755160 0.900710 0.566311 0.177419
H31   H     H_    0.385898 0.684939 0.462990 0.148951
N3    N     N_2   0.282627 0.866166 0.759655 -0.083875
H32   H     H_    0.215861 0.904426 0.795507 0.225669
C41   C     C_3   0.454072 0.904640 0.763988 -0.693867
H33   H     H_    0.474455 0.969037 0.738586 0.286766
H34   H     H_    0.523613 0.858965 0.729755 0.276449
H35   H     H_    0.499937 0.917910 0.828880 0.234465
Cl1   Cl    Cl    0.265124 0.906464 0.606614 -0.701874
N4    N     N_2   0.807433 0.136513 0.209527 -0.124056
H36   H     H_    0.727210 0.076617 0.204767 0.192631
C42   C     C_3   0.880080 0.151675 0.132374 -0.710228
H37   H     H_    0.984144 0.116645 0.123279 0.249183
H38   H     H_    0.919186 0.223853 0.130023 0.315439
H39   H     H_    0.789274 0.125695 0.080983 0.248167
N5    N     N_2   0.849121 0.099940 0.343743 -0.130330
H40   H     H_    0.733797 0.107972 0.358398 0.168351
C43   C     C_3   0.872628 0.008742 0.338050 -0.903249
H41   H     H_    0.753827 0.963082 0.325880 0.235212
H42   H     H_    0.925090 0.996843 0.397291 0.282913
H43   H     H_    0.956001 0.993446 0.289362 0.242171
Cl2   Cl    Cl    0.658480 0.585614 0.711219 -0.596910
Cl3   Cl    Cl    0.992542 0.729826 0.850762 -0.667739
N6    N     N_2   0.674352 0.696850 0.861539 -0.092627
H44   H     H_    0.715013 0.695766 0.921024 0.253818
C44   C     C_3   0.518813 0.724175 0.857978 -0.686799
H45   H     H_    0.429496 0.679080 0.889538 0.273401
H46   H     H_    0.474334 0.720674 0.793607 0.283671
H47   H     H_    0.529077 0.792702 0.889657 0.223978
N7    N     N_2   0.696507 0.826105 0.088945 -0.059659
H48   H     H_    0.592787 0.787334 0.059980 0.266199
C45   C     C_3   0.764240 0.898192 0.043986 -0.746088
H49   H     H_    0.785889 0.871031 0.980551 0.257579
H50   H     H_    0.881999 0.934613 0.073249 0.245615
H51   H     H_    0.678563 0.945092 0.041439 0.254406
Cl4   Cl    Cl    0.428215 0.396468 0.312182 -0.606090
N8    N     N_2   0.620283 0.315313 0.219499 -0.123289
H52   H     H_    0.687225 0.266246 0.210090 0.181276
C46   C     C_3   0.611878 0.362728 0.148947 -0.622723
H53   H     H_    0.563552 0.316634 0.093629 0.277079
H54   H     H_    0.734880 0.394936 0.135601 0.235266
H55   H     H_    0.536328 0.414285 0.159643 0.278252
Cl5   Cl    Cl    0.251179 0.287757 0.135351 -0.643011
N9    N     N_2   0.354581 0.147241 0.190700 -0.140428
H56   H     H_    0.258105 0.099018 0.201883 0.154548
C47   C     C_3   0.420013 0.126497 0.111736 -0.697484
H57   H     H_    0.446764 0.058211 0.106654 0.250693
H58   H     H_    0.534750 0.172088 0.104729 0.250030
H59   H     H_    0.330742 0.129161 0.061550 0.303496
Cl6   Cl    Cl    0.304556 0.863989 0.106554 -0.733149
Cl7   Cl    Cl    0.982800 0.171084 0.843860 -0.535852
Cl8   Cl    Cl    0.871180 0.965237 0.740552 -0.715492
Cl9   Cl    Cl    0.478772 0.148872 0.675999 -0.676442
N10   N     N_2   0.050297 0.712621 0.196919 -0.080501
H60   H     H_    0.046423 0.657572 0.227195 0.186096
C48   C     C_3   0.047214 0.692409 0.108690 -0.683783
H61   H     H_    0.961742 0.628913 0.089462 0.251422
H62   H     H_    0.169682 0.685474 0.088235 0.244767
H63   H     H_    0.001390 0.744339 0.078596 0.294266
Cl10  Cl    Cl    0.619353 0.223735 0.932019 -0.617142
Cl11  Cl    Cl    0.520189 0.585693 0.050739 -0.661966
N11   N     N_2   0.363151 0.076503 0.461975 -0.061309
H64   H     H_    0.301865 0.028388 0.493929 0.267153
C49   C     C_3   0.299213 0.077474 0.379561 -0.897609
H65   H     H_    0.210201 0.015608 0.360445 0.233120
H66   H     H_    0.397086 0.081351 0.335280 0.247380
H67   H     H_    0.233189 0.133128 0.377844 0.278852
N12   N     N_2   0.792815 0.318117 0.551903 -0.106287
H68   H     H_    0.826783 0.335187 0.612609 0.150901
C50   C     C_3   0.904023 0.356429 0.495067 -0.569306
H69   H     H_    0.966559 0.420457 0.522733 0.287781
H70   H     H_    0.847250 0.365204 0.437902 0.213423
H71   H     H_    0.994953 0.315844 0.478973 0.195848

loop_
_geom_bond_atom_site_label_1
_geom_bond_atom_site_label_2
_geom_bond_distance
_ccdc_geom_bond_type
C36   C40   1.390001 A    
C12   H16   1.094121 S    
C31   H29   1.075805 S    
C38   C39   1.428424 A    
P2    Ba1   3.429484 S    
C17   C18   1.396187 A    
C32   C33   1.451217 A    
C1    C10   1.526565 S    
C4    C5    1.541564 S    
C23   H23   1.081041 S    
C24   C26   1.386793 A    
C44   H47   1.108580 S    
C32   C39   1.538365 S    
C48   H61   1.109848 S    
O2    Ba2   2.824020 S    
N7    H48   1.031254 S    
P4    O13   1.563099 S    
Ba1   Ba2   4.677279 S    
C21   C22   1.416563 A    
C45   H50   1.110286 S    
O17   Ba2   2.774696 S    
O16   P7    1.786091 S    
C14   H18   1.110429 S    
P3    O11   1.753741 S    
O1    Ba1   2.808774 S    
P1    C18   1.882433 S    
C2    C3    1.545627 S    
C4    H8    1.110779 S    
C17   H26   1.082320 S    
O11   C2    1.410431 S    
N9    C47   1.447107 S    
C6    H10   1.098926 S    
Ba2   O20   2.815504 S    
P7    O22   1.774893 S    
C15   O24   1.408202 S    
O12   Ba2   2.809304 S    
N3    H32   1.031413 S    
C50   H70   1.077762 S    
C13   C14   1.527851 S    
P1    O1    1.547959 D    
C49   H65   1.106190 S    
C47   H59   1.110306 S    
O2    Ba1   2.956706 S    
C41   H33   1.109035 S    
C29   C30   1.401267 A    
C14   H19   1.107995 S    
P5    C30   1.895016 S    
C25   N2    1.448212 S    
C2    H4    1.111271 S    
C12   N9    1.461993 S    
N3    C41   1.448795 S    
N4    C42   1.447986 S    
P2    O10   1.769740 S    
O14   P8    1.772000 S    
C17   C22   1.400162 A    
N10   C48   1.447328 S    
O8    Ba1   2.774101 S    
H21   C16   1.110114 S    
C26   H27   1.076305 S    
C1    H2    1.110217 S    
O3    Ba1   2.834832 S    
P5    O18   1.542126 D    
C9    Cl3   1.787671 S    
P8    C27   1.872895 S    
C15   H20   1.112979 S    
C3    H5    1.103449 S    
C7    N5    1.452555 S    
C49   H66   1.109703 S    
C46   H55   1.104386 S    
P6    C22   1.865313 S    
O13   Ba2   2.957560 S    
C48   H62   1.108466 S    
P5    O17   1.769407 S    
C29   C34   1.381113 A    
O19   C13   1.404713 S    
C50   H71   1.089746 S    
C11   O22   1.422425 S    
N12   C50   1.438407 S    
C45   H51   1.111487 S    
C7    N4    1.458095 S    
P2    C37   1.854581 S    
C18   C19   1.420286 A    
C10   H15   1.109378 S    
C43   H41   1.108897 S    
C20   C21   1.415126 A    
N11   C49   1.448885 S    
C42   H39   1.110000 S    
C20   N1    1.449889 S    
N11   H64   1.028914 S    
C23   C25   1.430428 A    
C42   H38   1.106836 S    
C27   C28   1.409320 A    
C43   H43   1.109182 S    
P4    O15   1.753394 S    
C21   Cl11  1.764192 S    
N12   H68   1.022195 S    
C37   C40   1.392299 A    
Ba2   O21   2.872197 S    
P1    O5    1.793432 S    
O3    P6    1.752869 S    
C13   H17   1.110505 S    
P1    O2    1.563098 S    
C8    H13   1.106656 S    
P3    C36   1.843845 S    
C19   C20   1.424052 A    
C13   Cl7   1.784471 S    
C15   C16   1.527580 S    
C9    H14   1.109340 S    
N10   H60   1.029930 S    
C41   H35   1.108870 S    
O16   Ba2   2.933054 S    
C47   H57   1.109608 S    
P8    O23   1.548317 D    
P7    C34   1.880234 S    
C33   C34   1.420728 A    
P1    Ba1   3.386068 S    
C7    H12   1.101319 S    
C3    Cl6   1.782634 S    
C14   Cl8   1.778825 S    
C30   C31   1.409420 A    
C4    H7    1.106709 S    
C8    Cl2   1.745449 S    
C1    H3    1.101520 S    
H1    C10   1.111843 S    
N5    H40   1.028258 S    
C25   C28   1.416761 A    
C1    N7    1.451212 S    
C46   H54   1.100030 S    
O5    C6    1.400541 S    
P2    O7    1.519213 D    
C35   C36   1.393944 A    
P3    O8    1.743405 S    
C49   H67   1.105067 S    
N8    C46   1.450607 S    
O4    P6    1.543696 D    
O7    Ba1   2.872085 S    
C44   H45   1.109194 S    
C15   Cl9   1.775414 S    
C48   H63   1.109237 S    
C8    C9    1.563482 S    
N6    H44   1.031753 S    
C38   H30   1.078403 S    
N7    C45   1.446457 S    
C11   C12   1.548899 S    
C6    C7    1.554210 S    
Ba1   O13   2.823400 S    
P2    O20   1.582420 S    
O6    P6    1.746980 S    
C26   C27   1.396304 A    
C46   H53   1.105080 S    
C44   H46   1.106348 S    
P4    Ba2   3.386642 S    
C29   N12   1.396370 S    
C45   H49   1.109952 S    
C2    N10   1.458339 S    
C11   N8    1.458318 S    
C33   N11   1.426086 S    
C3    H6    1.108712 S    
O6    C10   1.402575 S    
C16   H22   1.110990 S    
C50   H69   1.072120 S    
C35   C39   1.412983 A    
C42   H37   1.111117 S    
P4    C24   1.875728 S    
C6    H11   1.101318 S    
P7    O21   1.577608 D    
Ba1   O20   2.933983 S    
C5    N3    1.457807 S    
P8    O24   1.753454 S    
C37   C38   1.419544 A    
C9    N6    1.459155 S    
C12   Cl5   1.797444 S    
C47   H58   1.100953 S    
C31   C32   1.428341 A    
C4    O15   1.401516 S    
C41   H34   1.106860 S    
N5    C43   1.447174 S    
C43   H42   1.108341 S    
O14   Ba2   2.834064 S    
C23   C24   1.420451 A    
P4    O12   1.548168 D    
C5    Cl1   1.778592 S    
C19   H24   1.074214 S    
C11   Cl4   1.775354 S    
N1    N2    1.254583 D    
C16   Cl10  1.779795 S    
P3    O9    1.544015 D    
Ba1   O16   2.816140 S    
C5    H9    1.110840 S    
C28   H25   1.081598 S    
N8    H52   1.020942 S    
C40   H31   1.082175 S    
O10   C8    1.398087 S    
N4    H36   1.032219 S    
N9    H56   1.030734 S    
C35   H28   1.061276 S    
P5    O19   1.754659 S    
N6    C44   1.443779 S    
