data_mof_unit_19100.cif
_audit_creation_date              2012-12-10T19:50:41-0500
_audit_creation_method            fapswitch 2.2
_symmetry_space_group_name_H-M    P1
_symmetry_Int_Tables_number       1
_space_group_crystal_system       triclinic
_cell_length_a                    18.230709
_cell_length_b                    18.267096
_cell_length_c                    18.555985
_cell_angle_alpha                 120.467447
_cell_angle_beta                  90.39031
_cell_angle_gamma                 118.824653
_cell_volume                      4400.40836223

loop_
_atom_site_label
_atom_site_type_symbol
_atom_type_description
_atom_site_fract_x
_atom_site_fract_y
_atom_site_fract_z
_atom_type_partial_charge
Br1   Br    Br    0.707909 0.270231 0.651416 -0.204688
Br2   Br    Br    0.392884 0.431151 0.167542 -0.293811
Br3   Br    Br    0.220264 0.358975 0.032741 -0.186728
Br4   Br    Br    0.957004 0.664173 0.783795 -0.227436
Br5   Br    Br    0.223104 0.563260 0.483203 -0.283722
Br6   Br    Br    0.790239 0.731032 0.852391 -0.242599
Br7   Br    Br    0.717301 0.576875 0.942912 -0.244587
Br8   Br    Br    0.384018 0.873925 0.242038 -0.178792
Br9   Br    Br    0.335290 0.092034 0.468739 -0.239477
Br10  Br    Br    0.833163 0.468079 0.379802 -0.311754
Br11  Br    Br    0.893549 0.697139 0.525387 -0.106090
Br12  Br    Br    0.536220 0.897646 0.712109 -0.185665
Br13  Br    Br    0.784834 0.427938 0.560964 -0.227511
Br14  Br    Br    0.655812 0.122620 0.756832 -0.191925
Br15  Br    Br    0.815651 0.847598 0.565237 -0.266773
C1    C     C_R   0.639626 0.780478 0.641310 0.906155
C2    C     C_R   0.150730 0.944872 0.196096 0.229652
C3    C     C_R   0.188331 0.891265 0.194026 -0.228621
C4    C     C_R   0.357006 0.220601 0.360223 0.982875
C5    C     C_R   0.277668 0.946254 0.239860 -0.016660
C6    C     C_3   0.320580 0.935660 0.299322 0.057924
C7    C     C_3   0.373134 0.052893 0.364823 0.476062
C8    C     C_R   0.785448 0.573784 0.338535 -0.002464
C9    C     C_R   0.694430 0.500212 0.303385 -0.103916
C10   C     C_R   0.654002 0.435164 0.211138 -0.205073
C11   C     C_R   0.704319 0.434617 0.154319 0.338630
C12   C     C_3   0.835266 0.567328 0.765521 0.230507
C13   C     C_R   0.799273 0.505793 0.192035 -0.180800
C14   C     C_R   0.835601 0.582136 0.283906 -0.122120
C15   C     C_3   0.917866 0.625251 0.349498 0.160290
C16   C     C_R   0.359210 0.500591 0.639367 0.952377
C17   C     C_3   0.858300 0.594724 0.400021 0.377083
C18   C     C_R   0.787695 0.947485 0.732835 -0.054328
C19   C     C_R   0.694905 0.893169 0.699693 -0.160518
C20   C     C_R   0.657911 0.951627 0.723069 0.264659
C21   C     C_R   0.712066 0.057045 0.762280 0.245368
C22   C     C_R   0.805033 0.109542 0.795948 -0.138544
C23   C     C_3   0.767768 0.595665 0.791836 0.176990
C24   C     C_R   0.841404 0.053119 0.780834 -0.169556
C25   C     C_3   0.914438 0.052287 0.743444 0.471850
C26   C     C_3   0.856101 0.932882 0.695366 0.406221
C27   C     C_R   0.278085 0.566423 0.338329 -0.109536
C28   C     C_R   0.639809 0.498863 0.360191 0.858864
C29   C     C_R   0.320510 0.516696 0.305379 -0.138969
C30   C     C_R   0.312195 0.468843 0.214552 0.234911
C31   C     C_R   0.247427 0.453878 0.157479 0.227731
C32   C     C_R   0.200752 0.500785 0.193389 -0.148374
C33   C     C_R   0.220343 0.558238 0.284694 -0.101657
C34   C     C_3   0.735856 0.530895 0.829163 0.172341
C35   C     C_3   0.188709 0.609140 0.356805 0.559068
C36   C     C_3   0.262902 0.627671 0.420662 0.435535
C37   C     C_R   0.301245 0.587725 0.753451 -0.094413
C38   C     C_R   0.298710 0.499074 0.690999 -0.175860
C39   C     C_R   0.239120 0.408172 0.683728 0.224725
C40   C     C_R   0.364329 0.505746 0.359745 0.887944
C41   C     C_R   0.207562 0.415785 0.754486 0.256771
C42   C     C_R   0.203722 0.502036 0.811321 -0.197163
C43   C     C_R   0.254002 0.588440 0.811716 -0.089202
C44   C     C_3   0.326721 0.696817 0.887976 0.473759
C45   C     C_3   0.665817 0.435913 0.737715 0.317910
C46   C     C_3   0.372031 0.700720 0.816945 0.469953
C47   C     C_R   0.859038 0.500974 0.139221 0.857504
C48   C     C_R   0.142413 0.500676 0.862196 0.930533
C49   C     C_R   0.138843 0.779395 0.139596 0.966588
C50   C     C_R   0.860680 0.220521 0.856120 0.877743
C51   C     C_R   0.140621 0.498179 0.140242 0.893139
C52   C     C_R   0.641289 0.500460 0.642085 0.946205
C53   C     C_R   0.858728 0.500327 0.858801 0.952287
C54   C     C_3   0.764746 0.471834 0.673835 0.184827
C55   C     C_3   0.732514 0.406734 0.710904 0.159026
C56   C     C_3   0.697629 0.500416 0.700298 -0.366415
C57   C     C_3   0.802553 0.501943 0.802266 -0.347346
C58   C     C_R   0.328208 0.051772 0.295938 -0.062574
C59   C     C_R   0.294887 0.108691 0.303706 -0.227727
C60   C     C_R   0.205553 0.055970 0.251019 0.327674
H1    H     H_    0.582625 0.381092 0.183052 0.233789
H2    H     H_    0.250296 0.876124 0.481916 0.409482
H3    H     H_    0.004636 0.364158 0.311218 0.417405
H4    H     H_    0.400362 0.901587 0.608632 0.420038
H5    H     H_    0.163846 0.309952 0.495591 0.361730
H6    H     H_    0.304223 0.463109 0.934470 0.394951
H7    H     H_    0.170303 0.776473 0.913784 0.390375
H8    H     H_    0.339601 0.655005 0.061495 0.391940
H9    H     H_    0.347919 0.743073 0.649498 0.434059
H10   H     H_    0.554814 0.664516 0.829482 0.393691
H11   H     H_    0.494808 0.259423 0.776389 0.415706
H12   H     H_    0.949994 0.583634 0.323609 0.204203
H13   H     H_    0.200132 0.283026 0.318759 0.382366
H14   H     H_    0.059790 0.832169 0.006129 0.362800
H15   H     H_    0.271991 0.894021 0.322356 0.180452
H16   H     H_    0.584821 0.146765 0.321815 0.409071
H17   H     H_    0.644427 0.440254 0.010129 0.378389
H18   H     H_    0.897173 0.797591 0.383774 0.378036
H19   H     H_    0.987932 0.235589 0.682831 0.380482
H20   H     H_    0.982299 0.164757 0.946770 0.360942
H21   H     H_    0.937554 0.925877 0.870606 0.431856
O1    O     O_3   0.500000 0.500000 0.500000 -0.585133
O2    O     O_R   0.945260 0.268310 0.884540 -0.601101
O3    O     O_R   0.117230 0.560570 0.177940 -0.569459
O4    O     O_R   0.676910 0.731570 0.616180 -0.600763
O5    O     O_R   0.821960 0.439250 0.882690 -0.574409
O6    O     O_R   0.117230 0.439140 0.056500 -0.609667
O7    O     O_R   0.943400 0.560680 0.882690 -0.619323
O8    O     O_R   0.115380 0.731510 0.054650 -0.606307
O9    O     O_R   0.823040 0.268340 0.883770 -0.596799
O10   O     O_R   0.945260 0.560610 0.176860 -0.593306
O11   O     O_R   0.116150 0.439180 0.884540 -0.554879
O12   O     O_R   0.384580 0.439270 0.616180 -0.568059
O13   O     O_R   0.384580 0.268400 0.445300 -0.572743
O14   O     O_R   0.383810 0.560730 0.615410 -0.574310
O15   O     O_R   0.554700 0.439300 0.323100 -0.638594
O16   O     O_R   0.382730 0.560770 0.443450 -0.591735
O17   O     O_R   0.678000 0.560660 0.617260 -0.580561
O18   O     O_R   0.382730 0.439340 0.322020 -0.592281
O19   O     O_R   0.556550 0.439230 0.617260 -0.579649
O20   O     O_2   0.530209 0.237698 0.456442 -0.290883
O21   O     O_2   0.529138 0.093361 0.435178 -0.157218
O22   O     O_3   0.519067 0.103532 0.300699 -0.481291
O23   O     O_R   0.676910 0.560700 0.445300 -0.598134
O24   O     O_2   0.669117 0.263708 0.002144 -0.187544
O25   O     O_2   0.545002 0.281096 0.022019 -0.219430
O26   O     O_3   0.665548 0.394552 0.984778 -0.439062
O27   O     O_2   0.067203 0.809961 0.476049 -0.121994
O28   O     O_2   0.024931 0.778686 0.332794 -0.230106
O29   O     O_3   0.935784 0.818313 0.437418 -0.428165
O30   O     O_2   0.977504 0.059782 0.613684 -0.132828
O31   O     O_2   0.836038 0.044249 0.611210 -0.269670
O32   O     O_3   0.979674 0.220956 0.727844 -0.522109
O33   O     O_2   0.077936 0.092099 0.791850 -0.113114
O34   O     O_R   0.554700 0.731600 0.615410 -0.559305
O35   O     O_2   0.067960 0.238524 0.862177 -0.144910
O36   O     O_3   0.006875 0.123621 0.916458 -0.471689
O37   O     O_2   0.823944 0.765524 0.685604 -0.187423
O38   O     O_2   0.978580 0.899976 0.731272 -0.158440
O39   O     O_3   0.893158 0.929476 0.844028 -0.474106
O40   O     O_2   0.267657 0.760619 0.332600 -0.296316
O41   O     O_2   0.113671 0.691743 0.325309 -0.205406
O42   O     O_3   0.230801 0.813812 0.479474 -0.425537
O43   O     O_2   0.050730 0.559880 0.418056 -0.194762
O44   O     O_2   0.012856 0.482951 0.258705 -0.323022
O45   O     O_R   0.383810 0.268430 0.323100 -0.585112
O46   O     O_3   0.066132 0.408255 0.315032 -0.531147
O47   O     O_2   0.435670 0.748765 0.520711 -0.244002
O48   O     O_2   0.395762 0.804299 0.442905 -0.207617
O49   O     O_3   0.348010 0.830710 0.581434 -0.460946
O50   O     O_2   0.261919 0.253600 0.597358 -0.115845
O51   O     O_2   0.109107 0.206343 0.572829 -0.196479
O52   O     O_3   0.202797 0.287153 0.497773 -0.520399
O53   O     O_2   0.148097 0.243926 0.744136 -0.104423
O54   O     O_2   0.307180 0.356939 0.782066 -0.189506
O55   O     O_3   0.239254 0.413786 0.903965 -0.453931
O56   O     O_3   0.999960 0.499910 0.999960 -0.581274
O57   O     O_2   0.278173 0.792912 0.026403 -0.240440
O58   O     O_2   0.354124 0.885066 0.963591 -0.181875
O59   O     O_3   0.188554 0.730372 0.876469 -0.465596
O60   O     O_2   0.406454 0.621528 0.929548 -0.251983
O61   O     O_2   0.459912 0.801781 0.039921 -0.139379
O62   O     O_3   0.308325 0.659148 0.021269 -0.559844
O63   O     O_2   0.264826 0.740668 0.760892 -0.196268
O64   O     O_2   0.424117 0.877220 0.834381 -0.150045
O65   O     O_3   0.368628 0.716696 0.673880 -0.451538
O66   O     O_2   0.521460 0.755456 0.771747 -0.271762
O67   O     O_R   0.823040 0.439210 0.054650 -0.566695
O68   O     O_2   0.542879 0.831585 0.928352 -0.170852
O69   O     O_3   0.492082 0.640752 0.823929 -0.523989
O70   O     O_2   0.506608 0.399889 0.750717 -0.201914
O71   O     O_2   0.508927 0.257281 0.628697 -0.173320
O72   O     O_3   0.557875 0.308716 0.787973 -0.444048
O73   O     O_2   0.109342 0.085606 0.170710 -0.170610
O74   O     O_2   0.097101 0.114145 0.312831 -0.182566
O75   O     O_3   0.235163 0.253898 0.314302 -0.564952
O76   O     O_2   0.984581 0.763267 0.103019 -0.330938
O77   O     O_2   0.989381 0.919545 0.180704 -0.111474
O78   O     O_R   0.115380 0.560640 0.883770 -0.587372
O79   O     O_3   0.033200 0.869868 0.039003 -0.434860
O80   O     O_R   0.116150 0.731480 0.176860 -0.595064
S1    S     S_3+6 0.491742 0.124974 0.392561 0.137323
S2    S     S_3+6 0.201988 0.284693 0.587130 0.146876
S3    S     S_3+6 0.224819 0.354274 0.795262 0.199564
S4    S     S_3+6 0.288034 0.780231 0.941267 0.152433
S5    S     S_3+6 0.379758 0.695771 0.970824 0.121103
S6    S     S_3+6 0.356496 0.763061 0.773655 0.173736
S7    S     S_3+6 0.485418 0.735048 0.836620 0.114690
S8    S     S_3+6 0.555084 0.348086 0.724056 0.170991
S9    S     S_3+6 0.159716 0.127112 0.261283 0.135106
S10   S     S_3+6 0.036315 0.872200 0.130757 0.142201
S11   S     S_3+6 0.643358 0.339144 0.038683 0.130145
S12   S     S_3+6 0.990304 0.761339 0.399755 0.173808
S13   S     S_3+6 0.925985 0.092689 0.670125 0.125106
S14   S     S_3+6 0.019813 0.128142 0.828940 0.191009
S15   S     S_3+6 0.889617 0.879687 0.738091 0.161846
S16   S     S_3+6 0.200452 0.720740 0.371897 0.133845
S17   S     S_3+6 0.075717 0.514545 0.337163 0.079011
S18   S     S_3+6 0.363962 0.755625 0.491329 0.115256
Zn1   Zn    Zn3+2 0.457170 0.413230 0.543930 1.169066
Zn2   Zn    Zn3+2 0.456070 0.586770 0.542830 1.135769
Zn3   Zn    Zn3+2 0.456070 0.413270 0.369320 1.093183
Zn4   Zn    Zn3+2 0.630690 0.586730 0.543930 1.110948
Zn5   Zn    Zn3+2 0.042790 0.586680 0.956030 1.098801
Zn6   Zn    Zn3+2 0.043880 0.586640 0.130630 1.141389
Zn7   Zn    Zn3+2 0.043880 0.413140 0.957130 1.120077
Zn8   Zn    Zn3+2 0.869270 0.413190 0.956030 1.136277

loop_
_geom_bond_atom_site_label_1
_geom_bond_atom_site_label_2
_ccdc_geom_bond_type
C45   S8    S    
O67   Zn8   S    
O58   S4    D    
C40   O16   A    
O23   Zn4   S    
C58   C59   A    
C51   O6    A    
O2    Zn7   S    
C20   C21   A    
C29   C40   S    
C53   O7    A    
O9    Zn8   S    
H4    O49   S    
C23   C34   S    
C30   C31   A    
C37   C38   A    
O56   Zn6   S    
O78   Zn5   S    
C18   C24   A    
C34   C45   S    
C28   O15   A    
O40   S16   D    
O29   S12   S    
C8    C14   A    
O1    Zn2   S    
O10   Zn6   S    
C13   C14   A    
O6    Zn7   S    
C50   O2    A    
O11   Zn7   S    
O34   Zn2   S    
C37   C46   S    
H3    O46   S    
Br14  C21   S    
C19   C20   A    
C35   S17   S    
Br9   C7    S    
O48   S18   D    
C12   C23   S    
O53   S3    D    
C27   C33   A    
C41   C42   A    
O50   S2    D    
C44   S5    S    
O32   S13   S    
C16   O12   A    
O64   S6    D    
O65   S6    S    
C54   C56   S    
C52   O19   A    
O16   Zn2   S    
C1    C19   S    
C23   C56   S    
C16   O14   A    
C25   S13   S    
C47   O67   A    
O76   S10   D    
O72   S8    S    
O18   Zn3   S    
C22   C50   S    
O3    Zn6   S    
C8    C9    A    
Br6   C23   S    
C49   O80   A    
C1    O34   A    
O44   S17   D    
C32   C51   S    
C52   C56   S    
H2    O42   S    
C12   C54   S    
C53   C57   S    
C27   C36   S    
C33   C35   S    
O57   S4    D    
C4    O45   A    
H13   O75   S    
C6    C7    S    
O56   Zn8   S    
C60   S9    S    
C27   C29   A    
O80   Zn6   S    
C7    S1    S    
C50   O9    A    
O21   S1    D    
C42   C48   S    
H21   O39   S    
C42   C43   A    
C6    H15   S    
C4    O13   A    
Br2   C30   S    
C39   C41   A    
O77   S10   D    
C46   S7    S    
C44   C46   S    
C59   C60   A    
C26   S15   S    
O69   S7    S    
O1    Zn3   S    
H11   O72   S    
C53   O5    A    
Br7   C34   S    
C24   C25   S    
O61   S5    D    
O75   S9    S    
C1    O4    A    
O7    Zn5   S    
C45   C56   S    
C10   C11   A    
C38   C39   A    
O47   S18   D    
C34   C57   S    
C16   C38   S    
C39   S2    S    
O56   Zn5   S    
O12   Zn1   S    
C15   S12   S    
C51   O3    A    
O30   S13   D    
C14   C15   S    
H17   O26   S    
O25   S11   D    
O41   S16   D    
C11   S11   S    
O55   S3    S    
C32   C33   A    
C45   C55   S    
C2    S10   S    
O17   Zn4   S    
O33   S14   D    
C35   C36   S    
C46   S6    S    
H16   O22   S    
O70   S8    D    
O31   S13   D    
C9    C10   A    
Br12  C20   S    
O39   S15   S    
O49   S18   S    
C37   C43   A    
H7    O59   S    
C25   C26   S    
Br11  C17   S    
O14   Zn2   S    
H20   O36   S    
O8    Zn5   S    
O56   Zn7   S    
H14   O79   S    
C48   O11   A    
O24   S11   D    
O36   S14   S    
Br4   C12   S    
C35   S16   S    
O59   S4    S    
O37   S15   D    
C48   O78   A    
O28   S12   D    
O35   S14   D    
C49   O8    A    
O19   Zn1   S    
C31   C32   A    
C44   S4    S    
O52   S2    S    
O1    Zn4   S    
C4    C59   S    
O42   S16   S    
C29   C30   A    
C36   S18   S    
Br8   C6    S    
O60   S5    D    
O45   Zn3   S    
C13   C47   S    
C47   O10   A    
C40   O18   A    
H19   O32   S    
Br3   C31   S    
C11   C13   A    
Br1   C55   S    
C2    C3    A    
O5    Zn8   S    
C10   H1    S    
C18   C26   S    
C8    C17   S    
O1    Zn1   S    
C43   C44   S    
H10   O69   S    
O66   S7    D    
C22   C24   A    
O68   S7    D    
H6    O55   S    
O15   Zn3   S    
O79   S10   S    
C15   C17   S    
O51   S2    D    
C3    C49   S    
O26   S11   S    
H8    O62   S    
Br13  C54   S    
O74   S9    D    
O46   S17   S    
C18   C19   A    
C5    C58   A    
O13   Zn1   S    
C3    C5    A    
O63   S6    D    
C52   O17   A    
C54   C55   S    
O62   S5    S    
H18   O29   S    
C12   C57   S    
Br15  C26   S    
O73   S9    D    
O22   S1    S    
Br10  C17   S    
H5    O52   S    
C25   S14   S    
C5    C6    S    
O38   S15   D    
C21   C22   A    
O27   S12   D    
C2    C60   A    
C9    C28   S    
Br5   C36   S    
C55   C57   S    
C7    C58   S    
C15   H12   S    
O20   S1    D    
O71   S8    D    
H9    O65   S    
O43   S17   D    
C28   O23   A    
O54   S3    D    
C41   S3    S    
O4    Zn4   S    
