data_mof_unit_13649.cif
_audit_creation_date              2012-12-10T20:51:20-0500
_audit_creation_method            fapswitch 2.2
_symmetry_space_group_name_H-M    P1
_symmetry_Int_Tables_number       1
_space_group_crystal_system       triclinic
_cell_length_a                    15.867549
_cell_length_b                    8.923854
_cell_length_c                    8.111864
_cell_angle_alpha                 89.910005
_cell_angle_beta                  89.997614
_cell_angle_gamma                 90.011495
_cell_volume                      1148.63599166

loop_
_atom_site_label
_atom_site_type_symbol
_atom_type_description
_atom_site_fract_x
_atom_site_fract_y
_atom_site_fract_z
_atom_type_partial_charge
C1    C     C_R   0.499938 0.218021 0.500081 0.935180
C2    C     C_R   0.086875 0.501247 0.499528 -0.243497
C3    C     C_1   0.824007 0.501551 0.499601 0.262986
C4    C     C_1   0.176016 0.500650 0.499817 0.278419
C5    C     C_1   0.250774 0.500248 0.499970 -0.049924
C6    C     C_1   0.749243 0.500829 0.499914 -0.050784
C7    C     C_1   0.499886 0.065213 0.500117 -0.158742
C8    C     C_1   0.499886 0.934787 0.499884 -0.157681
C9    C     C_R   0.499939 0.781979 0.499919 0.938775
C10   C     C_R   0.338945 0.499955 0.500001 0.879186
C11   C     C_R   0.661061 0.500075 0.499992 0.881038
C12   C     C_R   0.956330 0.598514 0.608156 0.307214
C13   C     C_R   0.043685 0.390109 0.409517 0.299333
C14   C     C_R   0.044001 0.613066 0.589106 0.305988
C15   C     C_R   0.956120 0.405693 0.390267 0.306732
C16   C     C_R   0.913158 0.502121 0.499252 -0.247588
H1    H     H_    0.216816 0.884571 0.610963 0.384857
H2    H     H_    0.788452 0.353413 0.083433 0.390672
H3    H     H_    0.836066 0.907926 0.785492 0.394587
H4    H     H_    0.215076 0.115730 0.388150 0.386109
N1    N     N_1   0.500000 0.500000 0.073640 -0.011249
N2    N     N_1   0.500000 0.500000 0.926360 -0.011014
O1    O     O_R   0.500000 0.285350 0.636850 -0.614445
O2    O     O_2   0.135437 0.728191 0.836713 -0.241237
O3    O     O_3   0.180721 0.816871 0.544892 -0.562620
O4    O     O_2   0.956532 0.278234 0.085667 -0.170881
O5    O     O_2   0.864839 0.167135 0.296868 -0.244167
O6    O     O_3   0.819974 0.418204 0.160980 -0.527050
O7    O     O_2   0.827242 0.603259 0.827603 -0.292586
O8    O     O_2   0.956999 0.726069 0.912433 -0.162106
O9    O     O_3   0.864003 0.857994 0.691201 -0.488060
O10   O     O_2   0.042945 0.098536 0.310914 -0.133151
O11   O     O_2   0.134804 0.273987 0.162049 -0.239726
O12   O     O_R   0.500000 0.714650 0.363150 -0.611030
O13   O     O_3   0.179481 0.184490 0.453904 -0.562422
O14   O     O_R   0.500000 0.714650 0.636850 -0.612109
O15   O     O_R   0.500000 0.285350 0.363150 -0.613755
O16   O     O_R   0.378020 0.500000 0.636840 -0.604693
O17   O     O_R   0.621980 0.500000 0.363160 -0.599553
O18   O     O_R   0.621980 0.500000 0.636840 -0.602942
O19   O     O_R   0.378020 0.500000 0.363160 -0.604700
O20   O     O_2   0.044502 0.904796 0.687482 -0.135560
S1    S     S_3+6 0.100554 0.769984 0.670595 0.136009
S2    S     S_3+6 0.899956 0.311269 0.229679 0.119715
S3    S     S_3+6 0.900507 0.695236 0.767687 0.125368
S4    S     S_3+6 0.099616 0.232551 0.328040 0.135339
Zn1   Zn    Zn3+2 0.500000 0.500000 0.682780 1.042311
Zn2   Zn    Zn3+2 0.500000 0.500000 0.317220 1.043455

loop_
_geom_bond_atom_site_label_1
_geom_bond_atom_site_label_2
_ccdc_geom_bond_type
C8    C9    S    
O18   Zn1   S    
C2    C4    S    
C12   S3    S    
C9    O14   A    
O8    S3    D    
C1    O15   A    
C10   O16   A    
N1    Zn2   S    
H3    O9    S    
O3    S1    S    
N2    Zn1   S    
O4    S2    D    
C5    C10   S    
N1    N2    T    
O15   Zn2   S    
C11   O17   A    
O11   S4    D    
O13   S4    S    
O16   Zn1   S    
C9    O12   A    
C10   O19   A    
O19   Zn2   S    
C12   C14   A    
C15   S2    S    
C1    O1    A    
C13   C15   A    
C11   O18   A    
C2    C14   A    
O1    Zn1   S    
O20   S1    D    
C15   C16   A    
C7    C8    T    
H2    O6    S    
O14   Zn1   S    
C14   S1    S    
O9    S3    S    
C3    C6    T    
C6    C11   S    
O2    S1    D    
C2    C13   A    
H1    O3    S    
C13   S4    S    
O17   Zn2   S    
C1    C7    S    
H4    O13   S    
O10   S4    D    
O5    S2    D    
O6    S2    S    
C3    C16   S    
C12   C16   A    
O7    S3    D    
C4    C5    T    
O12   Zn2   S    
