data_mof_unit_53457.cif
_audit_creation_date              2012-12-11T14:19:22-0500
_audit_creation_method            fapswitch 2.2
_symmetry_space_group_name_H-M    P1
_symmetry_Int_Tables_number       1
_space_group_crystal_system       triclinic
_cell_length_a                    19.436308
_cell_length_b                    7.240823
_cell_length_c                    17.732459
_cell_angle_alpha                 90.0
_cell_angle_beta                  107.810223
_cell_angle_gamma                 89.999957
_cell_volume                      2375.97438329

loop_
_atom_site_label
_atom_site_type_symbol
_atom_type_description
_atom_site_fract_x
_atom_site_fract_y
_atom_site_fract_z
_atom_type_partial_charge
O1    O     O_R   0.414820 0.494320 0.416790 -0.542704
O2    O     O_R   0.585180 0.994320 0.583210 -0.542703
O3    O     O_R   0.560270 0.819500 0.430140 -0.543418
O4    O     O_R   0.439730 0.319500 0.569860 -0.543417
C1    C     C_R   0.582329 0.655291 0.415956 0.732810
C2    C     C_R   0.417672 0.155291 0.584044 0.732814
O5    O     O_R   0.413840 0.823740 0.407440 -0.540946
O6    O     O_R   0.586160 0.323740 0.592560 -0.540947
O7    O     O_R   0.437710 0.998590 0.560350 -0.511411
O8    O     O_R   0.562290 0.498590 0.439650 -0.511409
C3    C     C_R   0.387540 0.654945 0.385307 0.739657
C4    C     C_R   0.612460 0.154945 0.614694 0.739641
O9    O     O_3   0.508000 0.662290 0.550200 -0.378793
O10   O     O_3   0.492000 0.162290 0.449800 -0.378793
V1    V     V_3+5 0.498520 0.935380 0.490690 1.457993
V2    V     V_3+5 0.501480 0.435380 0.509310 1.457992
C5    C     C_2   0.785955 0.272077 0.787567 -0.129733
C6    C     C_2   0.214045 0.772077 0.212434 -0.129733
C7    C     C_2   0.820570 0.113507 0.816820 -0.309177
C8    C     C_2   0.179430 0.613509 0.183180 -0.309176
H1    H     H_    0.800082 0.981676 0.790666 0.128221
H2    H     H_    0.199918 0.481677 0.209334 0.128221
C9    C     C_2   0.718167 0.284793 0.719381 -0.153720
C10   C     C_2   0.281832 0.784793 0.280620 -0.153722
C11   C     C_2   0.679379 0.138570 0.682504 -0.314063
C12   C     C_2   0.320621 0.638568 0.317497 -0.314055
H3    H     H_    0.699555 0.423059 0.699503 0.134999
H4    H     H_    0.300445 0.923058 0.300499 0.134998
H5    H     H_    0.696619 0.999475 0.701619 0.132419
H6    H     H_    0.303380 0.499474 0.298382 0.132416
C13   C     C_R   0.318508 0.993109 0.624077 0.446867
C14   C     C_R   0.681490 0.493099 0.375918 0.446851
C15   C     C_R   0.365845 0.145896 0.630917 -0.204705
C16   C     C_R   0.634158 0.645898 0.369086 -0.204706
C17   C     C_R   0.362660 0.292434 0.681553 -0.233828
C18   C     C_R   0.637350 0.792449 0.318460 -0.233819
C19   C     C_R   0.315022 0.287751 0.726831 0.137380
C20   C     C_R   0.684989 0.787767 0.273181 0.137390
C21   C     C_R   0.269901 0.132733 0.722809 -0.091764
C22   C     C_R   0.730102 0.632736 0.277195 -0.091757
C23   C     C_R   0.272196 0.981933 0.672510 -0.108084
C24   C     C_R   0.727802 0.481923 0.327486 -0.108096
C25   C     C_R   0.312386 0.436107 0.776846 -0.095589
C26   C     C_R   0.687631 0.936134 0.223173 -0.095553
C27   C     C_R   0.264735 0.433285 0.821910 -0.213945
C28   C     C_R   0.735279 0.933307 0.178107 -0.213964
C29   C     C_R   0.219655 0.280662 0.818830 0.103004
C30   C     C_R   0.780352 0.780673 0.181178 0.103010
C31   C     C_R   0.222673 0.129079 0.769696 0.076940
C32   C     C_R   0.777329 0.629081 0.230306 0.076948
C33   C     C_R   0.179064 0.973384 0.768287 0.037207
C34   C     C_R   0.820931 0.473376 0.231707 0.037193
C35   C     C_R   0.182578 0.822634 0.720379 -0.315220
C36   C     C_R   0.817412 0.322616 0.279608 -0.315217
C37   C     C_R   0.227668 0.825221 0.671190 0.490063
C38   C     C_R   0.772327 0.325203 0.328801 0.490057
C39   C     C_R   0.172303 0.276217 0.864869 -0.221455
C40   C     C_R   0.827701 0.776224 0.135137 -0.221452
C41   C     C_R   0.129004 0.120078 0.864194 -0.080529
C42   C     C_R   0.870995 0.620078 0.135806 -0.080527
C43   C     C_R   0.133125 0.968972 0.815854 -0.197101
C44   C     C_R   0.866870 0.468965 0.184140 -0.197104
H7    H     H_    0.397876 0.410848 0.686213 0.159929
H8    H     H_    0.602140 0.910871 0.313805 0.159941
H9    H     H_    0.150893 0.700986 0.722607 0.138246
H10   H     H_    0.849093 0.200957 0.277379 0.138275
O11   O     O_R   0.937810 0.773680 0.060480 -0.537380
O12   O     O_R   0.062190 0.273680 0.939520 -0.537380
O13   O     O_R   0.086190 0.439740 0.092580 -0.543539
O14   O     O_R   0.913810 0.939740 0.907420 -0.543539
C45   C     C_R   0.112429 0.608327 0.114858 0.731623
C46   C     C_R   0.887571 0.108327 0.885143 0.731622
O15   O     O_R   0.939760 0.444210 0.069890 -0.543788
O16   O     O_R   0.060240 0.944210 0.930110 -0.543789
O17   O     O_R   0.914790 0.269640 0.916760 -0.534691
O18   O     O_R   0.085210 0.769640 0.083240 -0.534690
C47   C     C_R   0.919408 0.612520 0.085246 0.696353
C48   C     C_R   0.080591 0.112520 0.914754 0.696354
O19   O     O_3   0.992050 0.601530 0.949880 -0.379124
O20   O     O_3   0.007950 0.101530 0.050120 -0.379124
V3    V     V_3+5 0.001480 0.328340 0.009300 1.391281
V4    V     V_3+5 0.998520 0.828340 0.990700 1.391282
H11   H     H_    0.808287 0.402529 0.814273 0.140856
H12   H     H_    0.191714 0.902531 0.185728 0.140856
H13   H     H_    0.099974 0.847874 0.814562 0.130315
H14   H     H_    0.900016 0.347861 0.185427 0.130319
O21   O     O_3   0.235270 0.669442 0.628378 -0.520346
C49   C     C_3   0.167968 0.589147 0.587591 -0.228805
H15   H     H_    0.174616 0.507426 0.537365 0.156278
H16   H     H_    0.125293 0.694344 0.562276 0.104803
H17   H     H_    0.150894 0.491620 0.626808 0.137359
O22   O     O_3   0.764733 0.169419 0.371615 -0.520351
C50   C     C_3   0.832045 0.089214 0.412435 -0.228838
H18   H     H_    0.825408 0.007619 0.462698 0.156272
H19   H     H_    0.874712 0.194458 0.437705 0.104782
H20   H     H_    0.849128 0.991590 0.373257 0.137384
O23   O     O_3   0.317998 0.854313 0.570223 -0.518514
C51   C     C_3   0.268382 0.902814 0.496448 -0.142903
H21   H     H_    0.286840 0.026794 0.470997 0.088034
H22   H     H_    0.213198 0.926401 0.501065 0.108912
H23   H     H_    0.264709 0.786721 0.454609 0.148648
O24   O     O_3   0.681991 0.354289 0.429764 -0.518522
C52   C     C_3   0.731608 0.402761 0.503542 -0.142896
H24   H     H_    0.713165 0.526767 0.528992 0.088022
H25   H     H_    0.786797 0.426288 0.498931 0.108938
H26   H     H_    0.735260 0.286675 0.545379 0.148633
H27   H     H_    0.346813 0.555663 0.780544 0.125847
H28   H     H_    0.653211 0.055702 0.219485 0.125854
H29   H     H_    0.263364 0.550441 0.859455 0.129512
H30   H     H_    0.736654 0.050469 0.140566 0.129513
H31   H     H_    0.170353 0.392916 0.902468 0.129708
H32   H     H_    0.829654 0.892928 0.097541 0.129707

loop_
_geom_bond_atom_site_label_1
_geom_bond_atom_site_label_2
_ccdc_geom_bond_type
O21   C49   S    
O4    V2    S    
C50   H18   S    
C35   C37   A    
O11   C47   A    
O2    C4    A    
C2    O7    A    
O23   C51   S    
C29   C31   A    
O5    C3    A    
C44   H14   S    
C5    C9    S    
C6    C10   S    
O12   V3    S    
C17   C19   A    
C10   C12   D    
C45   O18   A    
C27   H29   S    
C39   C41   A    
C40   C42   A    
C42   C44   A    
C27   C29   A    
O13   C45   A    
C23   C37   A    
C24   C38   A    
C26   C28   A    
C31   C33   A    
O1    C3    A    
C6    H12   S    
C13   C15   A    
C8    C45   S    
C9    H3    S    
C35   H9    S    
C16   C18   A    
C30   C32   A    
O6    V2    S    
C11   H5    S    
C7    C46   S    
O16   V4    S    
C46   O17   A    
C41   C48   S    
O15   V3    S    
C34   C36   A    
C36   C38   A    
C26   H28   S    
O12   C48   A    
C28   C30   A    
C42   C47   S    
C41   C43   A    
O4    C2    A    
O18   V4    S    
O8    V2    S    
O17   V3    S    
O5    V1    S    
C3    C12   S    
C40   H32   S    
C5    H11   S    
C14   C16   A    
C19   C25   A    
C20   C26   A    
C29   C39   A    
C32   C34   A    
C49   H17   S    
O6    C4    A    
C1    C16   S    
C52   H25   S    
O1    V2    S    
C25   H27   S    
O2    V1    S    
C25   C27   A    
C43   H13   S    
C21   C31   A    
C49   H16   S    
C12   H6    S    
C50   H20   S    
C51   H22   S    
C28   H30   S    
C14   O24   S    
C5    C7    D    
O3    V1    S    
C14   C24   A    
C13   C23   A    
C7    H1    S    
C10   H4    S    
C8    H2    S    
O20   V3    S    
O3    C1    A    
O19   V4    S    
C17   H7    S    
C30   C40   A    
C36   H10   S    
C51   H23   S    
C2    C15   S    
C4    C11   S    
C18   C20   A    
O7    V1    S    
C1    O8    A    
C19   C21   A    
C34   C44   A    
C20   C22   A    
C33   C43   A    
C39   H31   S    
C22   C32   A    
C22   C24   A    
O22   C50   S    
C15   C17   A    
C52   H26   S    
C6    C8    D    
C13   O23   S    
C37   O21   S    
O24   C52   S    
O14   V4    S    
O13   V3    S    
C38   O22   S    
C9    C11   D    
C49   H15   S    
C21   C23   A    
O11   V4    S    
C50   H19   S    
C51   H21   S    
O16   C48   A    
O9    V2    S    
C52   H24   S    
O15   C47   A    
O10   V1    S    
O14   C46   A    
C33   C35   A    
C18   H8    S    
