data_mof_unit_11641.cif
_audit_creation_date              2012-12-10T19:25:54-0500
_audit_creation_method            fapswitch 2.2
_symmetry_space_group_name_H-M    P1
_symmetry_Int_Tables_number       1
_space_group_crystal_system       triclinic
_cell_length_a                    9.762077
_cell_length_b                    10.502645
_cell_length_c                    16.672269
_cell_angle_alpha                 89.728227
_cell_angle_beta                  85.108937
_cell_angle_gamma                 90.499573
_cell_volume                      1703.05316864

loop_
_atom_site_label
_atom_site_type_symbol
_atom_type_description
_atom_site_fract_x
_atom_site_fract_y
_atom_site_fract_z
_atom_type_partial_charge
C1    C     C_R   0.500880 0.742255 0.497776 0.901030
C2    C     C_3   0.628087 0.960343 0.509979 -0.301842
C3    C     C_3   0.948992 0.600009 0.533123 0.684109
C4    C     C_3   0.050993 0.399969 0.466878 0.678220
C5    C     C_3   0.055624 0.597924 0.460588 -0.251203
C6    C     C_3   0.944295 0.402004 0.539424 -0.251592
C7    C     C_3   0.038077 0.503878 0.573201 -0.247356
C8    C     C_3   0.961897 0.496107 0.426810 -0.247776
C9    C     C_R   0.481102 0.508972 0.652764 0.911901
C10   C     C_R   0.519098 0.498499 0.346740 0.885041
C11   C     C_R   0.471342 0.553153 0.735552 -0.096988
C12   C     C_R   0.499371 0.257711 0.500069 0.951446
C13   C     C_R   0.530074 0.497525 0.259369 -0.119516
C14   C     C_R   0.583439 0.619553 0.763165 -0.302415
C15   C     C_R   0.415044 0.462956 0.219306 -0.248313
C16   C     C_R   0.577458 0.664854 0.841469 0.421204
C17   C     C_R   0.419384 0.470663 0.135956 0.482891
C18   C     C_R   0.458215 0.640200 0.893039 0.005214
C19   C     C_R   0.540362 0.517330 0.092968 -0.018034
C20   C     C_R   0.341732 0.585262 0.863249 -0.117534
C21   C     C_R   0.657703 0.544532 0.132477 -0.142998
C22   C     C_R   0.348115 0.541803 0.784497 -0.194994
C23   C     C_3   0.466717 0.960928 0.426039 0.615993
C24   C     C_R   0.652827 0.534536 0.215632 -0.179066
C25   C     C_2   0.466050 0.634223 0.979479 -0.059964
C26   C     C_2   0.545560 0.544304 0.007572 -0.073828
C27   C     C_3   0.984784 0.795529 0.589857 -0.384468
C28   C     C_3   0.015510 0.205386 0.408792 -0.333561
C29   C     C_3   0.318543 0.853959 0.347139 -0.267703
C30   C     C_3   0.589906 0.990681 0.695479 -0.184760
C31   C     C_3   0.532624 0.038881 0.568140 0.589647
C32   C     C_3   0.592092 0.045784 0.438911 -0.268697
C33   C     C_3   0.406771 0.955084 0.555404 -0.338550
C34   C     C_3   0.498199 0.123024 0.498363 -0.111008
C35   C     C_3   0.501959 0.876984 0.495960 -0.142751
C36   C     C_3   0.371935 0.041100 0.483924 -0.287623
H1    H     H_    0.676260 0.635441 0.723880 0.203280
H2    H     H_    0.751254 0.578384 0.099154 0.208598
H3    H     H_    0.665558 0.086980 0.390994 0.168941
H4    H     H_    0.332323 0.914156 0.602901 0.166697
H5    H     H_    0.268772 0.077808 0.473286 0.201298
H6    H     H_    0.731950 0.925318 0.520644 0.198938
H7    H     H_    0.107126 0.679658 0.427873 0.134165
H8    H     H_    0.892208 0.320261 0.572073 0.169617
H9    H     H_    0.932595 0.875873 0.622361 0.212344
H10   H     H_    0.042247 0.835488 0.534842 0.163873
H11   H     H_    0.056885 0.753049 0.630523 0.173081
H12   H     H_    0.321287 0.430823 0.253091 0.221124
H13   H     H_    0.945125 0.248721 0.367435 0.175461
H14   H     H_    0.956140 0.165347 0.463148 0.155646
H15   H     H_    0.068095 0.125004 0.376506 0.202048
H16   H     H_    0.096745 0.298143 0.120213 0.393761
H17   H     H_    0.875244 0.755072 0.772246 0.362848
H18   H     H_    0.234467 0.892236 0.389214 0.128301
H19   H     H_    0.336152 0.752216 0.360121 0.186045
H20   H     H_    0.282974 0.859052 0.285787 0.208214
H21   H     H_    0.675256 0.928749 0.671085 0.179566
H22   H     H_    0.495005 0.932979 0.710378 0.151462
H23   H     H_    0.075107 0.508497 0.634266 0.155287
H24   H     H_    0.620385 0.032260 0.752418 0.236119
H25   H     H_    0.924868 0.491755 0.365738 0.158760
H26   H     H_    0.743013 0.560383 0.245754 0.172695
H27   H     H_    0.259063 0.494961 0.763002 0.172056
H28   H     H_    0.614499 0.488550 0.967192 0.188282
H29   H     H_    0.393975 0.687356 0.019414 0.186029
H30   H     H_    0.249886 0.566221 0.902826 0.222926
N1    N     N_3   0.136700 0.499970 0.500060 -0.115355
N2    N     N_3   0.863300 0.500030 0.499940 -0.119045
O1    O     O_R   0.383390 0.686040 0.500000 -0.648610
O2    O     O_3   0.115974 0.293177 0.430076 -0.587755
O3    O     O_2   0.185596 0.533510 0.073728 -0.329954
O4    O     O_2   0.315862 0.356976 0.009649 -0.287035
O5    O     O_3   0.180119 0.315930 0.148380 -0.546438
O6    O     O_2   0.677086 0.842786 0.936673 -0.238461
O7    O     O_2   0.814615 0.651509 0.910878 -0.312972
O8    O     O_3   0.811055 0.819662 0.796338 -0.567274
O9    O     O_3   0.442834 0.923071 0.347197 -0.596844
O10   O     O_3   0.566391 0.090715 0.641888 -0.625640
O11   O     O_R   0.616610 0.313960 0.500000 -0.623245
O12   O     O_R   0.616650 0.686050 0.499970 -0.574499
O13   O     O_R   0.383350 0.313950 0.500030 -0.572999
O14   O     O_R   0.369590 0.500020 0.615820 -0.628765
O15   O     O_R   0.630410 0.499980 0.384180 -0.628658
O16   O     O_R   0.602840 0.500020 0.615790 -0.592281
O17   O     O_R   0.397160 0.499980 0.384210 -0.610109
O18   O     O_3   0.884155 0.706869 0.569949 -0.604706
S1    S     S_3+6 0.272869 0.419987 0.088462 0.007885
S2    S     S_3+6 0.722445 0.745565 0.874330 0.016585
Zn1   Zn    Zn3+2 0.344250 0.499990 0.500020 0.981043
Zn2   Zn    Zn3+2 0.655750 0.500010 0.499980 0.993510

loop_
_geom_bond_atom_site_label_1
_geom_bond_atom_site_label_2
_ccdc_geom_bond_type
C2    C35   S    
C12   O11   A    
C10   O17   A    
C3    N2    S    
C5    N1    S    
C4    O2    S    
O14   Zn1   S    
C20   H30   S    
C19   C21   A    
C3    C7    S    
C28   H15   S    
C29   H18   S    
C30   H21   S    
C10   O15   A    
N1    Zn1   S    
C33   C36   S    
C2    C32   S    
C32   H3    S    
C19   C26   S    
C26   H28   S    
O5    S1    S    
O11   Zn2   S    
C33   C35   S    
C22   H27   S    
C28   H14   S    
C21   H2    S    
C30   H24   S    
N2    Zn2   S    
C31   C33   S    
O8    S2    S    
C18   C20   A    
C4    C8    S    
C9    O14   A    
O13   Zn1   S    
C27   H9    S    
C6    N2    S    
C5    H7    S    
C6    H8    S    
C3    O18   S    
C36   H5    S    
C18   C25   S    
O16   Zn2   S    
C15   H12   S    
O1    Zn1   S    
C7    H23   S    
C33   H4    S    
C25   H29   S    
C4    C6    S    
H16   O5    S    
O17   Zn1   S    
C17   C19   A    
C29   H19   S    
C25   C26   D    
C1    O1    A    
C13   C24   A    
C2    C31   S    
C32   C34   S    
C27   O18   S    
C5    C8    S    
C28   H13   S    
C31   C34   S    
C23   O9    S    
C9    C11   S    
O3    S1    D    
C27   H10   S    
C20   C22   A    
C8    N2    S    
C23   C35   S    
C13   C15   A    
C14   C16   A    
H17   O8    S    
C12   C34   S    
O4    S1    D    
C1    C35   S    
C31   O10   S    
C27   H11   S    
C15   C17   A    
O15   Zn2   S    
C24   H26   S    
C17   S1    S    
C28   O2    S    
C3    C5    S    
C10   C13   S    
C4    N1    S    
C6    C7    S    
C29   H20   S    
C8    H25   S    
C11   C22   A    
C23   C32   S    
C14   H1    S    
C2    H6    S    
C30   H22   S    
C11   C14   A    
C12   O13   A    
C34   C36   S    
O12   Zn2   S    
C9    O16   A    
C7    N1    S    
C30   O10   S    
O7    S2    D    
C29   O9    S    
C16   C18   A    
C23   C36   S    
C21   C24   A    
C16   S2    S    
C1    O12   A    
O6    S2    D    
