data_mof_unit_63309.cif
_audit_creation_date              2012-12-10T17:59:03-0500
_audit_creation_method            fapswitch 2.2
_symmetry_space_group_name_H-M    P1
_symmetry_Int_Tables_number       1
_space_group_crystal_system       triclinic
_cell_length_a                    18.85815
_cell_length_b                    18.72822
_cell_length_c                    18.751567
_cell_angle_alpha                 109.088785
_cell_angle_beta                  109.855433
_cell_angle_gamma                 109.383924
_cell_volume                      5103.33330369

loop_
_atom_site_label
_atom_site_type_symbol
_atom_type_description
_atom_site_fract_x
_atom_site_fract_y
_atom_site_fract_z
_atom_type_partial_charge
C1    C     C_R   0.618252 0.618843 0.499882 0.845259
C2    C     C_3   0.191021 0.498872 0.272177 0.112010
C3    C     C_3   0.287602 0.571192 0.328275 -0.198668
C4    C     C_3   0.312879 0.499398 0.312075 -0.172342
C5    C     C_R   0.770394 0.708463 0.545263 0.026690
C6    C     C_R   0.683893 0.686983 0.500933 -0.120814
C7    C     C_R   0.664203 0.740504 0.469121 0.257585
C8    C     C_R   0.729538 0.805723 0.470667 -0.223731
C9    C     C_R   0.814706 0.819029 0.505457 -0.152768
C10   C     C_R   0.834793 0.773451 0.547661 0.149054
C11   C     C_3   0.881680 0.723571 0.538540 -0.430602
C12   C     C_R   0.380787 0.499976 0.380385 0.903780
C13   C     C_3   0.810775 0.652181 0.536151 -0.476677
C14   C     C_R   0.684534 0.429216 0.686674 0.093891
C15   C     C_R   0.690944 0.505481 0.687384 -0.117182
C16   C     C_R   0.767377 0.585419 0.757179 0.129498
C17   C     C_R   0.831203 0.583557 0.822794 -0.229527
C18   C     C_R   0.819553 0.504051 0.819888 -0.120727
C19   C     C_R   0.744934 0.428803 0.750448 0.117815
C20   C     C_3   0.700313 0.332328 0.709093 -0.431559
C21   C     C_3   0.630399 0.332308 0.636643 -0.476963
C22   C     C_R   0.303879 0.234118 0.475356 0.034918
C23   C     C_R   0.378549 0.381032 0.497176 0.801755
C24   C     C_R   0.305855 0.312998 0.490020 -0.102848
C25   C     C_R   0.235834 0.322401 0.495629 0.171880
C26   C     C_R   0.174061 0.257458 0.498505 -0.199569
C27   C     C_R   0.182948 0.186081 0.498879 -0.092641
C28   C     C_R   0.245948 0.173604 0.483214 -0.016869
C29   C     C_3   0.311489 0.151298 0.526492 0.450290
C30   C     C_3   0.374981 0.216277 0.514341 -0.147992
C31   C     C_R   0.003036 0.619095 0.121872 0.795285
C32   C     C_R   0.123175 0.499423 0.122810 0.862545
C33   C     C_R   0.004131 0.381211 0.885271 0.823369
C34   C     C_R   0.620860 0.501547 0.619754 0.781562
C35   C     C_R   0.884752 0.500980 0.884948 0.805518
C36   C     C_R   0.998937 0.118158 0.617779 0.785666
C37   C     C_R   0.881225 0.881664 0.500798 0.800998
C38   C     C_R   0.001806 0.882705 0.382073 0.803281
C39   C     C_R   0.118378 0.119452 0.500539 0.815787
C40   C     C_R   0.966484 0.668396 0.237089 0.150341
C41   C     C_R   0.999327 0.686135 0.184810 -0.162277
C42   C     C_R   0.024850 0.768586 0.191126 -0.209670
C43   C     C_R   0.026122 0.835086 0.255388 0.149161
C44   C     C_R   0.001955 0.817780 0.314294 -0.085079
C45   C     C_3   0.312933 0.499455 0.230268 0.287023
C46   C     C_R   0.967864 0.733205 0.300745 0.024632
C47   C     C_3   0.991173 0.702338 0.364627 -0.468573
C48   C     C_3   0.991658 0.631873 0.295568 -0.059217
C49   C     C_R   0.972394 0.230415 0.801805 0.146710
C50   C     C_R   0.002573 0.315196 0.816606 -0.090578
C51   C     C_R   0.031865 0.334689 0.761559 -0.193520
C52   C     C_R   0.029594 0.269533 0.694787 -0.200330
C53   C     C_R   0.999927 0.185022 0.683843 -0.058448
C54   C     C_R   0.972493 0.168810 0.739409 0.113319
C55   C     C_3   0.935297 0.099982 0.760006 -0.493382
C56   C     C_3   0.287247 0.570993 0.245319 -0.210913
C57   C     C_3   0.935352 0.170289 0.831562 -0.409180
C58   C     C_3   0.190887 0.498845 0.190290 -0.198516
C59   C     C_3   0.216410 0.427820 0.174614 0.233781
C60   C     C_3   0.216746 0.427588 0.256896 0.204701
Cu1   Cu    Cu3+1 0.500490 0.438210 0.438660 1.005756
Cu2   Cu    Cu3+1 0.499510 0.561790 0.561340 0.976355
Cu3   Cu    Cu3+1 0.942090 0.438240 0.003860 0.961790
Cu4   Cu    Cu3+1 0.065700 0.561800 0.003830 0.974812
Cu5   Cu    Cu3+1 0.937720 0.000020 0.437750 0.968609
Cu6   Cu    Cu3+1 0.062280 0.000080 0.562350 1.035393
H1    H     H_    0.315626 0.629687 0.239581 0.206242
H2    H     H_    0.946292 0.756206 0.597839 0.201314
H3    H     H_    0.769973 0.590736 0.472216 0.217861
H4    H     H_    0.834391 0.643955 0.594286 0.191810
H5    H     H_    0.889764 0.643945 0.875651 0.159933
H6    H     H_    0.737950 0.305046 0.687151 0.191660
H7    H     H_    0.677192 0.308833 0.748539 0.219340
H8    H     H_    0.626589 0.303605 0.572456 0.201693
H9    H     H_    0.567761 0.309202 0.635583 0.203788
H10   H     H_    0.120834 0.264276 0.503662 0.146689
H11   H     H_    0.429334 0.274732 0.577309 0.137492
H12   H     H_    0.046294 0.782209 0.147904 0.167060
H13   H     H_    0.056697 0.750271 0.423263 0.202523
H14   H     H_    0.938803 0.678354 0.379499 0.189885
H15   H     H_    0.058452 0.642334 0.315786 0.132451
H16   H     H_    0.055502 0.399466 0.769343 0.165539
H17   H     H_    0.051874 0.285296 0.652906 0.140906
H18   H     H_    0.869043 0.046649 0.705897 0.199797
H19   H     H_    0.981878 0.078759 0.786052 0.224217
H20   H     H_    0.869092 0.157326 0.818839 0.200176
H21   H     H_    0.981823 0.189451 0.898875 0.243820
H22   H     H_    0.317987 0.630203 0.392155 0.192074
H23   H     H_    0.712958 0.843844 0.442342 0.196577
H24   H     H_    0.881802 0.703631 0.475927 0.184014
O1    O     O_R   0.590590 0.537990 0.448210 -0.573519
O2    O     O_R   0.055390 0.642370 0.093330 -0.587365
O3    O     O_R   0.042570 0.447840 0.094710 -0.587386
O4    O     O_R   0.146960 0.552180 0.094690 -0.574245
O5    O     O_R   0.952400 0.357670 0.914360 -0.583512
O6    O     O_R   0.056780 0.462020 0.914330 -0.582476
O7    O     O_R   0.860840 0.447860 0.913000 -0.581678
O8    O     O_R   0.965220 0.552200 0.912980 -0.594863
O9    O     O_R   0.946640 0.090180 0.536890 -0.591250
O10   O     O_R   0.051820 0.090220 0.642110 -0.568474
O11   O     O_R   0.857230 0.909860 0.447430 -0.583703
O12   O     O_R   0.589760 0.642350 0.551800 -0.572993
O13   O     O_R   0.962420 0.909900 0.552660 -0.588550
O14   O     O_R   0.948170 0.909880 0.357990 -0.587190
O15   O     O_R   0.053360 0.909920 0.463210 -0.564571
O16   O     O_R   0.037580 0.090200 0.447440 -0.599268
O17   O     O_R   0.142770 0.090240 0.552670 -0.522956
O18   O     O_R   0.409550 0.447830 0.357350 -0.539766
O19   O     O_R   0.408710 0.552190 0.460940 -0.589036
O20   O     O_R   0.410240 0.357650 0.448200 -0.579022
O21   O     O_R   0.409410 0.462010 0.551790 -0.591813
O22   O     O_R   0.591290 0.447810 0.539060 -0.597513
O23   O     O_R   0.590450 0.552170 0.642650 -0.582533
O24   O     O_R   0.951010 0.538020 0.093350 -0.591759
C61   C     C_3   0.785787 0.672224 0.761521 -0.399669
C62   C     C_3   0.770072 0.725669 0.829338 -0.759420
H25   H     H_    0.783026 0.788460 0.830446 0.238653
H26   H     H_    0.701560 0.689824 0.812901 0.265434
H27   H     H_    0.814133 0.739740 0.895331 0.238693
H28   H     H_    0.854551 0.709323 0.778996 0.194796
H29   H     H_    0.745547 0.663989 0.697262 0.202010
C63   C     C_3   0.223443 0.398455 0.497240 -0.377876
C64   C     C_3   0.251059 0.463747 0.589200 -0.800580
H30   H     H_    0.320451 0.488852 0.634761 0.273175
H31   H     H_    0.242607 0.519451 0.588392 0.239014
H32   H     H_    0.210447 0.432663 0.613091 0.243285
H33   H     H_    0.259898 0.432083 0.471788 0.225133
H34   H     H_    0.153668 0.373797 0.453206 0.210518
Br1   Br    Br    0.401890 0.500609 0.200266 -0.383273
Br2   Br    Br    0.348424 0.191240 0.649428 -0.458707
Br3   Br    Br    0.273879 0.027977 0.463086 -0.527533
C65   C     C_3   0.406885 0.180022 0.452368 -0.342695
C66   C     C_3   0.340609 0.131022 0.354378 -0.713574
H35   H     H_    0.278905 0.077515 0.337482 0.264230
H36   H     H_    0.326433 0.176426 0.334077 0.262193
H37   H     H_    0.368100 0.102661 0.316839 0.228393
H38   H     H_    0.430294 0.137538 0.469378 0.238304
H39   H     H_    0.464091 0.235893 0.464784 0.203591
C67   C     C_3   0.059144 0.924188 0.262749 -0.370185
C68   C     C_3   0.990061 0.925384 0.191909 -0.793959
H40   H     H_    0.972622 0.877867 0.126120 0.241300
H41   H     H_    0.930828 0.908914 0.197861 0.265280
H42   H     H_    0.015616 0.991488 0.199139 0.255390
H43   H     H_    0.078896 0.975733 0.327457 0.212165
H44   H     H_    0.118247 0.941722 0.256457 0.215019
Br4   Br    Br    0.164317 0.325826 0.062560 -0.443596
C69   C     C_3   0.924599 0.537172 0.262412 -0.359947
C70   C     C_3   0.829086 0.513289 0.215353 -0.749018
H45   H     H_    0.814640 0.555656 0.258424 0.243629
H46   H     H_    0.812877 0.518769 0.155344 0.257644
H47   H     H_    0.786804 0.444753 0.195856 0.233426
H48   H     H_    0.935134 0.492380 0.216697 0.210594
H49   H     H_    0.937416 0.525486 0.318735 0.201661
Br5   Br    Br    0.167803 0.324052 0.265616 -0.527801
C71   C     C_3   0.118516 0.498294 0.291547 -0.348021
C72   C     C_3   0.144971 0.522244 0.385968 -0.827209
H50   H     H_    0.163223 0.476387 0.400906 0.269792
H51   H     H_    0.200758 0.589693 0.431094 0.250507
H52   H     H_    0.089503 0.518371 0.396263 0.235296
H53   H     H_    0.102605 0.546015 0.278322 0.177633
H54   H     H_    0.059649 0.432657 0.247144 0.231242
Br6   Br    Br    0.548435 0.722664 0.417432 -0.496013

loop_
_geom_bond_atom_site_label_1
_geom_bond_atom_site_label_2
_ccdc_geom_bond_type
C39   O16   A    
C32   O4    A    
C33   O6    A    
C45   Br1   S    
C2    C71   S    
C61   H29   S    
C34   O22   A    
C41   C42   A    
C69   C70   S    
C68   H42   S    
C32   C58   S    
Cu6   O17   S    
C64   H30   S    
C53   C54   A    
C62   H25   S    
C34   O23   A    
C39   O17   A    
C26   C27   A    
C14   C21   S    
C28   C29   S    
C70   H46   S    
C69   H48   S    
C5    C6    A    
C2    C60   S    
C64   H31   S    
C13   H4    S    
C65   H39   S    
C15   C16   A    
C48   C69   S    
Cu3   O5    S    
C49   C57   S    
C48   H15   S    
C18   C19   A    
C67   H43   S    
Cu6   O10   S    
C63   H33   S    
C49   C50   A    
Cu1   O18   S    
C38   O14   A    
C36   C53   S    
C54   C55   S    
Cu3   O24   S    
C67   H44   S    
Cu2   O21   S    
C47   C48   S    
C45   C56   S    
C27   C39   S    
C16   C17   A    
C57   H20   S    
C66   H37   S    
C26   H10   S    
C23   C24   S    
C70   H47   S    
C43   C67   S    
C47   H13   S    
C4    C12   S    
C35   O8    A    
C22   C30   S    
C25   C63   S    
C15   C34   S    
C5    C13   S    
Cu4   O8    S    
C32   O3    A    
C71   H53   S    
C59   C60   S    
C1    O1    A    
C22   C28   A    
C30   H11   S    
C31   O24   A    
C47   H14   S    
Cu1   O20   S    
C33   O5    A    
C9    C10   A    
C12   O19   A    
C44   C46   A    
C17   C18   A    
C4    C45   S    
C7    Br6   S    
C51   C52   A    
C7    C8    A    
C24   C25   A    
Cu4   O6    S    
Cu2   O23   S    
C12   O18   A    
C8    C9    A    
C64   H32   S    
C25   C26   A    
C21   H8    S    
C71   H54   S    
C1    C6    S    
C72   H50   S    
C55   H19   S    
C52   H17   S    
C40   C46   A    
C43   C44   A    
C38   C44   S    
C29   C30   S    
C3    C56   S    
C29   Br2   S    
C4    C60   S    
C9    C37   S    
C50   C51   A    
C36   O10   A    
C52   C53   A    
C68   H40   S    
C51   H16   S    
Cu5   O9    S    
Cu5   O11   S    
C62   H26   S    
C40   C41   A    
C31   O2    A    
C55   C57   S    
C66   H35   S    
C22   C24   A    
C58   C59   S    
C42   C43   A    
Cu4   O2    S    
Cu6   O15   S    
C3    C4    S    
C16   C61   S    
Cu5   O16   S    
C71   C72   S    
C11   H2    S    
C42   H12   S    
C37   O13   A    
C18   C35   S    
C40   C48   S    
C23   O20   A    
Cu3   O3    S    
C46   C47   S    
C45   C59   S    
C31   C41   S    
C3    H22   S    
C14   C19   A    
C72   H52   S    
C68   H41   S    
C67   C68   S    
C2    C58   S    
C17   H5    S    
C6    C7    A    
C56   H1    S    
C23   O21   A    
C21   H9    S    
C55   H18   S    
C62   H27   S    
C19   C20   S    
C72   H51   S    
C2    C3    S    
C33   C50   S    
Cu4   O4    S    
C5    C10   A    
Cu3   O7    S    
Cu6   O13   S    
C37   O11   A    
C11   C13   S    
C11   H24   S    
C61   C62   S    
C29   Br3   S    
Cu2   O19   S    
C13   H3    S    
C38   O15   A    
C30   C65   S    
C56   C58   S    
C20   H7    S    
C65   C66   S    
C36   O9    A    
C70   H45   S    
Cu5   Cu6   S    
C63   H34   S    
Cu1   Cu2   S    
C69   H49   S    
C60   Br5   S    
C10   C11   S    
Cu3   Cu4   S    
C59   Br4   S    
C57   H21   S    
C20   C21   S    
C61   H28   S    
C27   C28   A    
C66   H36   S    
C14   C15   A    
C20   H6    S    
C8    H23   S    
C65   H38   S    
Cu5   O14   S    
Cu1   O1    S    
C63   C64   S    
C35   O7    A    
Cu1   O22   S    
C1    O12   A    
C49   C54   A    
Cu2   O12   S    
