data_mof_unit_7301.cif
_audit_creation_date              2012-12-10T18:47:05-0500
_audit_creation_method            fapswitch 2.2
_symmetry_space_group_name_H-M    P1
_symmetry_Int_Tables_number       1
_space_group_crystal_system       triclinic
_cell_length_a                    10.712366
_cell_length_b                    9.83217
_cell_length_c                    14.956187
_cell_angle_alpha                 90.087008
_cell_angle_beta                  90.067517
_cell_angle_gamma                 89.990258
_cell_volume                      1575.26948242

loop_
_atom_site_label
_atom_site_type_symbol
_atom_type_description
_atom_site_fract_x
_atom_site_fract_y
_atom_site_fract_z
_atom_type_partial_charge
C1    C     C_R   0.259857 0.499999 0.499899 0.868112
C2    C     C_R   0.127436 0.499968 0.499803 -0.015172
C3    C     C_R   0.569980 0.072096 0.560590 -0.074682
C4    C     C_R   0.429968 0.927901 0.439449 -0.076477
C5    C     C_R   0.429965 0.071859 0.439447 -0.074986
C6    C     C_R   0.569960 0.928140 0.560607 -0.074413
C7    C     C_R   0.499848 0.499943 0.326773 0.883640
C8    C     C_R   0.500007 0.500138 0.673170 0.883821
C9    C     C_R   0.567190 0.599063 0.814008 -0.222306
C10   C     C_R   0.430190 0.401344 0.186022 -0.224508
C11   C     C_R   0.499109 0.500767 0.768644 -0.089179
C12   C     C_R   0.740144 0.499995 0.500028 0.867962
C13   C     C_R   0.497679 0.500441 0.231200 -0.089186
C14   C     C_R   0.429167 0.404096 0.813475 -0.208278
C15   C     C_R   0.560881 0.602212 0.186086 -0.212713
C16   C     C_R   0.427307 0.402777 0.906208 -0.000810
C17   C     C_R   0.558389 0.606475 0.093499 -0.004939
C18   C     C_R   0.494479 0.504169 0.953392 -0.050186
C19   C     C_R   0.492300 0.504151 0.046421 -0.049479
C20   C     C_R   0.565765 0.603795 0.907076 0.047261
C21   C     C_R   0.424377 0.401983 0.092882 0.057210
C22   C     C_R   0.358675 0.302058 0.951598 0.473940
C23   C     C_R   0.353365 0.303338 0.045532 0.040176
C24   C     C_R   0.623254 0.709982 0.047987 0.467616
C25   C     C_3   0.363802 0.094197 0.884919 -0.382199
C26   C     C_3   0.597291 0.915668 0.115349 -0.332966
C27   C     C_3   0.269467 0.201286 0.093296 -0.387353
C28   C     C_3   0.151303 0.269483 0.128931 -0.826130
C29   C     C_3   0.723618 0.801592 0.907726 -0.331155
C30   C     C_3   0.656638 0.921609 0.863965 -0.914603
C31   C     C_R   0.633765 0.704723 0.954492 0.039971
C32   C     C_R   0.063992 0.379356 0.518894 -0.191383
C33   C     C_R   0.936009 0.620573 0.480788 -0.192651
C34   C     C_R   0.936124 0.379371 0.518986 -0.190782
C35   C     C_R   0.063884 0.620557 0.480695 -0.191908
C36   C     C_R   0.872568 0.499986 0.499951 -0.015076
H1    H     H_    0.620497 0.671009 0.775071 0.161723
H2    H     H_    0.373952 0.873204 0.391089 0.124585
H3    H     H_    0.373968 0.126364 0.391070 0.123036
H4    H     H_    0.625867 0.873649 0.609049 0.126625
H5    H     H_    0.444883 0.121539 0.842228 0.174601
H6    H     H_    0.307078 0.018798 0.847502 0.212238
H7    H     H_    0.396789 0.044227 0.947240 0.153537
H8    H     H_    0.528597 0.881790 0.166282 0.160035
H9    H     H_    0.546766 0.951723 0.054966 0.154028
H10   H     H_    0.648662 0.003766 0.143630 0.201108
H11   H     H_    0.173710 0.351740 0.177164 0.251636
H12   H     H_    0.382036 0.325508 0.225150 0.156799
H13   H     H_    0.096814 0.313311 0.072675 0.273396
H14   H     H_    0.092554 0.192768 0.163408 0.244618
H15   H     H_    0.238823 0.118073 0.048280 0.249170
H16   H     H_    0.320927 0.149133 0.147801 0.172693
H17   H     H_    0.572993 0.888458 0.825951 0.256426
H18   H     H_    0.627794 0.996208 0.915522 0.259683
H19   H     H_    0.721337 0.973716 0.817279 0.250676
H20   H     H_    0.794056 0.842817 0.955101 0.250296
H21   H     H_    0.779469 0.745396 0.857236 0.182520
H22   H     H_    0.375352 0.331047 0.775137 0.193580
H23   H     H_    0.614462 0.676002 0.223989 0.193577
H24   H     H_    0.112782 0.285721 0.534349 0.160057
H25   H     H_    0.887212 0.714206 0.465339 0.159960
H26   H     H_    0.887421 0.285753 0.534512 0.155576
H27   H     H_    0.112595 0.714171 0.465175 0.155470
H28   H     H_    0.625951 0.126779 0.608986 0.126593
N1    N     N_R   0.500000 0.857200 0.500000 -0.079430
N2    N     N_R   0.500000 0.142800 0.500000 -0.079444
O1    O     O_R   0.316770 0.614620 0.499990 -0.624374
O2    O     O_3   0.684033 0.811821 0.095201 -0.615338
O3    O     O_R   0.683230 0.385380 0.500010 -0.624485
O4    O     O_R   0.683230 0.614620 0.500010 -0.628916
O5    O     O_R   0.316770 0.385380 0.499990 -0.628815
O6    O     O_R   0.499980 0.614680 0.367850 -0.627262
O7    O     O_R   0.500020 0.385320 0.632150 -0.626667
O8    O     O_R   0.500020 0.614680 0.632150 -0.621346
O9    O     O_R   0.499980 0.385320 0.367850 -0.622593
O10   O     O_3   0.288486 0.208520 0.903671 -0.606151
Zn1   Zn    Zn3+2 0.500000 0.653120 0.500000 0.947243
Zn2   Zn    Zn3+2 0.500000 0.346880 0.500000 0.947148

loop_
_geom_bond_atom_site_label_1
_geom_bond_atom_site_label_2
_ccdc_geom_bond_type
C2    C35   A    
C12   O3    A    
C28   H11   S    
O1    Zn1   S    
C22   O10   S    
C3    C6    A    
C25   H7    S    
C26   H8    S    
C3    H28   S    
C30   H18   S    
C1    O5    A    
C19   C21   A    
C1    C2    S    
C4    N1    A    
C33   C35   A    
C11   C14   A    
C34   H26   S    
C33   C36   A    
C2    C32   A    
C18   C19   A    
O6    Zn1   S    
C17   C19   A    
C28   H14   S    
C6    N1    A    
O8    Zn1   S    
O7    Zn2   S    
C23   C27   S    
C12   C36   S    
C18   C20   A    
C26   H9    S    
O4    Zn1   S    
O3    Zn2   S    
N2    Zn2   S    
C8    O8    A    
C27   H15   S    
C10   C21   A    
C14   H22   S    
C30   H17   S    
C17   C24   A    
N1    Zn1   S    
C6    H4    S    
C25   H5    S    
C7    O6    A    
C24   O2    S    
C5    N2    A    
C7    O9    A    
C32   C34   A    
C29   C30   S    
C28   H13   S    
C9    C20   A    
C9    H1    S    
C9    C11   A    
C33   H25   S    
C4    H2    S    
C13   C15   A    
C10   H12   S    
C14   C16   A    
C3    N2    A    
C32   H24   S    
C27   H16   S    
C15   C17   A    
C5    H3    S    
C12   O4    A    
C16   C22   A    
C15   H23   S    
C29   H21   S    
C4    C5    A    
C10   C13   A    
C25   H6    S    
C29   H20   S    
C30   H19   S    
C25   O10   S    
C26   O2    S    
C21   C23   A    
C24   C31   A    
C29   C31   S    
C8    C11   S    
C8    O7    A    
C1    O1    A    
C34   C36   A    
O9    Zn2   S    
C26   H10   S    
C7    C13   S    
C16   C18   A    
C27   C28   S    
C22   C23   A    
C35   H27   S    
O5    Zn2   S    
C20   C31   A    
