data_mof_unit_52940.cif
_audit_creation_date              2012-12-10T19:00:43-0500
_audit_creation_method            fapswitch 2.2
_symmetry_space_group_name_H-M    P1
_symmetry_Int_Tables_number       1
_space_group_crystal_system       triclinic
_cell_length_a                    15.042001
_cell_length_b                    10.82109
_cell_length_c                    9.543265
_cell_angle_alpha                 90.080872
_cell_angle_beta                  90.255345
_cell_angle_gamma                 90.274067
_cell_volume                      1553.33053214

loop_
_atom_site_label
_atom_site_type_symbol
_atom_type_description
_atom_site_fract_x
_atom_site_fract_y
_atom_site_fract_z
_atom_type_partial_charge
C1    C     C_R   0.498712 0.262399 0.499858 0.844854
C2    C     C_R   0.907721 0.567243 0.599408 0.114338
C3    C     C_R   0.949315 0.348662 0.305524 -0.206583
C4    C     C_R   0.041746 0.343421 0.307182 -0.163578
C5    C     C_R   0.091546 0.414024 0.403958 0.073050
C6    C     C_R   0.046263 0.491120 0.499893 0.029528
C7    C     C_R   0.094007 0.564765 0.596608 0.109072
C8    C     C_R   0.048642 0.638322 0.693694 -0.185235
C9    C     C_R   0.956005 0.638880 0.695744 -0.197804
C10   C     C_R   0.185118 0.409587 0.407795 0.087966
C11   C     C_R   0.231950 0.489426 0.499498 -0.100129
C12   C     C_R   0.328780 0.495383 0.499733 0.843476
C13   C     C_R   0.186411 0.564577 0.594191 -0.267734
C14   C     C_R   0.496628 0.063631 0.625217 0.063300
C15   C     C_R   0.491532 0.129260 0.499722 -0.064450
C16   C     C_R   0.474887 0.064184 0.374604 -0.173096
C17   C     C_R   0.474725 0.935282 0.374706 -0.200261
C18   C     C_R   0.490693 0.870726 0.500094 -0.073448
C19   C     C_R   0.494999 0.936697 0.625625 0.084706
C20   C     C_3   0.559767 0.929009 0.744273 -0.489331
C21   C     C_3   0.561909 0.069613 0.744101 -0.002970
C22   C     C_R   0.541987 0.592327 0.074193 0.250885
C23   C     C_R   0.498678 0.737658 0.500019 0.794958
C24   C     C_R   0.453257 0.414332 0.073742 -0.053795
C25   C     C_R   0.452816 0.414664 0.925001 -0.059914
C26   C     C_R   0.542258 0.592050 0.926671 0.257674
C27   C     C_3   0.639066 0.622299 0.922312 -0.511420
C28   C     C_3   0.638556 0.623641 0.081130 -0.486463
C29   C     C_R   0.671119 0.500356 0.500270 0.831119
C30   C     C_R   0.814982 0.567812 0.600103 -0.238525
C31   C     C_R   0.767506 0.498688 0.500606 -0.055584
C32   C     C_R   0.812003 0.427345 0.401103 -0.221304
C33   C     C_R   0.904524 0.422952 0.401666 0.111099
C34   C     C_R   0.952862 0.493804 0.500266 0.074885
Cu1   Cu    Cu3+1 0.500000 0.499980 0.640670 0.962792
Cu2   Cu    Cu3+1 0.500000 0.500020 0.359330 0.962026
H1    H     H_    0.779693 0.623786 0.675821 0.139323
H2    H     H_    0.465848 0.886861 0.276181 0.162713
H3    H     H_    0.528977 0.889631 0.840125 0.178997
H4    H     H_    0.623324 0.885262 0.712667 0.210867
H5    H     H_    0.532195 0.110544 0.839903 0.142300
H6    H     H_    0.417624 0.342764 0.128762 0.167556
H7    H     H_    0.415938 0.344104 0.868862 0.145135
H8    H     H_    0.679594 0.545905 0.878567 0.230219
H9    H     H_    0.652367 0.714549 0.876056 0.190655
H10   H     H_    0.679445 0.548670 0.127460 0.223984
H11   H     H_    0.774400 0.373360 0.325241 0.151656
H12   H     H_    0.650498 0.716989 0.126406 0.198493
H13   H     H_    0.912783 0.293989 0.229188 0.156565
H14   H     H_    0.073083 0.285049 0.230212 0.186159
H15   H     H_    0.223336 0.623748 0.665818 0.158077
H16   H     H_    0.084864 0.695031 0.768434 0.150915
H17   H     H_    0.922132 0.695790 0.772059 0.152717
H18   H     H_    0.465780 0.112220 0.276114 0.168794
N1    N     N_R   0.500570 0.500930 0.147930 -0.188933
N2    N     N_R   0.500570 0.500890 0.852020 -0.186048
O1    O     O_R   0.500000 0.319640 0.618810 -0.576627
O2    O     O_R   0.500010 0.319680 0.381230 -0.585299
O3    O     O_R   0.370250 0.499950 0.618800 -0.587675
O4    O     O_R   0.370260 0.499990 0.381220 -0.556643
O5    O     O_R   0.499990 0.680320 0.618770 -0.582411
O6    O     O_R   0.500000 0.680360 0.381190 -0.588275
O7    O     O_R   0.629740 0.500010 0.618780 -0.570720
O8    O     O_R   0.629750 0.500050 0.381200 -0.591229
I1    I     I_    0.690222 0.143261 0.689202 -0.392256
I2    I     I_    0.255006 0.271020 0.291604 -0.453114

loop_
_geom_bond_atom_site_label_1
_geom_bond_atom_site_label_2
_ccdc_geom_bond_type
Cu1   N2    S    
C11   C12   S    
C29   O7    A    
C22   N1    A    
C1    C15   S    
C1    O1    A    
C24   H6    S    
C8    H16   S    
Cu2   O8    S    
C19   C20   S    
C25   N2    A    
C23   O5    A    
Cu1   O1    S    
C31   C32   A    
C32   C33   A    
C27   H9    S    
C16   H18   S    
C17   C18   A    
C3    H13   S    
C29   O8    A    
C5    C10   A    
Cu1   O5    S    
Cu2   N1    S    
C22   C28   S    
C1    O2    A    
C24   C25   A    
C24   N1    A    
C4    C5    A    
C11   C13   A    
C28   H10   S    
C26   C27   S    
C6    C7    A    
C21   H5    S    
C5    C6    A    
C14   C19   A    
C14   C21   S    
Cu1   O3    S    
C25   H7    S    
C33   C34   A    
Cu2   O2    S    
C17   H2    S    
C10   I2    S    
C30   C31   A    
C20   H4    S    
C32   H11   S    
Cu2   O6    S    
C9    H17   S    
C10   C11   A    
C3    C33   A    
C18   C23   S    
C12   O4    A    
C6    C34   A    
C7    C13   A    
C2    C9    A    
C2    C30   A    
C20   C21   S    
C30   H1    S    
C29   C31   S    
C7    C8    A    
C22   C26   A    
C27   C28   S    
C20   H3    S    
C14   C15   A    
C18   C19   A    
Cu1   O7    S    
C21   I1    S    
C2    C34   A    
C13   H15   S    
C12   O3    A    
C27   H8    S    
C23   O6    A    
C28   H12   S    
C3    C4    A    
C15   C16   A    
C16   C17   A    
C4    H14   S    
C8    C9    A    
Cu2   O4    S    
Cu1   Cu2   S    
C26   N2    A    
