data_mof_unit_31423.cif
_audit_creation_date              2012-12-10T16:42:34-0500
_audit_creation_method            fapswitch 2.2
_symmetry_space_group_name_H-M    P1
_symmetry_Int_Tables_number       1
_space_group_crystal_system       triclinic
_cell_length_a                    7.511
_cell_length_b                    8.681204
_cell_length_c                    11.031492
_cell_angle_alpha                 88.61905
_cell_angle_beta                  71.534711
_cell_angle_gamma                 103.055623
_cell_volume                      661.063983543

loop_
_atom_site_label
_atom_site_type_symbol
_atom_type_description
_atom_site_fract_x
_atom_site_fract_y
_atom_site_fract_z
_atom_type_partial_charge
C1    C     C_R   0.451875 0.199639 0.503935 0.869981
C2    C     C_R   0.548125 0.800361 0.496065 0.869982
C3    C     C_R   0.420601 0.489386 0.743336 0.727560
C4    C     C_R   0.579399 0.510613 0.256664 0.727559
C5    C     C_2   0.372506 0.476388 0.883343 0.211948
C6    C     C_2   0.627494 0.523610 0.116657 0.211950
C7    C     C_2   0.518012 0.508032 0.931080 -0.118075
C8    C     C_2   0.481988 0.491960 0.068920 -0.118076
C9    C     C_2   0.425266 0.031451 0.505676 -0.346561
C10   C     C_2   0.574733 0.968549 0.494323 -0.346561
Cu1   Cu    Cu3+1 0.688910 0.517800 0.485820 1.047611
Cu2   Cu    Cu3+1 0.311090 0.482200 0.514180 1.047611
N1    N     N_2   0.027170 0.455360 0.535550 0.142694
N2    N     N_2   0.972830 0.544640 0.464450 0.142694
O1    O     O_R   0.622710 0.286400 0.490790 -0.532842
O2    O     O_R   0.377290 0.713600 0.509210 -0.532842
O3    O     O_R   0.303660 0.256330 0.514730 -0.605450
O4    O     O_R   0.696340 0.743670 0.485270 -0.605450
O5    O     O_R   0.600900 0.509520 0.671740 -0.558192
O6    O     O_R   0.399100 0.490480 0.328260 -0.558192
O7    O     O_R   0.281840 0.479450 0.695690 -0.597854
O8    O     O_R   0.718160 0.520550 0.304310 -0.597853
H1    H     H_    0.332880 0.453975 0.132776 0.204371
H2    H     H_    0.667120 0.546013 0.867224 0.204372
O9    O     O_3   0.817125 0.570612 0.034349 -0.722127
H3    H     H_    0.904892 0.598489 0.085392 0.363060
O10   O     O_3   0.182875 0.429392 0.965651 -0.722126
H4    H     H_    0.095106 0.401521 0.914609 0.363062
H5    H     H_    0.281602 0.959097 0.516260 0.194892
H6    H     H_    0.718398 0.040903 0.483740 0.194892
O11   O     O_3   0.883942 0.347515 0.621675 -0.611732
H7    H     H_    0.949804 0.291713 0.666789 0.330714
O12   O     O_3   0.116057 0.652484 0.378325 -0.611731
H8    H     H_    0.050196 0.708287 0.333211 0.330714

loop_
_geom_bond_atom_site_label_1
_geom_bond_atom_site_label_2
_ccdc_geom_bond_type
Cu2   O3    S    
Cu1   Cu2   S    
Cu1   O4    S    
C3    O5    A    
C1    O1    A    
C2    O4    A    
C2    O2    A    
C9    C10   D    
C10   H6    S    
Cu1   O8    S    
C1    O3    A    
O11   H7    S    
C9    H5    S    
Cu2   O6    S    
N2    O12   S    
O12   H8    S    
C1    C9    S    
C7    C8    S    
N1    N2    D    
Cu1   O5    S    
Cu1   N2    S    
C3    O7    A    
C6    O9    S    
C7    H2    S    
C2    C10   S    
C8    H1    S    
C4    O8    A    
Cu2   N1    S    
C4    C6    S    
O10   H4    S    
C5    C7    D    
C6    C8    D    
O9    H3    S    
C5    O10   S    
Cu1   O1    S    
Cu2   O7    S    
N1    O11   S    
Cu2   O2    S    
C3    C5    S    
C4    O6    A    
