data_mof_unit_36490.cif
_audit_creation_date              2012-12-11T15:49:54-0500
_audit_creation_method            fapswitch 2.2
_symmetry_space_group_name_H-M    P1
_symmetry_Int_Tables_number       1
_space_group_crystal_system       triclinic
_cell_length_a                    8.254286
_cell_length_b                    19.062322
_cell_length_c                    27.013311
_cell_angle_alpha                 95.559416
_cell_angle_beta                  92.697159
_cell_angle_gamma                 85.605773
_cell_volume                      4214.63876863

loop_
_atom_site_label
_atom_site_type_symbol
_atom_type_description
_atom_site_fract_x
_atom_site_fract_y
_atom_site_fract_z
_atom_type_partial_charge
Ba1   Ba    Ba6+2 0.854000 0.466860 0.523710 1.652599
Ba2   Ba    Ba6+2 0.335820 0.533080 0.476290 1.636240
C1    C     C_3   0.708576 0.204358 0.659074 0.297540
C2    C     C_R   0.893564 0.561172 0.177970 0.587147
C3    C     C_2   0.736244 0.516519 0.270247 -0.073687
C4    C     C_3   0.138811 0.299665 0.659627 0.321327
C5    C     C_3   0.693310 0.510798 0.323909 -0.050970
C6    C     C_1   0.981332 0.486874 0.342936 0.038047
C7    C     C_2   0.021248 0.486687 0.295753 -0.096616
C8    C     C_2   0.892683 0.503308 0.256240 0.206536
C9    C     C_R   0.013039 0.500197 0.102888 -0.078748
C10   C     C_R   0.054166 0.441140 0.129790 -0.034183
C11   C     C_R   0.134853 0.381124 0.105631 -0.062336
C12   C     C_3   0.672302 0.275969 0.637986 0.474920
C13   C     C_R   0.932470 0.560651 0.127328 -0.031100
C14   C     C_2   0.842180 0.517503 0.358185 -0.275538
C15   C     C_2   0.338841 0.472057 0.639412 -0.287170
C16   C     C_3   0.119150 0.270023 0.709057 -0.381110
C17   C     C_R   0.164645 0.434209 0.975622 0.020046
C18   C     C_R   0.054518 0.557977 0.974021 0.019610
C19   C     C_R   0.128626 0.495179 0.949406 0.049421
C20   C     C_R   0.233092 0.372356 0.948886 -0.101855
C21   C     C_R   0.268346 0.370903 0.898964 -0.063128
C22   C     C_R   0.237163 0.430929 0.872982 -0.021693
C23   C     C_3   0.481125 0.652235 0.629582 0.437089
C24   C     C_R   0.167141 0.493184 0.897960 -0.080574
C25   C     C_R   0.135883 0.553292 0.871482 -0.035897
C26   C     C_R   0.176698 0.550498 0.820658 0.597201
C27   C     C_R   0.274127 0.429140 0.822314 0.580037
C28   C     C_3   0.188247 0.319482 0.420162 0.310395
C29   C     C_2   0.427336 0.451483 0.727609 -0.096858
C30   C     C_3   0.444561 0.427425 0.673137 -0.049163
C31   C     C_1   0.207794 0.509579 0.656450 0.025096
C32   C     C_2   0.168026 0.513629 0.704196 -0.103875
C33   C     C_2   0.285436 0.485028 0.743399 0.200326
C34   C     C_3   0.406445 0.697487 0.673809 -0.303711
C35   C     C_R   0.130363 0.436603 0.027224 0.020117
C36   C     C_R   0.052135 0.498687 0.051531 0.049893
C37   C     C_R   0.012432 0.559180 0.025064 0.019674
C38   C     C_R   0.172380 0.378833 0.055762 -0.100981
C39   C     C_R   0.892033 0.619439 0.100631 -0.063401
C40   C     C_3   0.205296 0.239718 0.408070 -0.382988
C41   C     C_R   0.025617 0.617572 0.946382 -0.099646
C42   C     C_R   0.065551 0.615187 0.896524 -0.059794
C43   C     C_R   0.930873 0.618864 0.050870 -0.100258
C44   C     C_R   0.404543 0.300179 0.525030 -0.274381
C45   C     C_3   0.968409 0.694297 0.345116 0.282341
C46   C     C_R   0.542467 0.277529 0.498629 0.079406
C47   C     C_R   0.596569 0.205656 0.494343 -0.131360
C48   C     C_R   0.509967 0.155695 0.515518 -0.025060
C49   C     C_R   0.365262 0.179411 0.539846 -0.139329
C50   C     C_R   0.311801 0.251318 0.543558 0.012765
C51   C     C_R   0.549174 0.035960 0.548515 -0.080006
C52   C     C_3   0.002177 0.682395 0.583142 0.309162
C53   C     C_R   0.597883 0.963674 0.542846 -0.078555
C54   C     C_R   0.663564 0.932115 0.498181 0.058980
C55   C     C_R   0.680809 0.975024 0.459535 -0.076883
C56   C     C_3   0.905445 0.730595 0.299574 -0.325755
C57   C     C_R   0.631795 0.047339 0.465164 -0.075352
C58   C     C_R   0.564819 0.078821 0.509706 0.062318
C59   C     C_R   0.855545 0.828256 0.468051 -0.125186
C60   C     C_R   0.900180 0.755321 0.463695 0.020945
C61   C     C_R   0.659560 0.733732 0.505350 0.053805
C62   C     C_R   0.614320 0.806318 0.510791 -0.115646
C63   C     C_R   0.711039 0.854647 0.491742 -0.008664
C64   C     C_3   0.978816 0.761397 0.598356 -0.388913
C65   C     C_R   0.798619 0.708641 0.480466 -0.285822
C66   C     C_3   0.688120 0.366721 0.373401 0.303610
C67   C     C_3   0.453918 0.712474 0.341872 0.480869
C68   C     C_3   0.721977 0.334514 0.320743 -0.370762
C69   C     C_3   0.540761 0.215939 0.726667 0.293145
C70   C     C_3   0.540064 0.214990 0.782873 -0.286939
C71   C     C_3   0.362288 0.736943 0.295501 -0.293001
C72   C     C_R   0.013729 0.443036 0.180339 0.587909
H1    H     H_    0.719277 0.272304 0.599857 0.011368
H2    H     H_    0.803336 0.384184 0.391325 0.022936
H3    H     H_    0.596109 0.412072 0.372165 0.029019
H4    H     H_    0.833333 0.183764 0.649153 0.078347
H5    H     H_    0.804307 0.285775 0.322139 0.139553
H6    H     H_    0.781740 0.371835 0.299868 0.079083
H7    H     H_    0.606323 0.321019 0.300669 0.120940
H8    H     H_    0.538232 0.286445 0.635086 -0.226932
H9    H     H_    0.626153 0.165080 0.640804 -0.070030
H10   H     H_    0.379939 0.628904 0.606678 0.011790
H11   H     H_    0.328876 0.742512 0.660479 0.101994
H12   H     H_    0.291081 0.225684 0.377601 0.129226
H13   H     H_    0.330112 0.665604 0.694449 0.094051
H14   H     H_    0.503718 0.718683 0.699558 0.124812
H15   H     H_    0.184287 0.301347 0.739018 0.133623
H16   H     H_    0.029754 0.642039 0.332802 0.055316
H17   H     H_    0.861135 0.686139 0.366795 0.016356
H18   H     H_    0.005825 0.735152 0.274471 0.108859
H19   H     H_    0.811787 0.699506 0.278877 0.173955
H20   H     H_    0.849720 0.784186 0.311225 0.125201
H21   H     H_    0.365581 0.695137 0.367046 0.108850
H22   H     H_    0.448710 0.754568 0.269742 0.122367
H23   H     H_    0.252234 0.213515 0.441198 0.064725
H24   H     H_    0.272293 0.781660 0.305814 0.094232
H25   H     H_    0.082396 0.354710 0.661499 0.076500
H26   H     H_    0.297592 0.692652 0.275953 0.105380
H27   H     H_    0.146364 0.474305 0.285486 0.124593
H28   H     H_    0.169854 0.335088 0.125343 0.121696
H29   H     H_    0.519445 0.432289 0.754016 0.118356
H30   H     H_    0.320811 0.321850 0.880661 0.112489
H31   H     H_    0.259447 0.323197 0.965115 0.067049
H32   H     H_    0.236657 0.330699 0.040985 0.068241
H33   H     H_    0.639301 0.525852 0.242567 0.097603
H34   H     H_    0.084918 0.220027 0.396268 0.124188
H35   H     H_    0.829333 0.666699 0.118230 0.118431
H36   H     H_    0.973510 0.667714 0.962283 0.068357
H37   H     H_    0.270658 0.299716 0.653470 -0.041863
H38   H     H_    0.040551 0.662586 0.877516 0.121587
H39   H     H_    0.048584 0.536138 0.714864 0.138208
H40   H     H_    0.893037 0.666280 0.033563 0.068114
H41   H     H_    0.835005 0.546611 0.394741 0.073376
H42   H     H_    0.356024 0.462132 0.599714 0.085827
H43   H     H_    0.505679 0.824846 0.530496 0.071832
H44   H     H_    0.585598 0.932562 0.573753 0.063671
H45   H     H_    0.883235 0.662083 0.571660 0.023809
H46   H     H_    0.500603 0.058474 0.583573 0.063260
H47   H     H_    0.704591 0.188874 0.473877 0.091191
H48   H     H_    0.728811 0.952321 0.424440 0.070901
H49   H     H_    0.989210 0.272466 0.718042 0.193342
H50   H     H_    0.643083 0.078244 0.434097 0.062533
H51   H     H_    0.934677 0.864023 0.454206 0.075311
H52   H     H_    0.290317 0.141986 0.553672 0.076532
H53   H     H_    0.833246 0.652508 0.476829 0.060880
H54   H     H_    0.361066 0.355345 0.527132 0.062247
H55   H     H_    0.169746 0.214219 0.707500 0.103609
H56   H     H_    0.085343 0.673362 0.551693 0.049858
H57   H     H_    0.309162 0.338540 0.430623 0.006935
H58   H     H_    0.106386 0.331990 0.451724 0.071143
H59   H     H_    0.606401 0.556837 0.617915 0.195390
H60   H     H_    0.538884 0.573400 0.675642 0.123283
H61   H     H_    0.472424 0.171088 0.709304 0.018523
H62   H     H_    0.478477 0.266867 0.717075 0.063719
H63   H     H_    0.604740 0.260004 0.801419 0.147684
H64   H     H_    0.412809 0.219647 0.795126 0.084457
H65   H     H_    0.601289 0.164691 0.794049 0.109318
H66   H     H_    0.600467 0.752863 0.398580 0.163774
H67   H     H_    0.893885 0.771520 0.629365 0.144093
H68   H     H_    0.446220 0.809086 0.382476 0.163725
H69   H     H_    0.928241 0.789886 0.566746 0.061328
H70   H     H_    0.097285 0.782522 0.610511 0.109006
N1    N     N_R   0.934222 0.502698 0.204090 -0.423386
N2    N     N_R   0.244883 0.488588 0.796179 -0.418365
N3    N     N_3   0.592365 0.596198 0.647394 -0.439445
N4    N     N_3   0.535037 0.771585 0.367949 -0.500831
O1    O     O_2   0.913240 0.537010 0.617740 -0.436835
O2    O     O_2   0.241894 0.749573 0.458242 -0.493824
O3    O     O_3   0.080869 0.736309 0.372382 -0.622305
O4    O     O_3   0.145240 0.536960 0.557560 -0.495614
O5    O     O_3   0.557280 0.416300 0.475860 -0.487746
O6    O     O_2   0.376710 0.670070 0.522470 -0.470436
O7    O     O_3   0.569486 0.695987 0.603645 -0.635341
O8    O     O_2   0.358306 0.562708 0.323904 -0.518744
O9    O     O_3   0.572371 0.658680 0.326564 -0.621560
O10   O     O_2   0.047363 0.391001 0.202974 -0.598959
O11   O     O_2   0.331896 0.373884 0.801415 -0.644409
O12   O     O_3   0.626069 0.315388 0.398926 -0.637357
O13   O     O_2   0.824372 0.614014 0.198848 -0.614307
O14   O     O_2   0.153526 0.603594 0.798606 -0.598810
O15   O     O_3   0.669960 0.410470 0.588880 -0.481389
O16   O     O_2   0.774281 0.465885 0.677997 -0.481024
O17   O     O_3   0.067694 0.649371 0.624186 -0.631866
O18   O     O_3   0.747619 0.329265 0.668568 -0.586147
O19   O     O_2   0.812980 0.329910 0.477500 -0.462259
O20   O     O_3   0.078660 0.374870 0.564770 -0.487279
O21   O     O_2   0.980396 0.249096 0.527927 -0.487053
O22   O     O_3   0.703148 0.210076 0.711642 -0.631367
O23   O     O_3   0.061603 0.256935 0.621955 -0.601627
O24   O     O_2   0.276450 0.462960 0.382230 -0.470572
O25   O     O_3   0.044470 0.462980 0.442430 -0.493570
O26   O     O_3   0.519740 0.589470 0.411120 -0.469583
O27   O     O_3   0.124575 0.350169 0.377817 -0.627286
O28   O     O_3   0.632420 0.583650 0.524140 -0.474256
O29   O     O_3   0.111040 0.625070 0.435230 -0.479762
P1    P     P_3+3 0.082480 0.557670 0.610090 0.999118
P2    P     P_3+3 0.635220 0.340300 0.462910 0.986443
P3    P     P_3+3 0.108574 0.282734 0.564408 0.941413
P4    P     P_3+3 0.107220 0.442270 0.389900 0.994019
P5    P     P_3+3 0.086847 0.717223 0.434430 0.938140
P6    P     P_3+3 0.659626 0.411018 0.653169 0.965600
P7    P     P_3+3 0.560449 0.671770 0.539275 0.949961
P8    P     P_3+3 0.530317 0.577233 0.346265 0.947875

loop_
_geom_bond_atom_site_label_1
_geom_bond_atom_site_label_2
_ccdc_geom_bond_type
C6    P4    S    
C71   H26   S    
O19   P2    D    
C53   C54   A    
O5    P2    S    
Ba1   O28   S    
C10   C72   A    
C23   O7    S    
C4    H37   S    
C72   N1    Am   
C19   C24   A    
H66   N4    S    
C51   H46   S    
C26   O14   D    
C27   O11   D    
C64   H67   S    
O8    P8    D    
C34   H14   S    
C32   H39   S    
H60   N3    S    
Ba1   O25   S    
C24   C25   A    
C60   C65   A    
C44   H54   S    
C17   C19   A    
C56   H19   S    
C22   C24   A    
C32   C33   S    
C35   C38   A    
Ba2   O25   S    
C69   H61   S    
C36   C37   A    
C55   C57   A    
C64   H70   S    
Ba1   O19   S    
O29   P5    S    
C44   C50   A    
C66   H3    S    
C54   C55   A    
Ba1   O4    S    
Ba1   Ba2   S    
C68   H7    S    
C22   C27   A    
C11   C38   A    
C17   C35   A    
Ba2   O28   S    
C55   H48   S    
C9    C13   A    
C25   C42   A    
C70   H65   S    
C29   C30   S    
C6    C7    D    
O6    P7    D    
C23   H10   S    
C67   O9    S    
C21   C22   A    
C67   C71   S    
C40   H12   S    
Ba2   O29   S    
C12   O18   S    
C7    C8    S    
O21   P3    D    
C16   H49   S    
C37   C43   A    
C66   C68   S    
C70   H64   S    
C68   H5    S    
O25   P4    S    
C57   C58   A    
Ba2   O6    S    
C39   H35   S    
C52   H45   S    
O17   P1    S    
C49   H52   S    
C15   C31   D    
C52   H56   S    
O24   P4    D    
C51   C58   A    
C48   C49   A    
C44   C46   A    
C4    O23   S    
C51   C53   A    
C34   H13   S    
Ba2   O4    S    
C71   H24   S    
C4    C16   S    
C61   C65   A    
C72   O10   D    
O15   P6    S    
C49   C50   A    
H68   N4    S    
C17   C20   A    
C13   C39   A    
O2    P5    D    
C40   H23   S    
C27   N2    Am   
C3    C5    S    
C18   C37   A    
O7    P7    S    
C64   H69   S    
C23   C34   S    
Ba1   O20   S    
O20   P3    S    
C68   H6    S    
C62   H43   S    
C33   N2    S    
C29   H29   S    
C9    C36   A    
C41   C42   A    
C50   P3    S    
O12   P2    S    
C35   C36   A    
C65   H53   S    
C60   P5    S    
Ba1   P1    S    
C21   H30   S    
C47   H47   S    
C31   C32   D    
C69   O22   S    
C23   N3    S    
C18   C19   A    
Ba1   O5    S    
C1    C12   S    
H59   N3    S    
C42   H38   S    
C7    H27   S    
C70   H63   S    
C41   H36   S    
C45   O3    S    
Ba2   O5    S    
C1    H9    S    
C15   C30   S    
C45   H16   S    
C29   C33   D    
O23   P3    S    
C12   H8    S    
C52   O17   S    
C14   H41   S    
C28   O27   S    
C69   H62   S    
C18   C41   A    
O3    P5    S    
C38   H32   S    
C3    H33   S    
C57   H50   S    
O28   P7    S    
C46   C47   A    
C61   P7    S    
C31   P1    S    
C2    O13   D    
C16   H15   S    
C45   H17   S    
C5    P8    S    
C5    C14   S    
O18   P6    S    
O9    P8    S    
Ba1   O1    S    
C67   H21   S    
C9    C10   A    
C1    O22   S    
C52   C64   S    
C54   C63   S    
C34   H11   S    
C66   H2    S    
C20   H31   S    
C12   H1    S    
C26   N2    Am   
O27   P4    S    
C48   C58   S    
C4    H25   S    
C2    C13   A    
C56   H20   S    
C3    C8    D    
O26   P8    S    
O16   P6    D    
C62   C63   A    
C45   C56   S    
Ba1   P2    S    
C40   H34   S    
C28   H58   S    
C2    N1    Am   
O1    P1    D    
C30   P6    S    
O4    P1    S    
C59   C60   A    
C8    N1    S    
C61   C62   A    
C59   C63   A    
C69   C70   S    
C43   H40   S    
C10   C11   A    
Ba1   O15   S    
C6    C14   D    
C47   C48   A    
C25   C26   A    
C67   N4    S    
C39   C43   A    
C20   C21   A    
C28   C40   S    
C16   H55   S    
C59   H51   S    
C71   H22   S    
C11   H28   S    
C66   O12   S    
C1    H4    S    
C56   H18   S    
Ba2   P4    S    
C46   P2    S    
Ba2   O26   S    
C28   H57   S    
C15   H42   S    
Ba2   O24   S    
C53   H44   S    
