data_mof_unit_23052.cif
_audit_creation_date              2012-12-10T19:20:58-0500
_audit_creation_method            fapswitch 2.2
_symmetry_space_group_name_H-M    P1
_symmetry_Int_Tables_number       1
_space_group_crystal_system       triclinic
_cell_length_a                    26.191483
_cell_length_b                    34.433419
_cell_length_c                    21.702849
_cell_angle_alpha                 90.007574
_cell_angle_beta                  127.664045
_cell_angle_gamma                 89.996246
_cell_volume                      15494.1115828

loop_
_atom_site_label
_atom_site_type_symbol
_atom_type_description
_atom_site_fract_x
_atom_site_fract_y
_atom_site_fract_z
_atom_type_partial_charge
C1    C     C_R   0.999298 0.021684 0.000434 -0.055298
C2    C     C_R   0.999438 0.979040 0.000068 -0.047612
C3    C     C_R   0.499855 0.521548 0.000092 -0.020044
C4    C     C_R   0.499891 0.478936 0.000128 -0.000411
C5    C     C_R   0.753970 0.130738 0.871075 -0.299314
C6    C     C_R   0.237848 0.860234 0.145007 -0.335520
C7    C     C_R   0.246183 0.131378 0.130336 -0.299894
C8    C     C_R   0.761767 0.861644 0.857316 -0.339017
C9    C     C_R   0.259600 0.636266 0.861697 -0.259637
C10   C     C_R   0.735571 0.362185 0.139737 -0.334139
C11   C     C_R   0.740231 0.636066 0.137789 -0.260146
C12   C     C_R   0.264338 0.362162 0.860140 -0.334999
C13   C     C_R   0.758547 0.160459 0.917358 -0.275736
C14   C     C_R   0.238377 0.835125 0.095103 -0.237117
C15   C     C_R   0.241793 0.160861 0.083788 -0.276920
C16   C     C_R   0.762125 0.835851 0.907000 -0.237921
C17   C     C_R   0.260282 0.663497 0.909306 -0.284922
C18   C     C_R   0.736373 0.336350 0.090963 -0.240449
C19   C     C_R   0.739567 0.663341 0.090266 -0.286859
C20   C     C_R   0.263547 0.336348 0.908935 -0.241703
C21   C     C_R   0.744240 0.198826 0.890409 0.119660
C22   C     C_R   0.257829 0.796434 0.116422 0.106378
C23   C     C_R   0.256154 0.199303 0.110319 0.121050
C24   C     C_R   0.742665 0.797234 0.884699 0.107370
C25   C     C_R   0.242395 0.702064 0.884915 0.123100
C26   C     C_R   0.756728 0.297927 0.114244 0.107656
C27   C     C_R   0.757463 0.701895 0.114776 0.123831
C28   C     C_R   0.243253 0.297910 0.885710 0.108221
C29   C     C_R   0.723139 0.207759 0.814342 0.387100
C30   C     C_R   0.278802 0.783100 0.190021 0.363189
C31   C     C_R   0.277417 0.208537 0.186344 0.385944
C32   C     C_R   0.721389 0.784539 0.810604 0.364241
C33   C     C_R   0.220131 0.713501 0.809426 0.384359
C34   C     C_R   0.777985 0.285546 0.188491 0.363934
C35   C     C_R   0.779720 0.713271 0.190298 0.384425
C36   C     C_R   0.222033 0.285493 0.811492 0.363922
C37   C     C_R   0.715388 0.176673 0.765527 0.287803
C38   C     C_R   0.283539 0.809482 0.243125 0.318828
C39   C     C_R   0.285102 0.177664 0.235474 0.285658
C40   C     C_R   0.716097 0.811505 0.757910 0.320325
C41   C     C_R   0.214799 0.684475 0.758541 0.257280
C42   C     C_R   0.782142 0.312623 0.240259 0.319936
C43   C     C_R   0.785047 0.684202 0.241098 0.256688
C44   C     C_R   0.217856 0.312552 0.759694 0.319746
C45   C     C_R   0.733908 0.138575 0.796208 0.397865
C46   C     C_R   0.257896 0.847312 0.218314 0.389508
C47   C     C_R   0.266183 0.139546 0.205063 0.398225
C48   C     C_R   0.740957 0.849470 0.783247 0.389873
C49   C     C_R   0.239109 0.646609 0.787723 0.402825
C50   C     C_R   0.756045 0.350246 0.213732 0.390271
C51   C     C_R   0.760711 0.646351 0.211791 0.403031
C52   C     C_R   0.243915 0.350188 0.786180 0.390609
C53   C     C_R   0.191944 0.731812 0.938908 0.402290
C54   C     C_R   0.808078 0.267840 0.061295 0.418697
C55   C     C_R   0.807974 0.731673 0.060895 0.400637
C56   C     C_R   0.191949 0.267863 0.938741 0.418246
C57   C     C_R   0.692417 0.231357 0.939817 0.400397
C58   C     C_R   0.308331 0.767179 0.061792 0.418388
C59   C     C_R   0.307722 0.231545 0.060387 0.400532
C60   C     C_R   0.691802 0.767357 0.938407 0.417735
C61   C     C_R   0.195811 0.751400 0.998909 -0.274671
C62   C     C_R   0.804443 0.248140 0.001496 -0.278056
C63   C     C_R   0.804248 0.751468 0.001169 -0.274842
C64   C     C_R   0.195640 0.248237 0.998633 -0.277783
C65   C     C_R   0.695782 0.251586 0.998843 -0.276894
C66   C     C_R   0.304120 0.748407 0.000863 -0.275854
C67   C     C_R   0.304260 0.251645 0.001202 -0.276720
C68   C     C_R   0.695889 0.748415 0.999120 -0.275924
C69   C     C_R   0.253814 0.770323 0.059020 -0.074257
C70   C     C_R   0.746910 0.228399 0.942364 -0.061227
C71   C     C_R   0.746402 0.770629 0.941355 -0.074046
C72   C     C_R   0.253277 0.228642 0.057932 -0.061188
C73   C     C_R   0.753410 0.271065 0.058238 -0.074630
C74   C     C_R   0.246035 0.729531 0.940496 -0.058871
C75   C     C_R   0.246600 0.271077 0.941759 -0.074591
C76   C     C_R   0.753891 0.729420 0.059323 -0.058736
C77   C     C_R   0.840506 0.245629 0.585784 0.496292
C78   C     C_R   0.182941 0.720699 0.417409 0.499716
C79   C     C_R   0.159658 0.245736 0.414278 0.496175
C80   C     C_R   0.816200 0.720553 0.582474 0.498637
C81   C     C_R   0.338630 0.744498 0.585249 0.494789
C82   C     C_R   0.685306 0.219396 0.417181 0.497926
C83   C     C_R   0.660857 0.745364 0.414635 0.496356
C84   C     C_R   0.314818 0.219600 0.582719 0.498318
C85   C     C_R   0.139847 0.249298 0.999291 0.870212
C86   C     C_R   0.860069 0.750567 0.000539 0.831700
C87   C     C_R   0.860182 0.249270 0.000757 0.870659
C88   C     C_R   0.139951 0.750546 0.999488 0.831273
C89   C     C_R   0.639960 0.749407 0.999513 0.869572
C90   C     C_R   0.360100 0.250631 0.000596 0.831843
C91   C     C_R   0.360038 0.749412 0.000472 0.869654
C92   C     C_R   0.639905 0.250625 0.999400 0.831772
C93   C     C_R   0.880319 0.247360 0.666922 -0.349863
C94   C     C_R   0.141323 0.721579 0.336010 -0.350549
C95   C     C_R   0.119791 0.247354 0.333142 -0.348801
C96   C     C_R   0.857989 0.721383 0.663867 -0.349393
C97   C     C_R   0.379061 0.745770 0.666318 -0.343819
C98   C     C_R   0.643224 0.220472 0.335929 -0.343017
C99   C     C_R   0.620623 0.746511 0.333561 -0.343981
C100  C     C_R   0.356875 0.220610 0.663990 -0.344026
C101  C     C_R   0.853359 0.249306 0.705842 -0.124302
C102  C     C_R   0.147964 0.750249 0.295584 -0.152335
C103  C     C_R   0.146693 0.249366 0.294159 -0.125210
C104  C     C_R   0.851887 0.750244 0.704459 -0.152178
C105  C     C_R   0.352861 0.749519 0.705893 -0.131048
C106  C     C_R   0.648528 0.249851 0.295494 -0.154985
C107  C     C_R   0.647051 0.749567 0.294147 -0.132790
C108  C     C_R   0.351538 0.249930 0.704502 -0.154583
C109  C     C_R   0.786663 0.250734 0.664315 -0.273890
C110  C     C_R   0.195860 0.778688 0.336876 -0.271940
C111  C     C_R   0.213379 0.250955 0.335629 -0.272986
C112  C     C_R   0.804323 0.778890 0.663364 -0.275822
C113  C     C_R   0.286369 0.752835 0.665030 -0.286460
C114  C     C_R   0.695692 0.278689 0.336723 -0.277853
C115  C     C_R   0.713618 0.752412 0.335197 -0.283498
C116  C     C_R   0.304387 0.278783 0.663347 -0.277507
C117  C     C_R   0.746229 0.251934 0.583275 0.470972
C118  C     C_R   0.236055 0.779254 0.417949 0.470387
C119  C     C_R   0.253844 0.252250 0.416665 0.472178
C120  C     C_R   0.763962 0.779456 0.582301 0.470523
C121  C     C_R   0.245518 0.754187 0.583957 0.477990
C122  C     C_R   0.736422 0.278945 0.417800 0.474402
C123  C     C_R   0.754338 0.753923 0.416244 0.478392
C124  C     C_R   0.263698 0.279110 0.582274 0.473686
C125  C     C_R   0.773250 0.249007 0.543641 -0.077377
C126  C     C_R   0.229294 0.750184 0.458380 -0.064395
C127  C     C_R   0.226885 0.249254 0.456361 -0.077916
C128  C     C_R   0.770217 0.750242 0.541689 -0.067289
C129  C     C_R   0.271770 0.749737 0.543723 -0.081141
C130  C     C_R   0.731074 0.249191 0.458286 -0.068293
C131  C     C_R   0.727848 0.750037 0.456340 -0.081389
C132  C     C_R   0.269090 0.249417 0.541713 -0.068040
C133  C     C_R   0.033205 0.042222 0.071540 0.482308
C134  C     C_R   0.941241 0.958586 0.965290 0.464836
C135  C     C_R   0.966477 0.041969 0.929418 0.504104
C136  C     C_R   0.057702 0.958885 0.034056 0.479681
C137  C     C_R   0.534489 0.541802 0.071110 0.485977
C138  C     C_R   0.443349 0.458699 0.974096 0.475412
C139  C     C_R   0.465266 0.541765 0.929042 0.486051
C140  C     C_R   0.556471 0.458748 0.026151 0.475489
C141  C     C_R   0.034092 0.082674 0.070754 -0.336116
C142  C     C_R   0.941964 0.918029 0.965194 -0.353640
C143  C     C_R   0.965551 0.082572 0.929784 -0.374721
C144  C     C_R   0.057588 0.918275 0.034554 -0.362548
C145  C     C_R   0.536108 0.582429 0.070594 -0.345760
C146  C     C_R   0.443468 0.418058 0.972790 -0.370009
C147  C     C_R   0.463743 0.582398 0.929502 -0.346165
C148  C     C_R   0.556428 0.418107 0.027375 -0.370112
C149  C     C_R   0.999840 0.102776 0.000215 -0.098411
C150  C     C_R   0.999908 0.897760 0.000122 -0.106018
C151  C     C_R   0.499963 0.602633 0.000035 -0.095064
C152  C     C_R   0.499967 0.397716 0.000059 -0.099718
C153  C     C_R   0.104934 0.249851 0.209885 0.839907
C154  C     C_R   0.894750 0.750127 0.789635 0.828303
C155  C     C_R   0.895066 0.249847 0.790116 0.839491
C156  C     C_R   0.105236 0.750131 0.210379 0.828434
C157  C     C_R   0.604959 0.749855 0.209879 0.838524
C158  C     C_R   0.394702 0.250075 0.789648 0.828848
C159  C     C_R   0.395044 0.749842 0.790136 0.838342
C160  C     C_R   0.605310 0.250064 0.210350 0.828794
C161  C     C_R   0.999970 0.144957 0.000072 0.831553
C162  C     C_R   0.999998 0.855229 0.000026 0.847447
C163  C     C_R   0.499995 0.644909 0.000003 0.830741
C164  C     C_R   0.499996 0.355213 0.000009 0.846167
C165  C     C_R   0.999975 0.355034 0.999983 0.847025
C166  C     C_R   0.999956 0.644971 0.999954 0.838697
C167  C     C_R   0.499988 0.855006 0.999992 0.847044
C168  C     C_R   0.499992 0.144976 0.999989 0.840502
C169  C     C_R   0.976020 0.458004 0.930123 0.491755
C170  C     C_R   0.960770 0.541889 0.014569 0.493635
C171  C     C_R   0.018984 0.458355 0.066617 0.478321
C172  C     C_R   0.033396 0.541675 0.979313 0.468006
C173  C     C_R   0.477416 0.958000 0.931158 0.482503
C174  C     C_R   0.466488 0.041903 0.021741 0.479826
C175  C     C_R   0.522107 0.958062 0.068417 0.482368
C176  C     C_R   0.533012 0.041864 0.977725 0.479279
C177  C     C_R   0.979084 0.417554 0.931988 -0.316906
C178  C     C_R   0.964151 0.582509 0.018385 -0.345142
C179  C     C_R   0.018106 0.417872 0.066060 -0.301643
C180  C     C_R   0.032432 0.582135 0.978099 -0.311553
C181  C     C_R   0.479580 0.917571 0.932567 -0.304710
C182  C     C_R   0.468468 0.082338 0.023785 -0.311315
C183  C     C_R   0.520118 0.917628 0.067176 -0.304864
C184  C     C_R   0.531235 0.082305 0.975894 -0.311918
C185  C     C_R   0.999352 0.397412 0.999469 -0.135875
C186  C     C_R   0.999090 0.602598 0.999149 -0.125368
C187  C     C_R   0.499902 0.897335 0.999917 -0.138903
C188  C     C_R   0.499913 0.102612 0.999909 -0.141680
C189  C     C_R   0.997439 0.478667 0.998112 -0.081800
C190  C     C_R   0.997315 0.521380 0.997491 -0.075566
C191  C     C_R   0.499729 0.978597 0.999750 -0.110184
C192  C     C_R   0.499719 0.021328 0.999706 -0.108546
H1    H     H_    0.932138 0.246069 0.699633 0.161304
H2    H     H_    0.104291 0.699601 0.304522 0.175063
H3    H     H_    0.067988 0.245904 0.300500 0.161430
H4    H     H_    0.894743 0.699239 0.695209 0.175296
H5    H     H_    0.430610 0.742599 0.698360 0.161631
H6    H     H_    0.606835 0.198108 0.304648 0.178556
H7    H     H_    0.569001 0.743774 0.301380 0.162315
H8    H     H_    0.393259 0.198244 0.695233 0.178063
O1    O     O_3   0.000000 0.250000 0.000000 -0.496965
O2    O     O_3   0.000000 0.750000 0.000000 -0.480318
O3    O     O_3   0.500000 0.750000 0.000000 -0.494288
O4    O     O_3   0.500000 0.250000 0.000000 -0.480277
O5    O     O_R   0.093070 0.272740 0.954520 -0.600967
O6    O     O_R   0.906930 0.727260 0.045480 -0.592294
O7    O     O_R   0.906930 0.272740 0.045480 -0.600865
O8    O     O_R   0.093070 0.727260 0.954520 -0.591298
O9    O     O_R   0.593070 0.772740 0.954520 -0.599328
O10   O     O_R   0.406930 0.227260 0.045480 -0.590436
O11   O     O_R   0.406930 0.772740 0.045480 -0.599488
O12   O     O_R   0.593070 0.227260 0.954520 -0.590511
O13   O     O_R   0.117100 0.227270 0.173460 -0.637433
O14   O     O_R   0.882900 0.772730 0.826540 -0.671091
O15   O     O_R   0.882900 0.227270 0.826540 -0.635997
O16   O     O_R   0.117100 0.772730 0.173460 -0.671232
O17   O     O_R   0.617100 0.727270 0.173460 -0.651182
O18   O     O_R   0.382900 0.272730 0.826540 -0.671210
O19   O     O_R   0.382900 0.727270 0.826540 -0.651184
O20   O     O_R   0.617100 0.272730 0.173460 -0.671189
O21   O     O_R   0.053120 0.163270 0.045480 -0.659577
O22   O     O_R   0.946880 0.836730 0.954520 -0.655546
O23   O     O_R   0.946880 0.163270 0.954520 -0.656849
O24   O     O_R   0.053120 0.836730 0.045480 -0.658152
O25   O     O_R   0.553120 0.663270 0.045480 -0.657132
O26   O     O_R   0.446880 0.336730 0.954520 -0.657487
O27   O     O_R   0.446880 0.663270 0.954520 -0.657097
O28   O     O_R   0.553120 0.336730 0.045480 -0.657464
O29   O     O_R   0.007620 0.336730 0.954520 -0.636319
O30   O     O_R   0.992380 0.663270 0.045480 -0.641468
O31   O     O_R   0.992380 0.336730 0.045480 -0.636043
O32   O     O_R   0.007620 0.663270 0.954520 -0.641725
O33   O     O_R   0.507620 0.836730 0.954520 -0.636519
O34   O     O_R   0.492380 0.163270 0.045480 -0.641826
O35   O     O_R   0.492380 0.836730 0.045480 -0.636461
O36   O     O_R   0.507620 0.163270 0.954520 -0.641818
O37   O     O_R   0.056370 0.272740 0.173460 -0.645183
O38   O     O_R   0.943630 0.727260 0.826540 -0.644912
O39   O     O_R   0.943630 0.272740 0.826540 -0.645529
O40   O     O_R   0.056370 0.727260 0.173460 -0.645180
O41   O     O_R   0.556370 0.772740 0.173460 -0.641076
O42   O     O_R   0.443630 0.227260 0.826540 -0.645459
O43   O     O_R   0.443630 0.772740 0.826540 -0.641203
O44   O     O_R   0.556370 0.227260 0.173460 -0.645440
O45   O     O_R   0.138550 0.227260 0.045470 -0.641356
O46   O     O_R   0.861450 0.772740 0.954530 -0.672638
O47   O     O_R   0.861450 0.227260 0.954530 -0.640708
O48   O     O_R   0.138550 0.772740 0.045470 -0.672324
O49   O     O_R   0.638550 0.727260 0.045470 -0.645189
O50   O     O_R   0.361450 0.272740 0.954530 -0.673518
O51   O     O_R   0.361450 0.727260 0.954530 -0.645461
O52   O     O_R   0.638550 0.272740 0.045470 -0.673472
Zn1   Zn    Zn3+2 0.989110 0.282490 0.064980 0.983942
Zn2   Zn    Zn3+2 0.010890 0.717510 0.935020 0.964700
Zn3   Zn    Zn3+2 0.010890 0.282490 0.935020 0.982902
Zn4   Zn    Zn3+2 0.989110 0.717510 0.064980 0.962710
Zn5   Zn    Zn3+2 0.489110 0.782490 0.064980 0.984864
Zn6   Zn    Zn3+2 0.510890 0.217510 0.935020 0.964650
Zn7   Zn    Zn3+2 0.510890 0.782490 0.935020 0.984718
Zn8   Zn    Zn3+2 0.489110 0.217510 0.064980 0.964685
Zn9   Zn    Zn3+2 0.075880 0.217510 0.064980 0.952062
Zn10  Zn    Zn3+2 0.924120 0.782490 0.935020 0.924248
Zn11  Zn    Zn3+2 0.924120 0.217510 0.935020 0.954020
Zn12  Zn    Zn3+2 0.075880 0.782490 0.064980 0.923050
Zn13  Zn    Zn3+2 0.575880 0.717510 0.064980 0.944170
Zn14  Zn    Zn3+2 0.424120 0.282490 0.935020 0.922859
Zn15  Zn    Zn3+2 0.424120 0.717510 0.935020 0.943938
Zn16  Zn    Zn3+2 0.575880 0.282490 0.064980 0.922862
O53   O     O_3   0.953883 0.477393 0.862226 -0.556539
C193  C     C_3   0.886082 0.480110 0.815887 0.091181
H9    H     H_    0.870457 0.493471 0.848715 0.124876
H10   H     H_    0.863685 0.450858 0.794670 0.132302
C194  C     C_3   0.861789 0.505675 0.745788 -0.806083
H11   H     H_    0.875619 0.492927 0.710867 0.261534
H12   H     H_    0.808423 0.507996 0.708714 0.192171
H13   H     H_    0.882974 0.535203 0.765423 0.259213
O54   O     O_3   0.924741 0.521554 0.031145 -0.559697
C195  C     C_3   0.859102 0.532417 0.979198 0.088912
H14   H     H_    0.842509 0.535955 0.918369 0.110682
H15   H     H_    0.850946 0.559955 0.998765 0.149413
C196  C     C_3   0.818179 0.500901 0.978704 -0.808171
H16   H     H_    0.832027 0.497241 0.038015 0.270366
H17   H     H_    0.766425 0.509057 0.938091 0.191504
H18   H     H_    0.825302 0.472938 0.959345 0.251161
O55   O     O_3   0.036338 0.477719 0.132713 -0.552294
C197  C     C_3   0.103051 0.485643 0.180077 0.082748
H19   H     H_    0.113737 0.507839 0.152206 0.114207
H20   H     H_    0.131740 0.458862 0.192017 0.121572
C198  C     C_3   0.123944 0.501958 0.257454 -0.792767
H21   H     H_    0.114432 0.480412 0.287424 0.255981
H22   H     H_    0.176345 0.508608 0.295153 0.190269
H23   H     H_    0.096898 0.529067 0.247646 0.262182
O56   O     O_3   0.065775 0.522247 0.956777 -0.552534
C199  C     C_3   0.130050 0.515785 0.022853 0.084354
H24   H     H_    0.131657 0.493693 0.061347 0.114432
H25   H     H_    0.153620 0.543098 0.056270 0.122044
C200  C     C_3   0.168401 0.500195 0.996749 -0.783403
H26   H     H_    0.168396 0.521716 0.958625 0.257747
H27   H     H_    0.218983 0.494585 0.048326 0.186888
H28   H     H_    0.146719 0.472616 0.964136 0.267245
O57   O     O_3   0.457254 0.977022 0.863594 -0.549509
C201  C     C_3   0.390638 0.984768 0.819224 0.091104
H29   H     H_    0.381546 0.007194 0.848318 0.115457
H30   H     H_    0.362690 0.957971 0.809613 0.119517
C202  C     C_3   0.366517 0.000554 0.740204 -0.793924
H31   H     H_    0.374359 0.978761 0.709003 0.254883
H32   H     H_    0.314164 0.007056 0.704820 0.189676
H33   H     H_    0.392781 0.027664 0.747720 0.264183
O58   O     O_3   0.435445 0.022830 0.046440 -0.549414
C203  C     C_3   0.370659 0.016223 0.981805 0.091592
H34   H     H_    0.367962 0.993608 0.943355 0.116719
H35   H     H_    0.346764 0.043341 0.947761 0.119426
C204  C     C_3   0.333737 0.001496 0.010445 -0.787524
H36   H     H_    0.334962 0.023543 0.048698 0.256771
H37   H     H_    0.282729 0.995829 0.960063 0.186915
H38   H     H_    0.355698 0.974097 0.043662 0.268519
O59   O     O_3   0.542187 0.977152 0.135895 -0.549620
C205  C     C_3   0.608819 0.984864 0.180364 0.091334
H39   H     H_    0.618030 0.007146 0.151166 0.115258
H40   H     H_    0.636765 0.958015 0.190291 0.119787
C206  C     C_3   0.632793 0.000884 0.259182 -0.794192
H41   H     H_    0.624833 0.979238 0.290483 0.255000
H42   H     H_    0.685160 0.007357 0.294642 0.189522
H43   H     H_    0.606521 0.028047 0.251340 0.264170
O60   O     O_3   0.563866 0.022745 0.952815 -0.549313
C207  C     C_3   0.628762 0.016251 0.017234 0.093044
H44   H     H_    0.631731 0.993833 0.056162 0.116320
H45   H     H_    0.652718 0.043470 0.050822 0.119647
C208  C     C_3   0.665326 0.001242 0.988295 -0.790065
H46   H     H_    0.663785 0.023080 0.949520 0.256498
H47   H     H_    0.716436 0.995687 0.038497 0.187080
H48   H     H_    0.643305 0.973734 0.955545 0.268588
H49   H     H_    0.766392 0.252119 0.695134 0.199357
H50   H     H_    0.201926 0.800794 0.306351 0.223432
H51   H     H_    0.233616 0.252387 0.304768 0.199541
H52   H     H_    0.798668 0.801180 0.693996 0.221206
H53   H     H_    0.266624 0.755455 0.696354 0.198895
H54   H     H_    0.700629 0.301420 0.306195 0.221070
H55   H     H_    0.733544 0.754570 0.304022 0.200505
H56   H     H_    0.299413 0.301464 0.693934 0.221202
O61   O     O_3   0.680176 0.253217 0.543295 -0.574452
C209  C     C_3   0.659987 0.292339 0.528804 0.078216
H57   H     H_    0.666818 0.305580 0.487632 0.116153
H58   H     H_    0.686648 0.309569 0.583738 0.127921
C210  C     C_3   0.588384 0.294188 0.491056 -0.845691
H59   H     H_    0.579625 0.283486 0.532067 0.239263
H60   H     H_    0.571298 0.324686 0.475343 0.204628
H61   H     H_    0.560599 0.276143 0.437453 0.261406
O62   O     O_3   0.285792 0.806017 0.456466 -0.567782
C211  C     C_3   0.269045 0.837037 0.483451 0.087928
H62   H     H_    0.275328 0.828344 0.536989 0.125441
H63   H     H_    0.218526 0.847085 0.438761 0.109048
C212  C     C_3   0.314089 0.870989 0.504269 -0.800283
H64   H     H_    0.309231 0.880652 0.452122 0.264117
H65   H     H_    0.364837 0.862143 0.550208 0.259958
H66   H     H_    0.301819 0.895593 0.526154 0.200322
O63   O     O_3   0.319879 0.253688 0.456570 -0.574487
C213  C     C_3   0.339893 0.292846 0.471417 0.077804
H67   H     H_    0.333247 0.305805 0.512953 0.116368
H68   H     H_    0.312975 0.310237 0.416680 0.127877
C214  C     C_3   0.411408 0.294905 0.508799 -0.846465
H69   H     H_    0.419964 0.284531 0.467418 0.239230
H70   H     H_    0.428379 0.325409 0.524862 0.204901
H71   H     H_    0.439441 0.276690 0.562149 0.261406
O64   O     O_3   0.714682 0.806497 0.543834 -0.566227
C215  C     C_3   0.733056 0.837860 0.519463 0.087637
H72   H     H_    0.729468 0.829489 0.467512 0.122529
H73   H     H_    0.783004 0.848026 0.566431 0.110224
C216  C     C_3   0.686978 0.871527 0.496309 -0.799680
H74   H     H_    0.688977 0.880783 0.546734 0.263185
H75   H     H_    0.636889 0.862557 0.448071 0.260530
H76   H     H_    0.700670 0.896447 0.476687 0.199769
O65   O     O_3   0.179661 0.757055 0.544445 -0.572979
C217  C     C_3   0.162091 0.796627 0.531984 0.077817
H77   H     H_    0.170042 0.809773 0.491745 0.114776
H78   H     H_    0.189701 0.813130 0.587820 0.128791
C218  C     C_3   0.090592 0.800173 0.493981 -0.846623
H79   H     H_    0.080897 0.789628 0.534220 0.239554
H80   H     H_    0.075556 0.831061 0.479815 0.205425
H81   H     H_    0.061802 0.782849 0.439444 0.260587
O66   O     O_3   0.784747 0.306566 0.456395 -0.566323
C219  C     C_3   0.764707 0.337579 0.479518 0.085280
H82   H     H_    0.768782 0.329230 0.531810 0.123646
H83   H     H_    0.714235 0.346823 0.432239 0.110540
C220  C     C_3   0.808910 0.372135 0.501240 -0.798653
H84   H     H_    0.805872 0.381551 0.450173 0.262102
H85   H     H_    0.859558 0.364077 0.549326 0.261130
H86   H     H_    0.794233 0.396665 0.520531 0.200136
O67   O     O_3   0.820243 0.756306 0.455721 -0.572856
C221  C     C_3   0.839071 0.795656 0.471504 0.079265
H87   H     H_    0.833064 0.807495 0.514329 0.116517
H88   H     H_    0.810904 0.813515 0.417367 0.127262
C222  C     C_3   0.910166 0.798848 0.507340 -0.849223
H89   H     H_    0.918003 0.789488 0.464792 0.239833
H90   H     H_    0.926263 0.829460 0.523935 0.205813
H91   H     H_    0.939456 0.780336 0.560167 0.260529
O68   O     O_3   0.215311 0.306698 0.543759 -0.566259
C223  C     C_3   0.235184 0.337732 0.520490 0.085948
H92   H     H_    0.231008 0.329390 0.468125 0.123547
H93   H     H_    0.285657 0.347017 0.567664 0.110375
C224  C     C_3   0.190925 0.372248 0.498851 -0.799763
H94   H     H_    0.194052 0.381658 0.549985 0.262361
H95   H     H_    0.140271 0.364148 0.450860 0.261010
H96   H     H_    0.205474 0.396797 0.479456 0.199639
O69   O     O_3   0.069374 0.023291 0.142544 -0.574565
C225  C     C_3   0.028628 0.011718 0.161285 0.086310
H97   H     H_    0.003242 0.984441 0.130010 0.129489
H98   H     H_    0.992464 0.034461 0.146946 0.117775
C226  C     C_3   0.069335 0.003672 0.248173 -0.839989
H99   H     H_    0.092214 0.030928 0.281408 0.242522
H100  H     H_    0.038380 0.991918 0.262703 0.200713
H101  H     H_    0.107547 0.982176 0.265428 0.266213
O70   O     O_3   0.883136 0.978319 0.924952 -0.574101
C227  C     C_3   0.858837 0.977181 0.967709 0.054774
H102  H     H_    0.892054 0.992456 0.024318 0.115469
H103  H     H_    0.851327 0.946805 0.978241 0.127459
C228  C     C_3   0.794100 0.997912 0.921588 -0.786139
H104  H     H_    0.759340 0.982943 0.865081 0.259523
H105  H     H_    0.774678 0.997777 0.954955 0.199909
H106  H     H_    0.799941 0.028459 0.910416 0.255945
O71   O     O_3   0.933336 0.021667 0.859935 -0.571724
C229  C     C_3   0.963964 0.027146 0.825054 0.082958
H107  H     H_    0.017327 0.023704 0.867839 0.123311
H108  H     H_    0.952759 0.056453 0.798123 0.129176
C230  C     C_3   0.939016 0.996911 0.761524 -0.844817
H109  H     H_    0.885834 0.999470 0.717583 0.261778
H110  H     H_    0.961631 0.001364 0.732366 0.201477
H111  H     H_    0.951230 0.967338 0.787312 0.249485
O72   O     O_3   0.114887 0.979289 0.070100 -0.578807
C231  C     C_3   0.138722 0.974906 0.027134 0.079763
H112  H     H_    0.100056 0.978748 0.963429 0.123051
H113  H     H_    0.161072 0.945795 0.037787 0.132814
C232  C     C_3   0.190077 0.005594 0.053455 -0.808580
H114  H     H_    0.230072 0.002271 0.116588 0.270290
H115  H     H_    0.209671 0.002384 0.020553 0.200636
H116  H     H_    0.168785 0.035040 0.042680 0.245428
O73   O     O_3   0.568829 0.521348 0.140476 -0.583780
C233  C     C_3   0.541802 0.528281 0.179284 0.077183
H117  H     H_    0.488052 0.526739 0.138876 0.126287
H118  H     H_    0.556836 0.557244 0.207834 0.138549
C234  C     C_3   0.566057 0.497541 0.241755 -0.841379
H119  H     H_    0.619596 0.498036 0.283096 0.267218
H120  H     H_    0.546685 0.503293 0.274288 0.201726
H121  H     H_    0.549654 0.468385 0.214380 0.244345
O74   O     O_3   0.387475 0.479170 0.945942 -0.584232
C235  C     C_3   0.369190 0.472619 0.994290 0.077588
H122  H     H_    0.411215 0.474242 0.057284 0.125605
H123  H     H_    0.345707 0.443752 0.981689 0.135457
C236  C     C_3   0.320948 0.503608 0.977943 -0.812074
H124  H     H_    0.277649 0.502330 0.915945 0.270429
H125  H     H_    0.305928 0.498761 0.015373 0.199363
H126  H     H_    0.343272 0.532839 0.990527 0.246643
O75   O     O_3   0.430937 0.521273 0.859709 -0.583602
C237  C     C_3   0.457906 0.528202 0.820833 0.077229
H127  H     H_    0.511669 0.526814 0.861234 0.126119
H128  H     H_    0.442645 0.557100 0.792039 0.138633
C238  C     C_3   0.433881 0.497338 0.758623 -0.841566
H129  H     H_    0.380339 0.497679 0.717286 0.267195
H130  H     H_    0.453201 0.503084 0.726032 0.201725
H131  H     H_    0.450515 0.468248 0.786247 0.244350
O76   O     O_3   0.612296 0.479266 0.054293 -0.584366
C239  C     C_3   0.630514 0.472811 0.005852 0.078124
H132  H     H_    0.588419 0.474276 0.942868 0.125642
H133  H     H_    0.654297 0.444037 0.018612 0.136001
C240  C     C_3   0.678367 0.504000 0.021869 -0.812147
H134  H     H_    0.721736 0.502894 0.083843 0.270223
H135  H     H_    0.693334 0.499218 0.984375 0.199291
H136  H     H_    0.655721 0.533139 0.009110 0.246290
H137  H     H_    0.060238 0.098425 0.125294 0.155507
H138  H     H_    0.897167 0.902414 0.938121 0.159746
H139  H     H_    0.939285 0.098361 0.875301 0.146409
H140  H     H_    0.102433 0.902819 0.061009 0.156090
H141  H     H_    0.564087 0.598215 0.125041 0.154736
H142  H     H_    0.399713 0.402397 0.951413 0.156710
H143  H     H_    0.435779 0.598161 0.875033 0.154848
H144  H     H_    0.600205 0.402488 0.048691 0.156564
H145  H     H_    0.963781 0.401950 0.879880 0.186540
H146  H     H_    0.938558 0.598411 0.034937 0.178959
H147  H     H_    0.033338 0.402500 0.118357 0.189014
H148  H     H_    0.059065 0.597486 0.962345 0.192300
H149  H     H_    0.463788 0.902037 0.880195 0.188831
H150  H     H_    0.444068 0.097824 0.042487 0.194664
H151  H     H_    0.535967 0.902139 0.119606 0.188855
H152  H     H_    0.555676 0.097765 0.957227 0.194580
O77   O     O_3   0.730549 0.108490 0.751795 -0.618487
C241  C     C_3   0.791775 0.103769 0.769679 0.127873
H153  H     H_    0.827688 0.094318 0.831215 0.160113
H154  H     H_    0.808389 0.131238 0.759785 0.160570
C242  C     C_3   0.787612 0.072611 0.717123 -0.781309
H155  H     H_    0.750328 0.080554 0.655121 0.247097
H156  H     H_    0.834773 0.069837 0.728177 0.213109
H157  H     H_    0.774882 0.044246 0.728858 0.277641
O78   O     O_3   0.256142 0.871305 0.268474 -0.623296
C243  C     C_3   0.195044 0.889149 0.229601 0.118811
H158  H     H_    0.154889 0.869064 0.187486 0.162494
H159  H     H_    0.192869 0.915735 0.199031 0.177527
C244  C     C_3   0.184943 0.901195 0.288761 -0.840484
H160  H     H_    0.223057 0.921954 0.331278 0.260221
H161  H     H_    0.137080 0.915290 0.258438 0.211779
H162  H     H_    0.186379 0.875208 0.319925 0.249037
O79   O     O_3   0.268255 0.109842 0.249252 -0.617388
C245  C     C_3   0.206714 0.106390 0.230963 0.128548
H163  H     H_    0.170406 0.097644 0.169047 0.161308
H164  H     H_    0.191592 0.134219 0.241816 0.161656
C246  C     C_3   0.208820 0.075246 0.282083 -0.769885
H165  H     H_    0.246340 0.082434 0.344434 0.244740
H166  H     H_    0.161324 0.073587 0.270436 0.218205
H167  H     H_    0.219961 0.046593 0.269333 0.280960
O80   O     O_3   0.740320 0.874399 0.732424 -0.625525
C247  C     C_3   0.800107 0.893683 0.769894 0.119574
H168  H     H_    0.841656 0.873865 0.809381 0.157282
H169  H     H_    0.802238 0.919123 0.802917 0.182754
C248  C     C_3   0.806480 0.908643 0.709038 -0.828011
H170  H     H_    0.765605 0.928252 0.667679 0.260117
H171  H     H_    0.852356 0.924963 0.737939 0.222829
H172  H     H_    0.806847 0.883858 0.676682 0.245238
O81   O     O_3   0.241240 0.618678 0.743567 -0.612025
C249  C     C_3   0.291232 0.627820 0.738637 0.136338
H173  H     H_    0.336673 0.636007 0.796406 0.150614
H174  H     H_    0.276471 0.652027 0.696919 0.195976
C250  C     C_3   0.305135 0.592427 0.709168 -0.857379
H175  H     H_    0.260775 0.583335 0.651700 0.267000
H176  H     H_    0.343115 0.599501 0.702900 0.189998
H177  H     H_    0.321939 0.568034 0.750909 0.299106
O82   O     O_3   0.754787 0.375132 0.263156 -0.624339
C251  C     C_3   0.693538 0.392733 0.224430 0.122466
H178  H     H_    0.653448 0.372168 0.184290 0.161142
H179  H     H_    0.690164 0.418626 0.191535 0.181914
C252  C     C_3   0.684977 0.406202 0.284268 -0.830168
H180  H     H_    0.723705 0.427024 0.325422 0.262626
H181  H     H_    0.637499 0.420716 0.254402 0.218011
H182  H     H_    0.686764 0.380851 0.317072 0.245265
O83   O     O_3   0.758545 0.618375 0.255844 -0.612128
C253  C     C_3   0.708642 0.627527 0.260932 0.136080
H183  H     H_    0.663178 0.635740 0.203219 0.150575
H184  H     H_    0.723473 0.651719 0.302710 0.196063
C254  C     C_3   0.694778 0.592133 0.290424 -0.856052
H185  H     H_    0.739157 0.583056 0.347885 0.266783
H186  H     H_    0.656814 0.599201 0.296726 0.190157
H187  H     H_    0.677972 0.567735 0.248684 0.299535
O84   O     O_3   0.245207 0.375048 0.736757 -0.624323
C255  C     C_3   0.306444 0.392673 0.775533 0.122589
H188  H     H_    0.346543 0.372130 0.815743 0.161203
H189  H     H_    0.309754 0.418582 0.808366 0.181966
C256  C     C_3   0.315079 0.406115 0.715752 -0.830544
H190  H     H_    0.276361 0.426926 0.674549 0.262515
H191  H     H_    0.362559 0.420629 0.745662 0.218017
H192  H     H_    0.313341 0.380749 0.683004 0.245386
H193  H     H_    0.766258 0.101363 0.893483 0.177607
H194  H     H_    0.222046 0.889823 0.126466 0.157911
H195  H     H_    0.233549 0.101961 0.108158 0.182589
H196  H     H_    0.777116 0.891233 0.876579 0.161166
H197  H     H_    0.275947 0.606939 0.882774 0.191528
H198  H     H_    0.719425 0.391606 0.119884 0.160999
H199  H     H_    0.723875 0.606749 0.116622 0.191499
H200  H     H_    0.280441 0.391594 0.879952 0.161070
H201  H     H_    0.773652 0.153595 0.975043 0.168135
H202  H     H_    0.222320 0.845657 0.038793 0.164814
H203  H     H_    0.226597 0.153777 0.026144 0.167943
H204  H     H_    0.778440 0.845883 0.963710 0.164945
H205  H     H_    0.276574 0.654756 0.966691 0.167388
H206  H     H_    0.720061 0.346145 0.034126 0.164395
H207  H     H_    0.723287 0.654643 0.032862 0.166345
H208  H     H_    0.279825 0.346169 0.965748 0.163958
O85   O     O_3   0.719538 0.246910 0.795388 -0.612437
C257  C     C_3   0.663702 0.256240 0.719791 0.127202
H209  H     H_    0.620624 0.239473 0.702994 0.126663
H210  H     H_    0.671987 0.251193 0.676242 0.221074
C258  C     C_3   0.649571 0.299419 0.716268 -0.909971
H211  H     H_    0.689402 0.316653 0.725043 0.259057
H212  H     H_    0.603927 0.306732 0.658501 0.214826
H213  H     H_    0.644850 0.307450 0.762081 0.252185
O86   O     O_3   0.300994 0.745427 0.212830 -0.620787
C259  C     C_3   0.255543 0.723353 0.212812 0.164319
H214  H     H_    0.208982 0.721612 0.153312 0.128209
H215  H     H_    0.246889 0.735609 0.253127 0.185764
C260  C     C_3   0.281156 0.682292 0.239536 -0.885782
H216  H     H_    0.327784 0.682899 0.299091 0.265327
H217  H     H_    0.246040 0.664636 0.240258 0.204429
H218  H     H_    0.288583 0.668662 0.199167 0.251978
O87   O     O_3   0.281159 0.247776 0.204882 -0.613430
C261  C     C_3   0.336843 0.257216 0.280523 0.127917
H219  H     H_    0.379954 0.240358 0.297679 0.127267
H220  H     H_    0.328299 0.252404 0.323906 0.221198
C262  C     C_3   0.351110 0.300353 0.283744 -0.910536
H221  H     H_    0.311205 0.317711 0.274522 0.259453
H222  H     H_    0.396636 0.307739 0.341574 0.214742
H223  H     H_    0.356130 0.308159 0.238091 0.251940
O88   O     O_3   0.699111 0.746943 0.786851 -0.621426
C263  C     C_3   0.744203 0.725204 0.785620 0.164294
H224  H     H_    0.791166 0.723407 0.844700 0.130228
H225  H     H_    0.752014 0.737783 0.744781 0.187972
C264  C     C_3   0.718769 0.684124 0.758719 -0.889630
H226  H     H_    0.671690 0.684763 0.699618 0.265682
H227  H     H_    0.753538 0.666755 0.756859 0.205035
H228  H     H_    0.712274 0.670161 0.799647 0.251201
O89   O     O_3   0.213610 0.753310 0.793693 -0.621278
C265  C     C_3   0.159290 0.763113 0.717388 0.134671
H229  H     H_    0.116427 0.745022 0.697059 0.134522
H230  H     H_    0.170655 0.760487 0.676143 0.223400
C266  C     C_3   0.142349 0.805619 0.715607 -0.916596
H231  H     H_    0.182587 0.824415 0.729383 0.261906
H232  H     H_    0.098170 0.813229 0.656753 0.215531
H233  H     H_    0.133583 0.811342 0.758734 0.251031
O90   O     O_3   0.801265 0.248204 0.213329 -0.621841
C267  C     C_3   0.756385 0.226034 0.214254 0.166951
H234  H     H_    0.710413 0.222908 0.154565 0.128737
H235  H     H_    0.746294 0.239087 0.252693 0.187437
C268  C     C_3   0.783896 0.185654 0.244965 -0.883512
H236  H     H_    0.830045 0.187658 0.304774 0.264664
H237  H     H_    0.749238 0.167939 0.246470 0.204075
H238  H     H_    0.792766 0.171198 0.206539 0.250821
O91   O     O_3   0.786231 0.753067 0.206148 -0.621109
C269  C     C_3   0.840588 0.762839 0.282455 0.135058
H239  H     H_    0.883403 0.744701 0.302780 0.134359
H240  H     H_    0.829217 0.760256 0.323705 0.223074
C270  C     C_3   0.857658 0.805315 0.284235 -0.916022
H241  H     H_    0.817489 0.824174 0.270484 0.262344
H242  H     H_    0.901879 0.812904 0.343074 0.215129
H243  H     H_    0.866413 0.810970 0.241080 0.250708
O92   O     O_3   0.198795 0.248138 0.786712 -0.621902
C271  C     C_3   0.243656 0.225983 0.785715 0.166855
H244  H     H_    0.289741 0.222975 0.845338 0.128920
H245  H     H_    0.253515 0.238974 0.747020 0.187556
C272  C     C_3   0.216291 0.185538 0.755366 -0.884582
H246  H     H_    0.170029 0.187419 0.695635 0.264698
H247  H     H_    0.250924 0.167837 0.753783 0.204306
H248  H     H_    0.207668 0.171143 0.794061 0.250786
O93   O     O_3   0.695034 0.183843 0.690766 -0.608776
C273  C     C_3   0.633525 0.166796 0.636110 0.074310
H249  H     H_    0.600612 0.171560 0.651812 0.105166
H250  H     H_    0.638107 0.135143 0.630945 0.212677
C274  C     C_3   0.601938 0.184470 0.556204 -0.765523
H251  H     H_    0.634422 0.181686 0.539820 0.328982
H252  H     H_    0.556035 0.169146 0.512182 0.189015
H253  H     H_    0.591146 0.215527 0.556560 0.252697
O94   O     O_3   0.309773 0.796641 0.317518 -0.600769
C275  C     C_3   0.365965 0.818091 0.373377 0.199806
H254  H     H_    0.352843 0.843837 0.391815 0.206680
H255  H     H_    0.393151 0.827883 0.351817 0.096812
C276  C     C_3   0.410780 0.792844 0.444615 -0.791364
H256  H     H_    0.430848 0.769093 0.430561 0.240034
H257  H     H_    0.450746 0.810716 0.492790 0.196832
H258  H     H_    0.384047 0.780065 0.464062 0.341153
O95   O     O_3   0.305803 0.185047 0.310310 -0.608807
C277  C     C_3   0.367190 0.167815 0.364726 0.074847
H259  H     H_    0.400031 0.172527 0.348906 0.104765
H260  H     H_    0.362392 0.136161 0.369637 0.211612
C278  C     C_3   0.399057 0.185375 0.444784 -0.763879
H261  H     H_    0.366805 0.182470 0.461484 0.328801
H262  H     H_    0.445043 0.170059 0.488537 0.188387
H263  H     H_    0.409733 0.216459 0.444463 0.253172
O96   O     O_3   0.690059 0.799147 0.683278 -0.601044
C279  C     C_3   0.633153 0.820121 0.627735 0.201166
H264  H     H_    0.645331 0.846273 0.609175 0.204458
H265  H     H_    0.605927 0.829213 0.649638 0.097817
C280  C     C_3   0.588895 0.794781 0.556450 -0.795288
H266  H     H_    0.569857 0.770465 0.570699 0.241536
H267  H     H_    0.548179 0.812382 0.508575 0.196660
H268  H     H_    0.615702 0.782786 0.536451 0.341003
O97   O     O_3   0.189718 0.693368 0.682627 -0.625824
C281  C     C_3   0.130139 0.673797 0.630917 0.065769
H269  H     H_    0.098284 0.677066 0.648509 0.110997
H270  H     H_    0.137977 0.642413 0.627640 0.204003
C282  C     C_3   0.094774 0.690486 0.549566 -0.761350
H271  H     H_    0.081442 0.721126 0.548753 0.251943
H272  H     H_    0.125880 0.688865 0.531081 0.330991
H273  H     H_    0.050180 0.673567 0.507801 0.186383
O98   O     O_3   0.808414 0.300677 0.315178 -0.600188
C283  C     C_3   0.864199 0.322640 0.370246 0.202717
H274  H     H_    0.850636 0.348250 0.388483 0.204074
H275  H     H_    0.890781 0.332721 0.348049 0.098614
C284  C     C_3   0.910020 0.297812 0.441818 -0.797260
H276  H     H_    0.930098 0.274129 0.427637 0.240902
H277  H     H_    0.949960 0.316012 0.489220 0.196978
H278  H     H_    0.884127 0.284962 0.462382 0.340738
O99   O     O_3   0.810041 0.693061 0.317001 -0.626200
C285  C     C_3   0.869624 0.673507 0.368749 0.064227
H279  H     H_    0.901751 0.677158 0.351645 0.110710
H280  H     H_    0.861892 0.642039 0.371403 0.204044
C286  C     C_3   0.904479 0.689804 0.450317 -0.758574
H281  H     H_    0.873064 0.687779 0.468326 0.329802
H282  H     H_    0.949097 0.672900 0.492049 0.185938
H283  H     H_    0.917717 0.720541 0.451793 0.253658
O100  O     O_3   0.191587 0.300584 0.684783 -0.600333
C287  C     C_3   0.135765 0.322514 0.629707 0.202667
H284  H     H_    0.149286 0.348138 0.611464 0.204174
H285  H     H_    0.109168 0.332572 0.651901 0.098401
C288  C     C_3   0.089986 0.297664 0.558143 -0.797035
H286  H     H_    0.069938 0.273965 0.572324 0.240735
H287  H     H_    0.050022 0.315841 0.510730 0.197014
H288  H     H_    0.115906 0.284836 0.537594 0.340711
O101  O     O_3   0.136750 0.711672 0.881219 -0.576970
C289  C     C_3   0.093170 0.737501 0.820248 0.122390
H289  H     H_    0.117469 0.755779 0.803412 0.143069
H290  H     H_    0.070211 0.757225 0.837358 0.141242
C290  C     C_3   0.040452 0.714207 0.749646 -0.805328
H291  H     H_    0.061967 0.694824 0.730170 0.231261
H292  H     H_    0.014342 0.696255 0.764787 0.273275
H293  H     H_    0.005703 0.734162 0.701331 0.204712
O102  O     O_3   0.864709 0.285439 0.122624 -0.573696
C291  C     C_3   0.904825 0.257472 0.181038 0.127683
H294  H     H_    0.936823 0.243612 0.169993 0.128608
H295  H     H_    0.877519 0.233869 0.184442 0.162411
C292  C     C_3   0.946958 0.277597 0.259850 -0.758541
H296  H     H_    0.916415 0.292873 0.271583 0.256362
H297  H     H_    0.977017 0.255827 0.306517 0.205554
H298  H     H_    0.979010 0.299052 0.260630 0.256485
O103  O     O_3   0.863022 0.711334 0.118300 -0.578194
C293  C     C_3   0.906737 0.736930 0.179725 0.123546
H299  H     H_    0.882489 0.755239 0.196594 0.142750
H300  H     H_    0.930076 0.756633 0.163111 0.142162
C294  C     C_3   0.959036 0.713355 0.250111 -0.808934
H301  H     H_    0.937127 0.693987 0.269085 0.231182
H302  H     H_    0.985096 0.695363 0.234944 0.272310
H303  H     H_    0.993904 0.733117 0.298780 0.205912
O104  O     O_3   0.135296 0.285430 0.877394 -0.574128
C295  C     C_3   0.095228 0.257445 0.818987 0.127331
H304  H     H_    0.063198 0.243594 0.829983 0.128424
H305  H     H_    0.122568 0.233837 0.815649 0.162313
C296  C     C_3   0.053145 0.277550 0.740159 -0.759187
H306  H     H_    0.023134 0.255769 0.693493 0.205347
H307  H     H_    0.021051 0.299003 0.739308 0.256371
H308  H     H_    0.083721 0.292828 0.728486 0.256408
O105  O     O_3   0.637200 0.211255 0.882091 -0.576605
C297  C     C_3   0.594037 0.237101 0.820894 0.121475
H309  H     H_    0.618642 0.254847 0.803729 0.136454
H310  H     H_    0.571638 0.257374 0.837957 0.140080
C298  C     C_3   0.540640 0.213865 0.750714 -0.798898
H311  H     H_    0.561537 0.193704 0.731538 0.230730
H312  H     H_    0.514049 0.196725 0.766202 0.274216
H313  H     H_    0.506433 0.233819 0.702067 0.203362
O106  O     O_3   0.365379 0.784057 0.123909 -0.574641
C299  C     C_3   0.404935 0.755385 0.180835 0.126440
H314  H     H_    0.436516 0.741747 0.168913 0.127817
H315  H     H_    0.377151 0.731706 0.183185 0.162798
C300  C     C_3   0.447640 0.774520 0.260621 -0.758030
H316  H     H_    0.417513 0.789482 0.273338 0.255849
H317  H     H_    0.477404 0.752194 0.306131 0.206969
H318  H     H_    0.479976 0.796101 0.262284 0.256523
O107  O     O_3   0.362985 0.211505 0.118192 -0.576565
C301  C     C_3   0.406165 0.237431 0.179212 0.120847
H319  H     H_    0.381591 0.255249 0.196332 0.137076
H320  H     H_    0.428516 0.257627 0.161978 0.139909
C302  C     C_3   0.459603 0.214280 0.249504 -0.797989
H321  H     H_    0.438752 0.194225 0.268887 0.230640
H322  H     H_    0.486130 0.197034 0.234049 0.274386
H323  H     H_    0.493855 0.234299 0.297992 0.203112
O108  O     O_3   0.634787 0.784271 0.876331 -0.574538
C303  C     C_3   0.595293 0.755621 0.819302 0.127438
H324  H     H_    0.564176 0.741606 0.831568 0.126940
H325  H     H_    0.623173 0.732231 0.816385 0.163047
C304  C     C_3   0.551960 0.774889 0.739720 -0.758521
H326  H     H_    0.522251 0.752594 0.694105 0.207093
H327  H     H_    0.519563 0.796184 0.738629 0.256721
H328  H     H_    0.581642 0.790196 0.726708 0.255692
O109  O     O_3   0.867147 0.242469 0.547230 -0.587583
C305  C     C_3   0.889775 0.204173 0.555376 0.085048
H329  H     H_    0.850718 0.182607 0.535108 0.131233
H330  H     H_    0.931213 0.197913 0.616998 0.129864
C306  C     C_3   0.912607 0.199415 0.506056 -0.848360
H331  H     H_    0.953786 0.219231 0.527299 0.256258
H332  H     H_    0.928568 0.169035 0.509971 0.204823
H333  H     H_    0.872650 0.206250 0.444271 0.268921
O110  O     O_3   0.177484 0.692359 0.458492 -0.591351
C307  C     C_3   0.183674 0.654877 0.437199 0.072957
H334  H     H_    0.218575 0.654018 0.423781 0.122925
H335  H     H_    0.135816 0.644463 0.385777 0.154818
C308  C     C_3   0.208110 0.627243 0.504605 -0.841198
H336  H     H_    0.173812 0.626378 0.518602 0.265589
H337  H     H_    0.213020 0.597544 0.488851 0.208743
H338  H     H_    0.255965 0.637131 0.556748 0.249658
O111  O     O_3   0.133062 0.242475 0.452857 -0.587993
C309  C     C_3   0.111541 0.203970 0.445728 0.085256
H339  H     H_    0.151217 0.182790 0.466592 0.132236
H340  H     H_    0.070307 0.197222 0.384256 0.130753
C310  C     C_3   0.088825 0.199132 0.495153 -0.848469
H341  H     H_    0.047161 0.218594 0.473472 0.256383
H342  H     H_    0.073626 0.168625 0.491934 0.204998
H343  H     H_    0.128609 0.206389 0.556777 0.269163
O112  O     O_3   0.821235 0.692071 0.541265 -0.590819
C311  C     C_3   0.813748 0.654742 0.561817 0.074510
H344  H     H_    0.778239 0.654338 0.574303 0.122331
H345  H     H_    0.861091 0.643961 0.613616 0.155592
C312  C     C_3   0.789385 0.627150 0.494360 -0.840261
H346  H     H_    0.824246 0.625850 0.481262 0.265265
H347  H     H_    0.783471 0.597565 0.509544 0.209229
H348  H     H_    0.742031 0.637392 0.441848 0.249579
O113  O     O_3   0.364639 0.739422 0.546413 -0.591549
C313  C     C_3   0.374692 0.699368 0.543988 0.082042
H349  H     H_    0.329650 0.682433 0.518867 0.137983
H350  H     H_    0.413527 0.688272 0.603394 0.131889
C314  C     C_3   0.395265 0.692953 0.492682 -0.847986
H351  H     H_    0.441235 0.708464 0.517343 0.256873
H352  H     H_    0.402449 0.661462 0.489367 0.203986
H353  H     H_    0.357425 0.703989 0.433048 0.271542
O114  O     O_3   0.680090 0.190520 0.457471 -0.583925
C315  C     C_3   0.697603 0.154367 0.444607 0.081967
H354  H     H_    0.741251 0.156657 0.446954 0.120455
H355  H     H_    0.656957 0.142371 0.387149 0.148267
C316  C     C_3   0.712847 0.126106 0.507712 -0.833674
H356  H     H_    0.669599 0.121744 0.505209 0.259414
H357  H     H_    0.727661 0.097663 0.499111 0.203727
H358  H     H_    0.752787 0.137686 0.565940 0.259861
O115  O     O_3   0.634555 0.740953 0.453282 -0.589498
C317  C     C_3   0.623077 0.701095 0.455203 0.082882
H359  H     H_    0.667690 0.683614 0.480816 0.137194
H360  H     H_    0.584285 0.690210 0.395581 0.131074
C318  C     C_3   0.601444 0.695380 0.505575 -0.847667
H361  H     H_    0.555803 0.711427 0.480304 0.256623
H362  H     H_    0.593245 0.664034 0.508612 0.204141
H363  H     H_    0.639171 0.706260 0.565384 0.271443
O116  O     O_3   0.319900 0.190748 0.542253 -0.584640
C319  C     C_3   0.303488 0.154449 0.556074 0.081001
H364  H     H_    0.260867 0.156465 0.555871 0.120508
H365  H     H_    0.345154 0.142458 0.612846 0.149166
C320  C     C_3   0.286673 0.126373 0.491996 -0.833016
H366  H     H_    0.328875 0.122313 0.492266 0.260218
H367  H     H_    0.272845 0.097786 0.501442 0.204078
H368  H     H_    0.245608 0.137945 0.434421 0.258611

loop_
_geom_bond_atom_site_label_1
_geom_bond_atom_site_label_2
_ccdc_geom_bond_type
C285  H280  S    
C275  H254  S    
O56   C199  S    
C318  H362  S    
C262  H221  S    
C34   C42   A    
C50   O82   S    
C15   H203  S    
C110  C118  A    
C277  C278  S    
C153  O13   A    
C284  H276  S    
C181  C187  A    
O102  C291  S    
O33   Zn7   S    
O88   C263  S    
C296  H307  S    
C196  H18   S    
O34   Zn8   S    
C148  H144  S    
C303  C304  S    
O63   C213  S    
O8    Zn2   S    
O38   Zn2   S    
C258  H213  S    
C174  O58   S    
C175  C183  A    
C272  H246  S    
O92   C271  S    
C80   C96   A    
C255  H188  S    
C239  H133  S    
C124  O68   S    
C101  C155  S    
C294  H301  S    
C300  H318  S    
C62   C70   A    
C213  C214  S    
C176  C184  A    
C25   C74   S    
C238  H129  S    
O25   Zn13  S    
C82   O114  S    
C271  H244  S    
C218  H81   S    
O28   Zn16  S    
C235  C236  S    
C264  H227  S    
C203  H34   S    
O2    Zn4   S    
C238  H131  S    
C236  H125  S    
C313  C314  S    
C18   C26   A    
C156  O16   A    
C291  H295  S    
C207  H44   S    
C22   C69   S    
C5    C13   A    
O53   C193  S    
C315  C316  S    
C216  H76   S    
C97   C105  A    
C122  O66   S    
C7    C15   A    
C224  H95   S    
C8    C16   A    
C235  H122  S    
C94   H2    S    
O112  C311  S    
C227  H103  S    
O42   Zn6   S    
C309  C310  S    
C163  O27   A    
O2    Zn10  S    
C41   C49   A    
C107  C157  S    
O3    Zn7   S    
C280  H266  S    
C319  H365  S    
C172  O56   S    
O4    Zn16  S    
C278  H263  S    
C203  H35   S    
O40   Zn4   S    
C191  C192  S    
C84   C100  A    
C225  H98   S    
C44   O100  S    
C317  C318  S    
C93   C101  A    
C112  C120  A    
C209  H57   S    
C234  H121  S    
C221  H88   S    
C20   C28   A    
C267  C268  S    
C27   C35   A    
O57   C201  S    
C21   C29   A    
C265  C266  S    
C254  H187  S    
C289  C290  S    
C23   C31   A    
O94   C275  S    
C167  O35   A    
O87   C261  S    
C24   C32   A    
C83   C131  A    
C259  H214  S    
C273  H249  S    
C53   O101  S    
C244  H162  S    
C90   O50   A    
C81   C129  A    
C268  H236  S    
C158  O18   A    
C232  H116  S    
C12   C20   A    
C207  C208  S    
C145  H141  S    
C116  H56   S    
C2    C134  A    
C210  H61   S    
C267  H235  S    
C274  H251  S    
C280  H267  S    
O65   C217  S    
C316  H358  S    
C123  O67   S    
O98   C283  S    
C57   O105  S    
O11   Zn5   S    
C32   C40   A    
C96   C104  A    
O39   Zn3   S    
O66   C219  S    
C262  H223  S    
C279  H265  S    
C36   C44   A    
C37   C45   A    
C206  H41   S    
C59   O107  S    
O51   Zn15  S    
C64   C85   S    
C38   O94   S    
C77   C125  A    
C51   O83   S    
O9    Zn7   S    
C39   C47   A    
C270  H241  S    
C46   O78   S    
O37   Zn1   S    
C167  O33   A    
C79   C127  A    
C303  H324  S    
C235  H123  S    
C197  C198  S    
C166  C186  S    
C23   C72   S    
C290  H293  S    
C209  C210  S    
C89   O9    A    
C87   O47   A    
C249  H173  S    
C222  H89   S    
O36   Zn6   S    
C98   C106  A    
O76   C239  S    
C17   C25   A    
C196  H16   S    
C306  H332  S    
C20   H208  S    
O97   C281  S    
C197  H20   S    
C83   O115  S    
O27   Zn15  S    
O2    Zn2   S    
C29   O85   S    
C78   C94   A    
C264  H226  S    
C230  H111  S    
O18   Zn14  S    
C295  H305  S    
O74   C235  S    
C231  H113  S    
C77   O109  S    
C258  H212  S    
C312  H348  S    
C178  C186  A    
C200  H26   S    
C19   H207  S    
C143  C149  A    
C133  O69   S    
C94   C102  A    
C288  H286  S    
C141  H137  S    
C52   O84   S    
C165  O31   A    
C49   O81   S    
C253  H183  S    
C293  H300  S    
C304  H327  S    
C266  H231  S    
O69   C225  S    
C28   C75   S    
C101  C109  A    
C273  C274  S    
O47   Zn11  S    
O3    Zn5   S    
O48   Zn12  S    
C315  H355  S    
O99   C285  S    
C54   O102  S    
O44   Zn8   S    
C169  C189  A    
C120  O64   S    
O45   Zn9   S    
C296  H308  S    
C249  C250  S    
C224  H94   S    
C135  O71   S    
C113  H53   S    
C14   H202  S    
O85   C257  S    
C30   C38   A    
O84   C255  S    
C45   O77   S    
C269  C270  S    
C81   O113  S    
O107  C301  S    
C105  C113  A    
C10   C18   A    
O111  C309  S    
C297  H310  S    
C204  H37   S    
C88   O48   A    
C201  H29   S    
C66   C74   A    
C302  H321  S    
C124  C132  A    
C241  C242  S    
C111  C119  A    
C308  H336  S    
C158  O42   A    
O49   Zn13  S    
C301  H319  S    
C136  O72   S    
C274  H253  S    
C205  H40   S    
C59   C67   A    
C32   O88   S    
C289  H289  S    
C53   C61   A    
C205  C206  S    
C56   O104  S    
C292  H297  S    
C253  C254  S    
C161  O21   A    
C259  H215  S    
C139  O75   S    
C237  H127  S    
C35   C43   A    
C310  H341  S    
C204  H36   S    
C283  C284  S    
C199  H24   S    
C215  H72   S    
O83   C253  S    
C320  H368  S    
C135  C143  A    
C56   C75   A    
O54   C195  S    
C287  H284  S    
C85   O45   A    
C294  H302  S    
C171  C179  A    
C212  H65   S    
C1    C133  A    
C169  C177  A    
C228  H105  S    
C95   C103  A    
C252  H180  S    
C287  H285  S    
C43   O99   S    
C270  H243  S    
C243  H159  S    
C100  C108  A    
C147  H143  S    
C231  C232  S    
C97   H5    S    
C28   C36   A    
C9    C49   A    
C91   O11   A    
O46   Zn10  S    
C104  C112  A    
C196  H17   S    
C309  H340  S    
C80   C128  A    
C205  H39   S    
C232  H115  S    
C314  H351  S    
C270  H242  S    
C84   C132  A    
C67   C90   S    
C317  H359  S    
O13   Zn9   S    
C248  H171  S    
C217  C218  S    
C147  C151  A    
O77   C241  S    
C319  C320  S    
C6    C14   A    
C242  H156  S    
C31   O87   S    
C206  H43   S    
C57   C65   A    
C140  O76   S    
C237  C238  S    
C121  O65   S    
C296  H306  S    
C258  H211  S    
C182  C188  A    
C160  O44   A    
C118  O62   S    
C213  H68   S    
C302  H322  S    
C215  C216  S    
C142  H138  S    
C261  H219  S    
C180  C186  A    
C269  H239  S    
C42   C50   A    
C100  H8    S    
C320  H366  S    
C315  H354  S    
C241  H153  S    
C229  H107  S    
C281  H270  S    
C92   O12   A    
C42   O98   S    
C67   C75   A    
C206  H42   S    
C119  O63   S    
C29   C37   A    
C3    C4    S    
C128  C131  S    
C102  C156  S    
C36   O92   S    
C268  H238  S    
C18   H206  S    
C39   O95   S    
C9    C17   A    
C282  H271  S    
C277  H260  S    
C305  H329  S    
C166  O32   A    
C22   C30   A    
C255  C256  S    
C311  H344  S    
C148  C152  A    
C230  H110  S    
O5    Zn3   S    
C137  O73   S    
C164  O26   A    
C226  H101  S    
C281  C282  S    
C154  O38   A    
C256  H192  S    
C304  H328  S    
C144  H140  S    
C276  H258  S    
C226  H99   S    
C110  H50   S    
C201  H30   S    
C163  O25   A    
O93   C273  S    
C255  H189  S    
O29   Zn3   S    
C239  C240  S    
C160  O20   A    
C223  H92   S    
C161  O23   A    
O12   Zn6   S    
C240  H135  S    
C251  H179  S    
C299  H314  S    
C310  H343  S    
C289  H290  S    
C202  H32   S    
C38   C46   A    
O106  C299  S    
C193  C194  S    
C155  O39   A    
C84   O116  S    
C113  C121  A    
C229  C230  S    
C236  H124  S    
C299  C300  S    
C183  H151  S    
C267  H234  S    
C195  H14   S    
C207  H45   S    
C8    H196  S    
C272  H247  S    
O109  C305  S    
C117  C125  A    
C25   C33   A    
C203  C204  S    
O73   C233  S    
C244  H160  S    
C179  H147  S    
C276  H257  S    
C305  C306  S    
C119  C127  A    
C283  H275  S    
O70   C227  S    
C168  C188  S    
C215  H73   S    
C82   C98   A    
C53   C74   A    
C279  C280  S    
C34   O90   S    
C154  O14   A    
C86   O6    A    
C16   H204  S    
O23   Zn11  S    
C212  H64   S    
C109  C117  A    
O24   Zn12  S    
C91   O51   A    
O116  C319  S    
C314  H353  S    
C278  H262  S    
C11   C19   A    
O71   C229  S    
C89   O49   A    
C252  H182  S    
O19   Zn15  S    
C137  C145  A    
C88   O8    A    
C216  H74   S    
O30   Zn4   S    
C221  H87   S    
O80   C247  S    
C159  O19   A    
C265  H230  S    
C234  H120  S    
O10   Zn8   S    
O82   C251  S    
C165  O29   A    
C26   C73   S    
C177  C185  A    
C103  C111  A    
C286  H281  S    
C33   O89   S    
C233  H117  S    
C93   H1    S    
C307  H335  S    
O22   Zn10  S    
C257  H209  S    
O4    Zn6   S    
C198  H23   S    
O52   Zn16  S    
C260  H217  S    
C195  C196  S    
O95   C277  S    
C275  H255  S    
C6    H194  S    
C11   H199  S    
C3    C137  A    
O108  C303  S    
C57   C70   A    
C282  H272  S    
C281  H269  S    
O79   C245  S    
C259  C260  S    
C59   C72   A    
C172  C180  A    
C227  H102  S    
C3    C139  A    
C173  C181  A    
C166  O30   A    
C230  H109  S    
C83   C99   A    
O78   C243  S    
C269  H240  S    
C300  H316  S    
C238  H130  S    
C311  C312  S    
C174  C182  A    
C243  H158  S    
C92   O52   A    
O75   C237  S    
C159  O43   A    
C284  H277  S    
C58   O106  S    
C312  H346  S    
C180  H148  S    
C245  H164  S    
C211  H62   S    
O62   C211  S    
C150  C162  S    
C303  H325  S    
O115  C317  S    
C262  H222  S    
C85   O5    A    
O15   Zn11  S    
O81   C249  S    
C115  C123  A    
O50   Zn14  S    
C199  C200  S    
C17   H205  S    
C239  H132  S    
C178  H146  S    
C249  H174  S    
C54   C62   A    
C60   C71   A    
O110  C307  S    
O72   C231  S    
C5    C45   A    
C313  H349  S    
C233  C234  S    
C7    C47   A    
C226  H100  S    
C8    C48   A    
C79   C95   A    
O55   C197  S    
C256  H191  S    
C183  C187  A    
C134  C142  A    
C54   C73   A    
C222  H90   S    
C219  C220  S    
C194  H13   S    
C201  C202  S    
C145  C151  A    
C236  H126  S    
C134  O70   S    
C157  O17   A    
C68   C89   S    
C306  H331  S    
O32   Zn2   S    
C200  H27   S    
O43   Zn7   S    
C223  H93   S    
C241  H154  S    
C308  H338  S    
O16   Zn12  S    
C277  H259  S    
C298  H312  S    
C162  O24   A    
C219  H82   S    
O17   Zn13  S    
C310  H342  S    
C63   C86   S    
C283  H274  S    
C253  H184  S    
C102  C110  A    
C149  C161  S    
C27   C76   S    
C78   C126  A    
C212  H66   S    
C112  H52   S    
C168  O34   A    
C220  H84   S    
C278  H261  S    
C170  C190  A    
C245  H163  S    
C220  H85   S    
C95   H3    S    
C294  H303  S    
C116  C124  A    
C123  C131  A    
C265  H229  S    
C78   O110  S    
O14   Zn10  S    
O105  C297  S    
C121  C129  A    
C171  O55   S    
O64   C215  S    
C120  C128  A    
C58   C69   A    
C222  H91   S    
C179  C185  A    
C99   C107  A    
C62   C87   S    
C133  C141  A    
C275  C276  S    
C244  H161  S    
C80   O112  S    
C33   C41   A    
C108  C116  A    
C136  C144  A    
O3    Zn15  S    
C254  H186  S    
C252  H181  S    
C117  O61   S    
C208  H48   S    
O4    Zn8   S    
C263  C264  S    
C14   C22   A    
C290  H291  S    
C105  C159  S    
C43   C51   A    
C106  C160  S    
C1    C2    S    
C77   C93   A    
C173  C191  A    
C263  H225  S    
C189  C190  S    
O31   Zn1   S    
C217  H78   S    
C274  H252  S    
C290  H292  S    
C4    C138  A    
C96   H4    S    
C108  C158  S    
C60   C68   A    
C12   H200  S    
C292  H296  S    
C99   H7    S    
C286  H282  S    
C184  H152  S    
C279  H264  S    
C198  H22   S    
C237  H128  S    
C60   O108  S    
C104  C154  S    
O68   C223  S    
C193  H9    S    
C170  C178  A    
C245  C246  S    
C175  O59   S    
C65   C92   S    
C317  H360  S    
C169  O53   S    
C291  H294  S    
C292  H298  S    
C173  O57   S    
C10   H198  S    
C208  H46   S    
C295  C296  S    
C142  C150  A    
O6    Zn4   S    
C140  C148  A    
C114  H54   S    
C221  C222  S    
C228  H104  S    
C234  H119  S    
C141  C149  A    
O104  C295  S    
O61   C209  S    
C156  O40   A    
C214  H70   S    
C227  C228  S    
C243  C244  S    
C139  C147  A    
C246  H165  S    
C307  H334  S    
O41   Zn5   S    
O59   C205  S    
C202  H31   S    
C211  H63   S    
C194  H11   S    
O1    Zn9   S    
C304  H326  S    
C175  C191  A    
C197  H19   S    
C217  H77   S    
C176  C192  A    
C138  O74   S    
C41   O97   S    
C211  C212  S    
C47   O79   S    
C65   C73   A    
C171  C189  A    
C301  C302  S    
C143  H139  S    
C248  H170  S    
C48   O80   S    
C170  O54   S    
C40   C48   A    
C231  H112  S    
C257  C258  S    
C313  H350  S    
C157  O41   A    
C312  H347  S    
C127  C132  S    
C209  H58   S    
C125  C130  S    
C26   C34   A    
C155  O15   A    
C288  H287  S    
C225  C226  S    
C256  H190  S    
C5    H193  S    
C144  C150  A    
C293  H299  S    
C194  H12   S    
C228  H106  S    
C266  H232  S    
C19   C27   A    
C250  H175  S    
C318  H361  S    
C176  O60   S    
C168  O36   A    
C220  H86   S    
C260  H218  S    
C111  H51   S    
C15   C23   A    
C308  H337  S    
C16   C24   A    
C288  H288  S    
C229  H108  S    
C286  H283  S    
O114  C315  S    
C223  C224  S    
O86   C259  S    
C298  H313  S    
C261  C262  S    
O101  C289  S    
C268  H237  S    
C58   C66   A    
C271  H245  S    
C305  H330  S    
C266  H233  S    
C218  H80   S    
C98   H6    S    
C13   C21   A    
C106  C114  A    
C162  O22   A    
O60   C207  S    
C306  H333  S    
C40   O96   S    
C295  H304  S    
O3    Zn13  S    
C246  H166  S    
C247  H169  S    
C90   O10   A    
C263  H224  S    
C204  H38   S    
C200  H28   S    
C297  H309  S    
C307  C308  S    
C320  H367  S    
C298  H311  S    
O1    Zn3   S    
C309  H339  S    
C2    C136  A    
C214  H71   S    
C184  C188  A    
C55   C63   A    
C282  H273  S    
C301  H320  S    
C172  C190  A    
C311  H345  S    
O89   C265  S    
C247  H168  S    
C61   C88   S    
C4    C140  A    
C287  C288  S    
C115  H55   S    
O35   Zn5   S    
C202  H33   S    
C167  C187  S    
C284  H278  S    
C254  H185  S    
C293  C294  S    
C56   C64   A    
C240  H134  S    
C208  H47   S    
C164  O28   A    
C68   C76   A    
C55   O103  S    
C299  H315  S    
C224  H96   S    
C13   H201  S    
C271  C272  S    
C107  C115  A    
C218  H79   S    
C152  C164  S    
C146  H142  S    
O26   Zn14  S    
C146  C152  A    
C55   C76   A    
C251  C252  S    
C260  H216  S    
O21   Zn9   S    
C151  C163  S    
C285  H279  S    
C79   O111  S    
C318  H363  S    
C195  H15   S    
C82   C130  A    
O20   Zn16  S    
C264  H228  S    
C198  H21   S    
C276  H256  S    
C242  H155  S    
C257  H210  S    
C61   C69   A    
C225  H97   S    
O100  C287  S    
C319  H364  S    
C246  H167  S    
C219  H83   S    
C6    C46   A    
C165  C185  S    
C302  H323  S    
C126  C129  S    
O103  C293  S    
O1    Zn11  S    
C63   C71   A    
C35   O91   S    
C297  C298  S    
O2    Zn12  S    
C261  H220  S    
O90   C267  S    
C66   C91   S    
C300  H317  S    
O4    Zn14  S    
C314  H352  S    
C250  H177  S    
C214  H69   S    
C12   C52   A    
C9    H197  S    
C240  H136  S    
O91   C269  S    
C153  O37   A    
C21   C70   S    
C138  C146  A    
C248  H172  S    
C181  H149  S    
C272  H248  S    
O7    Zn1   S    
C250  H176  S    
C1    C135  A    
O96   C279  S    
C199  H25   S    
C291  C292  S    
C44   C52   A    
C210  H60   S    
O67   C221  S    
C81   C97   A    
C177  H145  S    
C280  H268  S    
C316  H357  S    
C31   C39   A    
C87   O7    A    
O58   C203  S    
C193  H10   S    
C64   C72   A    
C213  H67   S    
C242  H157  S    
C233  H118  S    
C109  H49   S    
C316  H356  S    
C11   C51   A    
C114  C122  A    
C37   O93   S    
C273  H250  S    
C285  C286  S    
C86   O46   A    
C232  H114  S    
C247  C248  S    
C30   O86   S    
C174  C192  A    
O1    Zn1   S    
C103  C153  S    
C7    H195  S    
C251  H178  S    
C182  H150  S    
C118  C126  A    
C216  H75   S    
C210  H59   S    
O113  C313  S    
C122  C130  A    
C24   C71   S    
C10   C50   A    
