data_mof_unit_51848.cif
_audit_creation_date              2012-12-11T17:44:04-0500
_audit_creation_method            fapswitch 2.2
_symmetry_space_group_name_H-M    P1
_symmetry_Int_Tables_number       1
_space_group_crystal_system       triclinic
_cell_length_a                    20.280911
_cell_length_b                    22.686025
_cell_length_c                    6.943283
_cell_angle_alpha                 90.001579
_cell_angle_beta                  86.886327
_cell_angle_gamma                 89.999817
_cell_volume                      3189.84165884

loop_
_atom_site_label
_atom_site_type_symbol
_atom_type_description
_atom_site_fract_x
_atom_site_fract_y
_atom_site_fract_z
_atom_type_partial_charge
O1    O     O_R   0.751270 0.447300 0.600030 -0.541360
O2    O     O_R   0.248730 0.947300 0.399970 -0.541363
O3    O     O_R   0.613530 0.440160 0.952150 -0.534136
O4    O     O_R   0.386470 0.940160 0.047850 -0.534107
O5    O     O_R   0.613050 0.552700 0.122560 -0.534084
O6    O     O_R   0.386950 0.052700 0.877440 -0.534061
C1    C     C_R   0.591532 0.425398 0.786973 0.715110
C2    C     C_R   0.408469 0.925399 0.213020 0.715138
O7    O     O_R   0.750780 0.440350 0.929820 -0.544787
O8    O     O_R   0.249220 0.940350 0.070180 -0.544790
O9    O     O_R   0.751280 0.552900 0.100070 -0.543029
O10   O     O_R   0.248720 0.052900 0.899930 -0.543024
C3    C     C_R   0.773863 0.426110 0.757426 0.695733
C4    C     C_R   0.226137 0.926110 0.242572 0.695732
O11   O     O_R   0.613040 0.447100 0.622520 -0.533500
O12   O     O_R   0.386960 0.947100 0.377480 -0.533516
O13   O     O_3   0.682160 0.536920 0.777780 -0.369250
O14   O     O_3   0.317840 0.036920 0.222220 -0.369249
V1    V     V_3+5 0.682160 0.493150 0.052630 1.423995
V2    V     V_3+5 0.317840 0.993150 0.947370 1.424062
O15   O     O_R   0.750790 0.559840 0.429870 -0.543351
O16   O     O_R   0.249210 0.059840 0.570130 -0.543356
C5    C     C_R   0.773594 0.574317 0.257585 0.710083
C6    C     C_R   0.226406 0.074317 0.742417 0.710073
O17   O     O_R   0.613540 0.559650 0.452200 -0.537425
O18   O     O_R   0.386460 0.059650 0.547800 -0.537443
C7    C     C_R   0.591669 0.574487 0.286917 0.699762
C8    C     C_R   0.408331 0.074487 0.713090 0.699795
V3    V     V_3+5 0.682160 0.506850 0.552630 1.421976
V4    V     V_3+5 0.317840 0.006850 0.447370 1.421945
O19   O     O_3   0.682150 0.463080 0.277610 -0.367770
O20   O     O_3   0.317850 0.963080 0.722390 -0.367774
C9    C     C_R   0.581709 0.862273 0.152361 0.367672
C10   C     C_R   0.418247 0.362310 0.846961 0.367700
C11   C     C_R   0.464737 0.883805 0.210834 -0.215473
C12   C     C_R   0.535264 0.383807 0.789115 -0.215460
C13   C     C_R   0.472868 0.596521 0.321475 -0.138525
C14   C     C_R   0.527151 0.096499 0.678945 -0.138517
C15   C     C_R   0.419304 0.634768 0.324936 -0.096505
C16   C     C_R   0.580723 0.134738 0.675654 -0.096498
C17   C     C_R   0.428641 0.695040 0.295395 -0.165868
C18   C     C_R   0.571378 0.195019 0.705030 -0.165838
C19   C     C_R   0.492675 0.719072 0.261617 0.117628
C20   C     C_R   0.507327 0.219068 0.738453 0.117605
C21   C     C_R   0.547507 0.679256 0.257304 0.068312
C22   C     C_R   0.452484 0.179263 0.742557 0.068274
C23   C     C_R   0.503983 0.781073 0.231341 0.043947
C24   C     C_R   0.496012 0.281078 0.768578 0.043944
C25   C     C_R   0.569653 0.801498 0.190550 -0.045372
C26   C     C_R   0.430317 0.301523 0.808964 -0.045401
C27   C     C_R   0.622401 0.761290 0.193673 -0.166551
C28   C     C_R   0.377563 0.261324 0.805631 -0.166495
C29   C     C_R   0.611563 0.701591 0.225509 -0.181261
C30   C     C_R   0.388411 0.201615 0.773976 -0.181228
C31   C     C_R   0.452348 0.823524 0.241126 -0.268069
C32   C     C_R   0.547662 0.323516 0.759016 -0.267984
C33   C     C_R   0.530044 0.903278 0.167440 0.351883
C34   C     C_R   0.469931 0.403302 0.832103 0.351786
C35   C     C_R   0.537066 0.617793 0.287384 -0.105897
C36   C     C_R   0.462934 0.117790 0.712666 -0.105900
H1    H     H_    0.401575 0.811325 0.272469 0.125730
H2    H     H_    0.598453 0.311301 0.727972 0.125690
H3    H     H_    0.384496 0.721433 0.298780 0.112923
H4    H     H_    0.615531 0.221403 0.701802 0.112915
H5    H     H_    0.369842 0.617505 0.350628 0.140842
H6    H     H_    0.630199 0.117460 0.650241 0.140820
C37   C     C_R   0.171141 0.882525 0.261138 -0.046568
C38   C     C_R   0.828860 0.382526 0.738862 -0.046574
C39   C     C_R   0.142663 0.859310 0.096802 -0.209590
C40   C     C_R   0.857371 0.359349 0.903190 -0.209588
C41   C     C_R   0.090336 0.818923 0.115209 -0.151025
C42   C     C_R   0.909698 0.318961 0.884789 -0.151032
C43   C     C_R   0.065210 0.800700 0.299484 0.423859
C44   C     C_R   0.934791 0.300698 0.700529 0.423856
C45   C     C_R   0.093883 0.823669 0.462498 -0.166585
C46   C     C_R   0.906087 0.323631 0.537523 -0.166582
C47   C     C_R   0.146018 0.864040 0.444209 -0.203955
C48   C     C_R   0.853951 0.364004 0.555806 -0.203968
C49   C     C_R   0.895788 0.694445 0.386839 0.379036
C50   C     C_R   0.104205 0.194437 0.613162 0.379029
C51   C     C_R   0.844177 0.652484 0.400608 -0.310575
C52   C     C_R   0.155818 0.152477 0.599392 -0.310598
C53   C     C_R   0.933122 0.701417 0.208821 0.404797
C54   C     C_R   0.066877 0.201418 0.791186 0.404804
N1    N     N_2   0.011836 0.759887 0.328956 -0.221505
N2    N     N_2   0.988159 0.259878 0.671062 -0.221510
N3    N     N_2   0.986735 0.742180 0.179058 -0.294890
N4    N     N_2   0.013274 0.242190 0.820953 -0.294891
C55   C     C_R   0.827870 0.618558 0.240427 -0.074539
C56   C     C_R   0.172129 0.118558 0.759578 -0.074539
H7    H     H_    0.816136 0.646936 0.536691 0.133895
H8    H     H_    0.183855 0.146925 0.463303 0.133899
C57   C     C_R   0.863894 0.627260 0.064341 -0.209512
C58   C     C_R   0.136106 0.127265 0.935668 -0.209502
C59   C     C_R   0.915726 0.667934 0.049621 -0.257552
C60   C     C_R   0.084274 0.167938 0.950389 -0.257561
H9    H     H_    0.069777 0.802204 0.985359 0.141345
H10   H     H_    0.930283 0.302274 0.014634 0.141354
H11   H     H_    0.160600 0.872494 0.953521 0.132443
H12   H     H_    0.839460 0.372565 0.046459 0.132449
O21   O     O_3   0.545964 0.961861 0.133652 -0.612550
H13   H     H_    0.506926 0.987267 0.160434 0.276470
O22   O     O_3   0.453996 0.461896 0.865672 -0.612514
H14   H     H_    0.493087 0.487281 0.839428 0.276467
O23   O     O_3   0.908990 0.729389 0.543129 -0.626005
H15   H     H_    0.877178 0.719974 0.652282 0.284747
O24   O     O_3   0.090994 0.229372 0.456865 -0.626014
H16   H     H_    0.122810 0.219961 0.347719 0.284743
H17   H     H_    0.075479 0.810284 0.605191 0.132665
H18   H     H_    0.924465 0.310214 0.394841 0.132657
H19   H     H_    0.166538 0.880818 0.574106 0.134365
H20   H     H_    0.833405 0.380751 0.425917 0.134366
H21   H     H_    0.852616 0.602075 0.937753 0.147101
H22   H     H_    0.147387 0.102083 0.062260 0.147099
H23   H     H_    0.943198 0.673103 0.912517 0.166182
H24   H     H_    0.056803 0.173111 0.087497 0.166193
H25   H     H_    0.673238 0.775465 0.174833 0.142302
H26   H     H_    0.326716 0.275512 0.824166 0.142290
O25   O     O_3   0.643820 0.883702 0.100117 -0.604600
H27   H     H_    0.666011 0.855210 0.010165 0.287161
O26   O     O_3   0.356103 0.383762 0.898794 -0.604566
H28   H     H_    0.333847 0.355297 0.988723 0.287164
H29   H     H_    0.464184 0.549874 0.345129 0.134325
H30   H     H_    0.535843 0.049843 0.655458 0.134351
H31   H     H_    0.654258 0.672911 0.225242 0.105325
H32   H     H_    0.345709 0.172943 0.774074 0.105289

loop_
_geom_bond_atom_site_label_1
_geom_bond_atom_site_label_2
_ccdc_geom_bond_type
C53   N3    S    
O21   H13   S    
O11   V3    S    
C18   H4    S    
C43   C45   A    
C1    C12   S    
C37   C47   A    
C50   C54   A    
V1    O19   S    
C58   H22   S    
C23   C25   A    
C42   H10   S    
C30   H32   S    
C50   O24   S    
O9    V1    S    
C44   C46   A    
O16   C6    A    
C46   C48   A    
O3    C1    A    
N2    N4    D    
C9    C25   A    
C52   H8    S    
C49   O23   S    
C47   H19   S    
C54   C60   A    
C39   C41   A    
O7    C3    A    
O13   V1    S    
O5    C7    A    
O7    V1    S    
O6    C8    A    
O8    V2    S    
C25   C27   A    
C26   C28   A    
C4    C37   S    
C5    C55   S    
O3    V1    S    
O14   V4    S    
V4    O20   S    
O4    C2    A    
C51   C55   A    
C24   C26   A    
C21   C29   A    
C2    O12   A    
C16   H6    S    
C38   C48   A    
C17   C19   A    
O10   V2    S    
C18   C20   A    
C28   C30   A    
C56   C58   A    
C8    C36   S    
O17   V3    S    
C13   C15   A    
C10   C26   A    
C45   H17   S    
N1    N3    D    
C11   C31   A    
C42   C44   A    
O8    C4    A    
C59   H23   S    
C49   C51   A    
C1    O11   A    
C20   C22   A    
O15   V3    S    
C37   C39   A    
C2    C11   S    
O4    V2    S    
C12   C32   A    
C41   H9    S    
C49   C53   A    
O24   H16   S    
C53   C59   A    
C22   C30   A    
O1    V3    S    
C57   H21   S    
C44   N2    S    
C58   C60   A    
C19   C21   A    
C43   N1    S    
O26   H28   S    
C13   C35   A    
C29   H31   S    
C14   C36   A    
C39   H11   S    
C50   C52   A    
C9    O25   S    
C10   O26   S    
O15   C5    A    
C32   H2    S    
O1    C3    A    
C17   H3    S    
C13   H29   S    
O6    V2    S    
C23   C31   A    
V2    O20   S    
C24   C32   A    
O10   C6    A    
C21   C35   A    
C9    C33   A    
O16   V4    S    
C22   C36   A    
O18   C8    A    
C54   N4    S    
C16   C18   A    
C6    C56   S    
C40   C42   A    
O25   H27   S    
O18   V4    S    
O5    V1    S    
O17   C7    A    
C33   O21   S    
O23   H15   S    
C15   H5    S    
C12   C34   A    
C52   C56   A    
C46   H18   S    
O2    V4    S    
C11   C33   A    
C40   H12   S    
V3    O19   S    
C7    C35   S    
O13   V3    S    
C14   C16   A    
C57   C59   A    
C19   C23   A    
C31   H1    S    
O9    C5    A    
C27   H25   S    
O14   V2    S    
C55   C57   A    
O2    C4    A    
C51   H7    S    
C15   C17   A    
C38   C40   A    
C45   C47   A    
C41   C43   A    
O22   H14   S    
C10   C34   A    
C60   H24   S    
C48   H20   S    
C34   O22   S    
C27   C29   A    
O12   V4    S    
C14   H30   S    
C20   C24   A    
C3    C38   S    
C28   H26   S    
