data_mof_unit_64558.cif
_audit_creation_date              2012-12-10T18:14:19-0500
_audit_creation_method            fapswitch 2.2
_symmetry_space_group_name_H-M    P1
_symmetry_Int_Tables_number       1
_space_group_crystal_system       triclinic
_cell_length_a                    42.268046
_cell_length_b                    29.205406
_cell_length_c                    30.590516
_cell_angle_alpha                 90.013659
_cell_angle_beta                  136.294163
_cell_angle_gamma                 89.989929
_cell_volume                      26092.316608

loop_
_atom_site_label
_atom_site_type_symbol
_atom_type_description
_atom_site_fract_x
_atom_site_fract_y
_atom_site_fract_z
_atom_type_partial_charge
C1    C     C_R   0.586687 0.500000 0.587099 0.912470
C2    C     C_1   0.996832 0.997256 0.331850 -0.062608
C3    C     C_3   0.546189 0.505158 0.267995 -0.532378
C4    C     C_3   0.046649 0.997226 0.268338 -0.488676
C5    C     C_3   0.966825 0.030313 0.186534 -0.505271
C6    C     C_1   0.499551 0.503417 0.119992 -0.161897
C7    C     C_1   0.999663 0.995927 0.120073 -0.134523
C8    C     C_3   0.495402 0.505011 0.284187 -0.116799
C9    C     C_3   0.995978 0.993905 0.284724 -0.124476
C10   C     C_3   0.496330 0.508969 0.200914 0.037750
C11   C     C_3   0.997240 0.989357 0.201760 0.057823
C12   C     C_2   0.562854 0.447582 0.343627 0.420482
C13   C     C_1   0.498328 0.500485 0.371439 -0.087392
C14   C     C_2   0.466761 0.420071 0.256360 0.496477
C15   C     C_2   0.960112 0.076283 0.249084 0.445101
C16   C     C_2   0.058930 0.056264 0.338902 0.390112
C17   C     C_2   0.513687 0.590750 0.304971 0.634719
C18   C     C_2   0.434607 0.569763 0.231653 0.326786
C19   C     C_2   0.940491 0.924531 0.238041 0.308052
C20   C     C_2   0.020894 0.909880 0.312696 0.560974
C21   C     C_2   0.492692 0.596903 0.192166 0.584551
C22   C     C_2   0.422024 0.553008 0.128898 0.536016
C23   C     C_2   0.926507 0.939833 0.133858 0.408699
C24   C     C_1   0.998462 0.999365 0.371527 -0.138880
C25   C     C_2   0.998760 0.899784 0.199704 0.588602
C26   C     C_1   0.637268 0.499999 0.637599 -0.194674
C27   C     C_1   0.137268 1.000000 0.637599 -0.195693
C28   C     C_1   0.679406 0.499999 0.679680 0.024305
C29   C     C_1   0.179406 0.000000 0.679680 0.025195
C30   C     C_1   0.729141 0.499999 0.729358 0.023747
C31   C     C_1   0.229141 0.000000 0.729358 0.024734
C32   C     C_1   0.771278 0.499999 0.771454 0.020876
C33   C     C_R   0.086687 1.000000 0.587098 0.915361
C34   C     C_1   0.271278 0.000000 0.771454 0.021768
C35   C     C_1   0.821013 0.499999 0.821142 0.016350
C36   C     C_1   0.321013 0.000000 0.821142 0.017236
C37   C     C_R   0.500606 0.500034 0.418292 0.953502
C38   C     C_R   0.000476 0.999947 0.418151 0.960781
C39   C     C_1   0.863152 0.499999 0.863240 -0.202523
C40   C     C_1   0.363152 0.000000 0.863240 -0.201682
C41   C     C_1   0.499997 0.500013 0.636056 -0.210898
C42   C     C_1   0.999997 0.000013 0.636056 -0.211925
C43   C     C_1   0.500021 0.500013 0.677253 0.023447
C44   C     C_3   0.472502 0.554413 0.193996 -0.095218
C45   C     C_1   0.000021 0.000014 0.677253 0.023282
C46   C     C_1   0.500050 0.500012 0.726284 0.011862
C47   C     C_1   0.000050 0.000012 0.726284 0.011638
C48   C     C_1   0.500072 0.500009 0.767481 0.011911
C49   C     C_1   0.000072 0.000009 0.767481 0.011688
C50   C     C_1   0.500091 0.500006 0.816503 0.023468
C51   C     C_1   0.000091 0.000006 0.816503 0.023185
C52   C     C_1   0.500093 0.500003 0.857677 -0.211075
C53   C     C_1   0.000093 0.000003 0.857677 -0.210424
C54   C     C_1   0.362678 0.500001 0.362943 -0.200553
C55   C     C_3   0.976946 0.942246 0.198719 -0.084602
C56   C     C_1   0.862678 0.999999 0.362947 -0.205366
C57   C     C_1   0.320542 0.500001 0.320722 0.021296
C58   C     C_1   0.820542 0.999999 0.320726 0.018910
C59   C     C_1   0.270811 0.500001 0.270908 0.022321
C60   C     C_1   0.770811 0.999998 0.270911 0.020832
C61   C     C_R   0.413256 0.500000 0.413633 0.908089
C62   C     C_R   0.913256 1.000000 0.413636 0.906006
C63   C     C_1   0.228675 0.500001 0.228715 0.020183
C64   C     C_1   0.728675 0.999999 0.228718 0.019096
C65   C     C_1   0.178944 0.500001 0.178936 0.016073
C66   C     C_3   0.478928 0.555337 0.252936 -0.162756
C67   C     C_1   0.678944 0.999999 0.178937 0.015355
C68   C     C_1   0.136807 0.500000 0.136784 -0.202659
C69   C     C_1   0.636807 0.999999 0.136784 -0.203077
C70   C     C_R   0.500030 0.586640 0.994598 0.912287
C71   C     C_R   0.500030 0.413357 0.994563 0.900166
C72   C     C_R   0.000030 0.086643 0.994563 0.897743
C73   C     C_R   0.000030 0.913360 0.994601 0.920743
C74   C     C_R   0.499963 0.499129 0.075939 0.941755
C75   C     C_R   0.999973 0.000972 0.075969 0.935546
C76   C     C_R   0.500052 0.500000 0.907523 0.888152
C77   C     C_3   0.983448 0.942311 0.257761 -0.157223
C78   C     C_R   0.000052 1.000000 0.907523 0.885783
C79   C     C_R   0.000015 0.413723 0.999128 0.895289
C80   C     C_R   0.000015 0.586277 0.999138 0.896002
C81   C     C_R   0.500015 0.913723 0.999129 0.896020
C82   C     C_R   0.500015 0.086277 0.999138 0.894901
C83   C     C_R   0.913734 0.500000 0.913769 0.895871
C84   C     C_R   0.413734 1.000000 0.913769 0.895966
C85   C     C_R   0.086228 0.500000 0.086233 0.895808
C86   C     C_R   0.586228 1.000000 0.086233 0.895335
C87   C     C_1   0.500038 0.637227 0.995441 -0.202804
C88   C     C_1   0.498241 0.506942 0.156642 -0.007497
C89   C     C_1   0.500039 0.362770 0.995408 -0.212218
C90   C     C_1   0.000039 0.137230 0.995401 -0.209687
C91   C     C_1   0.000039 0.862773 0.995454 -0.195033
C92   C     C_R   0.499972 0.500005 0.586146 0.884052
C93   C     C_R   0.999972 0.000005 0.586146 0.886291
C94   C     C_1   0.500039 0.679366 0.996185 0.023094
C95   C     C_1   0.500041 0.320632 0.996157 0.011904
C96   C     C_1   0.000041 0.179369 0.996143 0.013919
C97   C     C_1   0.000040 0.820635 0.996206 0.025444
C98   C     C_1   0.500036 0.729104 0.997060 0.024678
C99   C     C_1   0.998699 0.991742 0.157034 0.101831
C100  C     C_1   0.500039 0.270894 0.997045 0.015145
C101  C     C_1   0.000039 0.229107 0.997022 0.017063
C102  C     C_1   0.000038 0.770897 0.997088 0.024144
C103  C     C_1   0.000035 0.271245 0.997731 0.016693
C104  C     C_1   0.000034 0.728758 0.997791 0.021357
C105  C     C_1   0.500033 0.771243 0.997759 0.022460
C106  C     C_1   0.500035 0.228755 0.997758 0.015143
C107  C     C_1   0.000030 0.320986 0.998471 0.014001
C108  C     C_1   0.000029 0.679016 0.998518 0.017189
C109  C     C_1   0.500028 0.820984 0.998486 0.018340
C110  C     C_1   0.496454 0.502173 0.331520 0.014946
C111  C     C_1   0.500030 0.179015 0.998501 0.012958
C112  C     C_1   0.000024 0.363129 0.998932 -0.203947
C113  C     C_1   0.000023 0.636872 0.998964 -0.201780
C114  C     C_1   0.500023 0.863128 0.998937 -0.200764
C115  C     C_1   0.500024 0.136871 0.998958 -0.204544
C116  C     C_3   0.545777 0.495693 0.317189 0.526877
C117  C     C_3   0.461660 0.467552 0.231411 0.443625
C118  C     C_3   0.959314 0.028358 0.228888 0.445337
C119  C     C_3   0.045506 0.006867 0.316732 0.528649
C120  C     C_3   0.469210 0.465852 0.189054 -0.555382
F1    F     F_    0.416566 0.479849 0.194084 -0.671667
F2    F     F_    0.577210 0.524611 0.368537 -0.603283
F3    F     F_    0.078925 0.980355 0.370219 -0.584026
F4    F     F_    0.915449 0.012503 0.193131 -0.672719
H1    H     H_    0.565349 0.477986 0.269193 0.159119
H2    H     H_    0.484446 0.392881 0.256724 -0.002684
H3    H     H_    0.980332 0.084192 0.298036 0.046847
H4    H     H_    0.047581 0.083462 0.305967 0.002239
H5    H     H_    0.511342 0.601867 0.336481 0.049668
H6    H     H_    0.419077 0.548510 0.241144 0.155899
H7    H     H_    0.923459 0.944567 0.246065 0.168390
H8    H     H_    0.019785 0.899411 0.345681 0.072467
H9    H     H_    0.522084 0.594304 0.199967 0.045646
H10   H     H_    0.395180 0.540913 0.123552 0.149660
H11   H     H_    0.898850 0.949576 0.127851 0.178617
H12   H     H_    0.488755 0.434726 0.198782 0.136994
H13   H     H_    0.986186 0.866177 0.196476 0.088814
H14   H     H_    0.983871 0.062968 0.193970 0.157752
H15   H     H_    0.063456 0.025904 0.267150 0.143061
H16   H     H_    0.435578 0.463081 0.138498 0.235068
H17   H     H_    0.565132 0.537367 0.280091 0.244820
H18   H     H_    0.068212 0.966702 0.283194 0.290689
H19   H     H_    0.933083 0.030464 0.135850 0.244019
H20   H     H_    0.561247 0.421087 0.317175 -0.006655
O1    O     O_R   0.563110 0.535630 0.563620 -0.594934
O2    O     O_R   0.500010 0.063160 0.964010 -0.590730
O3    O     O_R   0.000000 0.436830 0.034310 -0.592337
O4    O     O_R   0.000000 0.563170 0.034310 -0.591197
O5    O     O_R   0.500000 0.936830 0.034310 -0.590304
O6    O     O_R   0.500000 0.063170 0.034310 -0.593193
O7    O     O_R   0.936840 0.500000 0.901700 -0.590388
O8    O     O_R   0.436840 0.000000 0.901700 -0.589894
O9    O     O_R   0.936840 0.500000 0.972000 -0.592586
O10   O     O_R   0.436840 0.000000 0.972000 -0.592510
O11   O     O_R   0.063130 0.500000 0.028000 -0.590267
O12   O     O_R   0.563110 0.464370 0.563620 -0.593121
O13   O     O_R   0.563130 0.000000 0.028000 -0.590281
O14   O     O_R   0.063120 0.500000 0.098300 -0.592607
O15   O     O_R   0.563120 1.000000 0.098300 -0.592754
O16   O     O_R   0.499970 0.535640 0.438200 -0.627093
O17   O     O_R   0.499970 0.464360 0.438200 -0.581823
O18   O     O_R   0.999970 0.035640 0.438200 -0.603756
O19   O     O_R   0.999970 0.964360 0.438200 -0.617056
O20   O     O_R   0.436830 0.535630 0.437320 -0.596945
O21   O     O_R   0.436830 0.464370 0.437320 -0.591121
O22   O     O_R   0.936830 0.035630 0.437320 -0.595021
O23   O     O_R   0.063110 0.035630 0.563620 -0.592700
O24   O     O_R   0.936830 0.964370 0.437320 -0.595756
O25   O     O_R   0.499970 0.535630 0.562740 -0.591793
O26   O     O_R   0.499970 0.464370 0.562740 -0.593849
O27   O     O_R   0.999970 0.035630 0.562740 -0.592778
O28   O     O_R   0.999970 0.964370 0.562740 -0.591396
O29   O     O_R   0.535670 0.563060 0.029670 -0.596843
O30   O     O_R   0.535670 0.436940 0.029670 -0.596983
O31   O     O_R   0.035670 0.063060 0.029670 -0.597777
O32   O     O_R   0.035670 0.936940 0.029670 -0.591997
O33   O     O_R   0.464380 0.563080 0.958370 -0.587393
O34   O     O_R   0.063110 0.964370 0.563620 -0.594322
O35   O     O_R   0.464380 0.436920 0.958370 -0.596158
O36   O     O_R   0.964380 0.063080 0.958370 -0.596303
O37   O     O_R   0.964380 0.936920 0.958370 -0.589780
O38   O     O_R   0.535670 0.500000 0.091080 -0.617040
O39   O     O_R   0.035670 0.000000 0.091080 -0.606672
O40   O     O_R   0.464370 0.500000 0.019780 -0.590665
O41   O     O_R   0.964370 0.000000 0.019780 -0.594645
O42   O     O_R   0.535670 0.500000 0.966540 -0.592495
O43   O     O_R   0.035670 0.000000 0.966540 -0.593310
O44   O     O_2   0.577729 0.437688 0.394578 -0.508014
O45   O     O_R   0.464380 0.500000 0.895240 -0.592703
O46   O     O_2   0.451040 0.411751 0.276787 -0.509369
O47   O     O_2   0.936051 0.106402 0.209580 -0.519338
O48   O     O_2   0.082717 0.066149 0.394116 -0.491062
O49   O     O_2   0.545529 0.605435 0.315031 -0.528029
O50   O     O_2   0.416784 0.606653 0.205674 -0.524862
O51   O     O_2   0.925607 0.886320 0.215146 -0.578607
O52   O     O_2   0.053397 0.896961 0.323280 -0.516184
O53   O     O_2   0.476169 0.634725 0.182288 -0.494906
O54   O     O_2   0.411145 0.562933 0.080609 -0.562150
O55   O     O_2   0.916306 0.929444 0.086180 -0.563907
O56   O     O_R   0.964380 1.000000 0.895240 -0.593628
O57   O     O_2   0.029706 0.902180 0.203858 -0.558007
O58   O     O_R   0.000010 0.436840 0.964010 -0.591283
O59   O     O_R   0.000010 0.563160 0.964010 -0.591213
O60   O     O_R   0.500010 0.936840 0.964010 -0.591375
Zn1   Zn    Zn3+2 0.499970 0.547590 0.500630 0.996302
Zn2   Zn    Zn3+2 0.499990 0.000000 0.953050 0.993496
Zn3   Zn    Zn3+2 0.999980 0.500000 0.046950 0.987700
Zn4   Zn    Zn3+2 0.499980 0.000000 0.046950 0.988226
Zn5   Zn    Zn3+2 0.499970 0.452410 0.500630 1.021732
Zn6   Zn    Zn3+2 0.999970 0.047590 0.500630 1.002518
Zn7   Zn    Zn3+2 0.999970 0.952410 0.500630 0.995704
Zn8   Zn    Zn3+2 0.547630 0.500000 0.040770 0.985222
Zn9   Zn    Zn3+2 0.047630 0.000000 0.040770 0.998669
Zn10  Zn    Zn3+2 0.452420 0.500000 0.945550 1.008731
Zn11  Zn    Zn3+2 0.952420 1.000000 0.945550 1.009278
Zn12  Zn    Zn3+2 0.999990 0.500000 0.953050 0.992186

loop_
_geom_bond_atom_site_label_1
_geom_bond_atom_site_label_2
_ccdc_geom_bond_type
O39   Zn9   S    
C30   C32   T    
O43   Zn9   S    
C93   O28   A    
C8    C66   S    
C68   C85   S    
O42   Zn8   S    
C27   C29   T    
C61   O20   A    
C107  C112  T    
C40   C84   S    
C78   O56   A    
C44   C66   S    
C3    H17   S    
O2    Zn2   S    
O28   Zn7   S    
C75   O39   A    
C63   C65   S    
C76   O42   A    
O15   Zn4   S    
C47   C49   T    
C75   O41   A    
C27   C33   S    
C19   O51   D    
O58   Zn12  S    
C10   C88   S    
C17   C66   S    
C98   C105  T    
C7    C99   T    
C20   C77   S    
C22   H10   S    
O30   Zn8   S    
O14   Zn3   S    
O31   Zn9   S    
C37   O16   A    
O8    Zn2   S    
C61   O21   A    
C82   C115  S    
C5    C11   S    
C25   O57   D    
O20   Zn1   S    
O25   Zn1   S    
C35   C39   T    
C55   C77   S    
C5    H19   S    
C80   O59   A    
C74   O40   A    
C94   C98   S    
C58   C60   S    
C42   C93   S    
C87   C94   T    
C23   O55   D    
O56   Zn11  S    
C6    C88   T    
C11   C99   S    
C85   O11   A    
C72   O31   A    
C71   O35   A    
C19   C77   S    
C117  F1    S    
C15   O47   D    
C76   O45   A    
C16   O48   D    
O4    Zn3   S    
C82   O2    A    
O16   Zn1   S    
O9    Zn3   S    
C17   O49   D    
C21   H9    S    
C22   C44   S    
C92   O26   A    
C49   C51   S    
C81   C114  S    
C50   C52   T    
C4    C119  S    
C120  H16   S    
C86   O15   A    
C13   C37   S    
C97   C102  S    
C14   C117  S    
C48   C50   S    
C33   O34   A    
C23   C55   S    
C101  C103  T    
C15   H3    S    
C96   C101  S    
C9    C118  S    
C41   C43   T    
O24   Zn7   S    
C33   O23   A    
C84   O10   A    
C20   H8    S    
C70   C87   S    
O5    Zn4   S    
O1    Zn1   S    
C70   O29   A    
C8    C117  S    
C6    C74   S    
C81   O60   A    
C83   O7    A    
C106  C111  S    
C45   C47   S    
C19   H7    S    
C46   C48   T    
C10   C44   S    
C64   C67   S    
C73   O37   A    
O59   Zn12  S    
C5    H14   S    
C10   C120  S    
C18   O50   D    
C73   C91   S    
C117  C120  S    
O27   Zn6   S    
O19   Zn7   S    
C95   C100  S    
C79   O3    A    
O18   Zn6   S    
C17   H5    S    
C60   C64   T    
O41   Zn11  S    
C51   C53   T    
C42   C45   T    
C108  C113  T    
C89   C95   T    
C1    O12   A    
C25   H13   S    
C32   C35   S    
C13   C110  T    
C8    C110  S    
C21   C44   S    
C72   C90   S    
C24   C38   S    
C71   C89   S    
C36   C40   T    
C92   O25   A    
C65   C68   T    
O38   Zn8   S    
C31   C34   T    
O37   Zn11  S    
C118  F4    S    
C91   C97   T    
C4    C11   S    
O3    Zn3   S    
C16   H4    S    
C82   O6    A    
C116  F2    S    
C109  C114  T    
C83   O9    A    
C84   O8    A    
C79   O58   A    
C38   O19   A    
C62   O22   A    
O60   Zn2   S    
C80   O4    A    
O7    Zn12  S    
C2    C24   T    
C1    C26   S    
C9    C119  S    
C56   C62   S    
C18   H6    S    
O29   Zn8   S    
C1    O1    A    
C72   O36   A    
C104  C108  S    
C11   C55   S    
C37   O17   A    
C67   C69   T    
C105  C109  S    
C93   O27   A    
O12   Zn5   S    
C59   C63   T    
O33   Zn10  S    
C22   O54   D    
O36   Zn11  S    
O13   Zn2   S    
C25   C55   S    
O23   Zn6   S    
C21   O53   D    
C52   C76   S    
C79   C112  S    
C7    C75   S    
C3    H1    S    
C70   O33   A    
C90   C96   T    
C74   O38   A    
C54   C61   S    
C119  F3    S    
C100  C106  T    
C18   C66   S    
C26   C28   T    
C14   H2    S    
C15   C118  S    
C23   H11   S    
C5    C118  S    
C3    C116  S    
C86   O13   A    
C73   O32   A    
C28   C30   S    
C53   C78   S    
C9    C77   S    
C39   C83   S    
C29   C31   S    
C3    C10   S    
O22   Zn6   S    
C4    H15   S    
C4    H18   S    
O21   Zn5   S    
C62   O24   A    
O26   Zn5   S    
O17   Zn5   S    
C102  C104  T    
C81   O5    A    
O35   Zn10  S    
C56   C58   T    
O34   Zn7   S    
C34   C36   S    
O11   Zn12  S    
C43   C46   S    
C57   C59   S    
O45   Zn10  S    
C8    C116  S    
O6    Zn4   S    
C14   O46   D    
C12   H20   S    
O40   Zn10  S    
C38   O18   A    
C41   C92   S    
C80   C113  S    
C111  C115  T    
C85   O14   A    
O32   Zn9   S    
C103  C107  S    
C78   O43   A    
C120  H12   S    
C2    C9    S    
C20   O52   D    
C71   O30   A    
O10   Zn4   S    
C69   C86   S    
C16   C119  S    
C12   C116  S    
C54   C57   T    
C12   O44   D    
