data_mof_unit_21960.cif
_audit_creation_date              2013-03-05T16:23:18-0500
_audit_creation_method            fapswitch 2.2
_symmetry_space_group_name_H-M    P1
_symmetry_Int_Tables_number       1
_space_group_crystal_system       triclinic
_cell_length_a                    27.726365
_cell_length_b                    10.513947
_cell_length_c                    9.746059
_cell_angle_alpha                 90.387219
_cell_angle_beta                  89.882534
_cell_angle_gamma                 89.960939
_cell_volume                      2841.03654319

loop_
_atom_site_label
_atom_site_type_symbol
_atom_site_description
_atom_site_fract_x
_atom_site_fract_y
_atom_site_fract_z
_atom_type_partial_charge
O1    O     O_R   0.500000 0.313960 0.616610 -0.604741
O2    O     O_R   0.500000 0.686040 0.383390 -0.603920
O3    O     O_R   0.500020 0.313950 0.383350 -0.630580
O4    O     O_R   0.499980 0.686050 0.616650 -0.631410
C1    C     C_R   0.500496 0.257754 0.499483 0.961479
C2    C     C_R   0.499502 0.742247 0.500513 0.961234
O5    O     O_R   0.428750 0.500030 0.616610 -0.635700
O6    O     O_R   0.571250 0.499970 0.383390 -0.637186
O7    O     O_R   0.428770 0.500020 0.383360 -0.606459
O8    O     O_R   0.571230 0.499980 0.616640 -0.605243
C3    C     C_R   0.406121 0.499618 0.500101 0.936505
C4    C     C_R   0.593882 0.500418 0.499914 0.935904
Zn1   Zn    Zn3+2 0.499990 0.500010 0.655740 0.981519
Zn2   Zn    Zn3+2 0.500010 0.499990 0.344260 0.982655
C5    C     C_R   0.177183 0.379912 0.506611 0.580340
C6    C     C_R   0.822819 0.620707 0.507988 0.581256
O9    O     O_2   0.201642 0.269104 0.497366 -0.517742
O10   O     O_2   0.798375 0.731581 0.501352 -0.517914
N1    N     N_R   0.201653 0.492478 0.508410 -0.341646
N2    N     N_R   0.798347 0.508141 0.506987 -0.341834
C7    C     C_R   0.178480 0.606621 0.519836 0.577851
C8    C     C_R   0.821498 0.393911 0.515702 0.578098
C9    C     C_R   0.277474 0.515284 0.377200 0.357482
C10   C     C_R   0.722618 0.487253 0.375510 0.365706
C11   C     C_R   0.327916 0.518528 0.378537 -0.208370
C12   C     C_R   0.672173 0.483793 0.377097 -0.264032
C13   C     C_R   0.328458 0.473155 0.622445 -0.186155
C14   C     C_R   0.671479 0.525189 0.622471 -0.138277
C15   C     C_R   0.278523 0.469740 0.622665 -0.119644
C16   C     C_R   0.721407 0.528854 0.622433 -0.119649
C17   C     C_R   0.252956 0.490750 0.501514 0.189351
C18   C     C_R   0.747051 0.509922 0.500432 0.187912
C19   C     C_R   0.101841 0.496077 0.522320 -0.044401
C20   C     C_R   0.898128 0.504415 0.521372 -0.044459
C21   C     C_R   0.126790 0.379569 0.513024 -0.027131
C22   C     C_R   0.873199 0.620990 0.514642 -0.026899
C23   C     C_R   0.101105 0.265720 0.508569 -0.115743
C24   C     C_R   0.898895 0.734859 0.513024 -0.115302
C25   C     C_R   0.128127 0.610621 0.526885 -0.027887
C26   C     C_R   0.871833 0.389847 0.522983 -0.028527
C27   C     C_R   0.353458 0.497469 0.500440 -0.088482
C28   C     C_R   0.646551 0.502756 0.499863 -0.082843
H1    H     H_    0.347424 0.456302 0.717663 0.172513
H2    H     H_    0.652462 0.540321 0.718413 0.179677
H3    H     H_    0.259409 0.451836 0.717630 0.177290
H4    H     H_    0.740460 0.545272 0.717842 0.177930
H5    H     H_    0.119523 0.175046 0.500184 0.194549
H6    H     H_    0.880497 0.825591 0.506590 0.194276
C29   C     C_R   0.973753 0.383704 0.528572 0.048804
C30   C     C_R   0.026194 0.616719 0.531594 0.048808
C31   C     C_R   0.975120 0.618945 0.526026 0.048853
C32   C     C_R   0.024842 0.381520 0.523529 0.048804
C33   C     C_R   0.949217 0.502365 0.525704 0.077459
C34   C     C_R   0.050741 0.498091 0.526206 0.077412
C35   C     C_R   0.946067 0.270841 0.535688 -0.200133
C36   C     C_R   0.053855 0.729514 0.541694 -0.200304
C37   C     C_R   0.896129 0.274126 0.532200 -0.111570
C38   C     C_R   0.103803 0.726257 0.538640 -0.111857
O11   O     O_2   0.795768 0.284951 0.517086 -0.509309
O12   O     O_2   0.204203 0.715557 0.524030 -0.511509
C39   C     C_R   0.051156 0.266367 0.513281 -0.199966
C40   C     C_R   0.948832 0.734166 0.518153 -0.199780
H7    H     H_    0.652872 0.466789 0.282224 0.195989
H8    H     H_    0.347284 0.537058 0.284139 0.205946
H9    H     H_    0.876611 0.184965 0.536387 0.195614
H10   H     H_    0.123306 0.815377 0.545120 0.195426
H11   H     H_    0.961683 0.177641 0.545528 0.138925
H12   H     H_    0.038207 0.822624 0.553591 0.139182
H13   H     H_    0.034412 0.174329 0.505467 0.139338
H14   H     H_    0.965599 0.826247 0.512588 0.139025
C41   C     C_3   0.540226 0.039371 0.557111 0.370808
C42   C     C_3   0.459770 0.960637 0.442854 0.371520
C43   C     C_3   0.538342 0.954896 0.428382 -0.273703
C44   C     C_3   0.461652 0.045109 0.571588 -0.274149
H15   H     H_    0.569866 0.915000 0.372307 0.185236
H16   H     H_    0.430129 0.085013 0.627660 0.183660
C45   C     C_3   0.499273 0.876803 0.501432 -0.132188
C46   C     C_3   0.500722 0.123201 0.498543 -0.132189
C47   C     C_3   0.502157 0.959800 0.631765 -0.248123
C48   C     C_3   0.497840 0.040210 0.368208 -0.247554
H17   H     H_    0.504633 0.924709 0.738726 0.178482
H18   H     H_    0.495366 0.075302 0.261248 0.178645
C49   C     C_3   0.488621 0.389199 0.047870 -0.075906
C50   C     C_3   0.511381 0.610801 0.952134 -0.077388
C51   C     C_3   0.530678 0.418526 0.950460 -0.057589
C52   C     C_3   0.469322 0.581474 0.049544 -0.054735
H19   H     H_    0.556469 0.350014 0.903542 0.169247
H20   H     H_    0.443523 0.649959 0.096475 0.167647
H21   H     H_    0.479012 0.295963 0.093130 0.139651
H22   H     H_    0.520993 0.704036 0.906873 0.139037
N3    N     N_3   0.499960 0.500030 0.863290 -0.087494
N4    N     N_3   0.500040 0.499970 0.136710 -0.087175
C53   C     C_3   0.457897 0.470710 0.951524 -0.068045
C54   C     C_3   0.542105 0.529287 0.048484 -0.071794
H23   H     H_    0.422458 0.445939 0.905809 0.137578
H24   H     H_    0.577550 0.553996 0.094230 0.143029
N5    N     N_R   0.585167 0.081654 0.619950 0.211668
O13   O     O_R   0.615139 0.998020 0.668136 -0.357018
O14   O     O_R   0.596368 0.201649 0.624701 -0.394820
N6    N     N_R   0.414834 0.918371 0.379962 0.212094
O15   O     O_R   0.384838 0.002023 0.331936 -0.352511
O16   O     O_R   0.403709 0.798346 0.374749 -0.400434
N7    N     N_R   0.748110 0.467041 0.248019 0.221234
O17   O     O_R   0.726769 0.411078 0.145191 -0.362313
O18   O     O_R   0.791497 0.511043 0.230079 -0.369509
N8    N     N_R   0.252069 0.537482 0.250563 0.222454
O19   O     O_R   0.273500 0.594874 0.149407 -0.354426
O20   O     O_R   0.208710 0.493670 0.231426 -0.369436

loop_
_geom_bond_atom_site_label_1
_geom_bond_atom_site_label_2
_geom_bond_distance
_ccdc_geom_bond_type
C13   C15   1.384987 A    
O7    Zn2   2.010879 S    
N1    C17   1.423979 S    
C41   C47   1.532860 S    
N5    O13   1.300190 A    
C51   N3    1.480977 S    
O5    C3    1.298423 A    
C49   N4    1.481317 S    
C41   N5    1.457954 S    
C19   C25   1.408598 A    
C44   H16   1.110405 S    
O1    C1    1.281910 A    
N1    C7    1.364657 A    
C10   C12   1.399222 A    
C32   C39   1.415972 A    
C42   N6    1.457963 S    
C52   H20   1.110353 S    
N8    O19   1.302016 A    
C49   C53   1.534585 S    
C40   H14   1.075896 S    
O4    Zn1   1.995295 S    
C4    C28   1.460526 S    
C38   H10   1.083698 S    
C50   N3    1.481355 S    
C23   H5    1.083714 S    
C24   H6    1.083718 S    
O6    C4    1.298592 A    
C51   H19   1.110324 S    
C53   H23   1.110138 S    
Zn1   N3    2.022791 S    
C43   H15   1.110397 S    
O2    C2    1.281883 A    
C31   C40   1.415978 A    
C50   H22   1.110063 S    
C5    C21   1.398473 A    
N5    O14   1.300023 A    
C32   C34   1.421037 A    
C45   C47   1.538464 S    
C49   H21   1.110062 S    
C7    O12   1.350094 S    
C42   C44   1.533273 S    
C11   C27   1.403171 A    
C8    O11   1.350105 S    
C47   H17   1.110398 S    
C2    C45   1.414691 S    
C50   C54   1.534636 S    
C29   C35   1.415737 A    
C25   C38   1.393841 A    
C14   H2    1.083286 S    
C30   C36   1.415730 A    
C15   H3    1.083237 S    
C31   C33   1.421037 A    
C11   H8    1.083184 S    
C9    C17   1.413392 A    
C5    N1    1.364634 A    
C12   H7    1.083149 S    
C10   C18   1.413398 A    
C42   C45   1.520040 S    
C52   C53   1.534895 S    
N3    C53   1.481417 S    
C51   C54   1.534902 S    
C13   C27   1.400248 A    
C35   H11   1.075974 S    
C7    C25   1.398236 A    
C6    N2    1.364623 A    
C29   C32   1.417410 A    
C8    C26   1.398210 A    
N4    C54   1.481417 S    
C30   C31   1.417405 A    
N7    O18   1.301025 A    
C6    O10   1.350021 S    
C30   C34   1.421060 A    
C54   H24   1.110252 S    
O7    C3    1.298465 A    
Zn2   N4    2.022792 S    
O3    Zn2   1.995297 S    
O8    C4    1.298390 A    
C48   H18   1.110398 S    
C49   C51   1.534937 S    
N2    C8    1.364628 A    
C44   C47   1.555038 S    
C35   C37   1.385513 A    
C20   C26   1.408599 A    
O4    C2    1.280443 A    
O1    Zn1   1.990418 S    
C22   C24   1.393748 A    
C12   C28   1.403249 A    
C41   C43   1.533247 S    
N6    O16   1.299980 A    
N2    C18   1.423924 S    
C39   H13   1.075875 S    
C19   C34   1.417380 A    
C5    O9    1.350025 S    
O6    Zn2   2.012475 S    
C26   C37   1.393837 A    
C21   C23   1.393733 A    
C16   H4    1.083273 S    
C37   H9    1.083706 S    
O3    C1    1.280399 A    
O8    Zn1   2.010882 S    
C23   C39   1.385565 A    
C10   N7    1.442647 S    
C14   C16   1.384884 A    
C15   C17   1.397211 A    
C36   H12   1.075979 S    
C6    C22   1.398499 A    
C16   C18   1.397169 A    
C9    N8    1.442607 S    
N8    O20   1.301059 A    
C29   C33   1.421078 A    
C14   C28   1.400381 A    
N6    O15   1.300184 A    
C19   C21   1.408666 A    
C43   C48   1.555016 S    
C36   C38   1.385536 A    
C3    C27   1.460335 S    
C46   C48   1.538445 S    
C9    C11   1.399095 A    
O2    Zn2   1.990416 S    
C13   H1    1.083156 S    
O5    Zn1   2.012470 S    
C20   C22   1.408689 A    
C20   C33   1.417379 A    
C42   C48   1.532846 S    
C44   C46   1.536346 S    
N7    O17   1.302155 A    
C43   C45   1.536350 S    
C50   C52   1.534983 S    
C52   N4    1.480947 S    
C1    C46   1.414658 S    
C41   C46   1.520000 S    
C24   C40   1.385586 A    
