data_mof_unit_46425.cif
_audit_creation_date              2012-12-11T15:14:43-0500
_audit_creation_method            fapswitch 2.2
_symmetry_space_group_name_H-M    P1
_symmetry_Int_Tables_number       1
_space_group_crystal_system       triclinic
_cell_length_a                    22.385306
_cell_length_b                    7.227948
_cell_length_c                    19.177717
_cell_angle_alpha                 90.000147
_cell_angle_beta                  98.951066
_cell_angle_gamma                 89.999847
_cell_volume                      3065.16227717

loop_
_atom_site_label
_atom_site_type_symbol
_atom_type_description
_atom_site_fract_x
_atom_site_fract_y
_atom_site_fract_z
_atom_type_partial_charge
O1    O     O_R   0.448470 0.506130 0.415700 -0.532958
O2    O     O_R   0.551530 0.006130 0.584300 -0.532956
O3    O     O_R   0.436320 0.174490 0.555800 -0.530040
O4    O     O_R   0.563680 0.674490 0.444200 -0.530039
C1    C     C_R   0.421264 0.344411 0.575298 0.698133
C2    C     C_R   0.578736 0.844410 0.424702 0.698131
O5    O     O_R   0.441350 0.176340 0.414480 -0.534724
O6    O     O_R   0.558650 0.676340 0.585520 -0.534724
O7    O     O_R   0.556600 0.007100 0.441970 -0.533098
O8    O     O_R   0.443400 0.507100 0.558030 -0.533100
C3    C     C_R   0.427423 0.344841 0.388938 0.672776
C4    C     C_R   0.572577 0.844842 0.611062 0.672779
O9    O     O_3   0.537810 0.339550 0.509190 -0.371517
O10   O     O_3   0.462190 0.839550 0.490810 -0.371520
V1    V     V_3+5 0.492990 0.064280 0.498300 1.455385
V2    V     V_3+5 0.507010 0.564280 0.501700 1.455385
C5    C     C_R   0.863884 0.991950 0.696955 -0.145855
C6    C     C_R   0.136121 0.492022 0.303042 -0.145843
H1    H     H_    0.949894 0.034076 0.760959 0.139198
H2    H     H_    0.050108 0.534128 0.239041 0.139208
H3    H     H_    0.783312 0.973234 0.581206 0.146451
H4    H     H_    0.216697 0.473392 0.418788 0.146451
H5    H     H_    0.881420 0.027224 0.649054 0.143406
H6    H     H_    0.118588 0.527333 0.350942 0.143408
C7    C     C_R   0.883189 0.941609 0.822942 -0.137045
C8    C     C_R   0.116808 0.441610 0.177060 -0.137120
C9    C     C_R   0.587500 0.836461 0.740661 -0.150107
C10   C     C_R   0.412499 0.336372 0.259340 -0.150090
C11   C     C_R   0.622599 0.853765 0.806704 -0.135846
C12   C     C_R   0.377401 0.353632 0.193296 -0.135783
C13   C     C_R   0.684780 0.881755 0.813116 -0.158674
C14   C     C_R   0.315221 0.381657 0.186882 -0.158827
C15   C     C_R   0.714487 0.886515 0.753153 0.085289
C16   C     C_R   0.285514 0.386504 0.246844 0.085214
C17   C     C_R   0.677230 0.880836 0.685105 0.061164
C18   C     C_R   0.322772 0.380868 0.314893 0.061192
C19   C     C_R   0.779113 0.907735 0.757963 -0.008483
C20   C     C_R   0.220888 0.407745 0.242034 -0.008518
C21   C     C_R   0.802604 0.948492 0.694803 0.075232
C22   C     C_R   0.197400 0.448554 0.305193 0.075253
C23   C     C_R   0.765020 0.946192 0.629341 -0.148415
C24   C     C_R   0.234986 0.446304 0.370654 -0.148408
C25   C     C_R   0.703793 0.907829 0.624316 -0.178660
C26   C     C_R   0.296212 0.407929 0.375681 -0.178668
C27   C     C_R   0.821962 0.888667 0.821778 0.319438
C28   C     C_R   0.178034 0.388650 0.178223 0.319532
C29   C     C_R   0.903147 0.994530 0.760578 -0.232166
C30   C     C_R   0.096854 0.494569 0.239421 -0.232201
C31   C     C_R   0.613662 0.852940 0.679433 -0.080532
C32   C     C_R   0.386339 0.352934 0.320567 -0.080532
H7    H     H_    0.539176 0.815770 0.737217 0.117220
H8    H     H_    0.460823 0.315642 0.262785 0.117214
H9    H     H_    0.707582 0.906838 0.865771 0.185374
H10   H     H_    0.292422 0.406668 0.134222 0.185412
H11   H     H_    0.601226 0.848509 0.853581 0.144811
H12   H     H_    0.398773 0.348300 0.146418 0.144816
H13   H     H_    0.676973 0.905428 0.572209 0.113627
H14   H     H_    0.323033 0.405566 0.427787 0.113633
C33   C     C_3   0.767518 0.771248 0.298854 0.324372
C34   C     C_3   0.232471 0.271286 0.701129 0.324350
C35   C     C_3   0.802791 0.949638 0.287092 -0.185192
C36   C     C_3   0.197212 0.449698 0.712908 -0.185183
H15   H     H_    0.846719 0.991782 0.318146 0.166871
H16   H     H_    0.153287 0.491894 0.681856 0.166869
H17   H     H_    0.736878 0.197276 0.305546 0.191014
H18   H     H_    0.263146 0.697318 0.694486 0.190975
C37   C     C_1   0.874978 0.940044 0.120695 -0.154933
C38   C     C_1   0.125021 0.440043 0.879304 -0.154940
C39   C     C_1   0.624536 0.854239 0.378841 -0.155147
C40   C     C_1   0.375464 0.354240 0.621158 -0.155150
C41   C     C_3   0.756329 0.732890 0.218544 -0.185400
C42   C     C_3   0.243656 0.232868 0.781436 -0.185399
C43   C     C_3   0.790821 0.912386 0.206874 0.044426
C44   C     C_3   0.209177 0.412384 0.793123 0.044434
C45   C     C_3   0.696362 0.844762 0.211926 -0.183351
C46   C     C_3   0.303633 0.344700 0.788069 -0.183334
C47   C     C_3   0.708341 0.881996 0.292162 0.043227
C48   C     C_3   0.291657 0.381995 0.707836 0.043235
C49   C     C_3   0.731652 0.023159 0.200151 0.326203
C50   C     C_3   0.268357 0.523117 0.799863 0.326182
C51   C     C_3   0.742832 0.061522 0.280469 -0.186210
C52   C     C_3   0.257181 0.561542 0.719547 -0.186226
C53   C     C_1   0.836912 0.928651 0.159316 0.046699
C54   C     C_1   0.163087 0.428649 0.840682 0.046697
C55   C     C_1   0.662402 0.865657 0.339942 0.046249
C56   C     C_1   0.337597 0.365658 0.660057 0.046236
H19   H     H_    0.652435 0.802614 0.180872 0.166218
H20   H     H_    0.347557 0.302499 0.819123 0.166219
H21   H     H_    0.762288 0.597157 0.193451 0.190351
H22   H     H_    0.237685 0.097113 0.806512 0.190313
O11   O     O_R   0.056650 0.288730 0.942060 -0.536452
O12   O     O_R   0.943350 0.788730 0.057940 -0.536462
O13   O     O_R   0.058660 0.616870 0.085540 -0.539271
O14   O     O_R   0.941340 0.116870 0.914460 -0.539263
C57   C     C_R   0.073243 0.448503 0.110636 0.739884
C58   C     C_R   0.926754 0.948503 0.889366 0.739840
O15   O     O_R   0.063700 0.618520 0.944220 -0.531559
O16   O     O_R   0.936300 0.118520 0.055780 -0.531571
O17   O     O_R   0.948460 0.787610 0.915680 -0.543694
O18   O     O_R   0.051540 0.287610 0.084320 -0.543677
C59   C     C_R   0.078986 0.449952 0.924814 0.723492
C60   C     C_R   0.921014 0.949952 0.075186 0.723467
O19   O     O_3   0.962230 0.453430 0.990860 -0.384606
O20   O     O_3   0.037770 0.953430 0.009140 -0.384580
V3    V     V_3+5 0.007010 0.728750 0.001700 1.404036
V4    V     V_3+5 0.992990 0.228750 0.998300 1.404034
Br1   Br    Br    0.793890 0.587139 0.370352 -0.565221
Br2   Br    Br    0.206088 0.087222 0.629613 -0.565201
Br3   Br    Br    0.705485 0.207071 0.128473 -0.571118
Br4   Br    Br    0.294536 0.706987 0.871557 -0.571025
O21   O     O_3   0.805036 0.820642 0.883215 -0.595505
C61   C     C_3   0.820963 0.631301 0.892129 0.090030
H23   H     H_    0.847611 0.615110 0.945708 0.167270
H24   H     H_    0.849527 0.577119 0.853702 0.114296
C62   C     C_3   0.763847 0.513140 0.887704 -0.351524
H25   H     H_    0.734914 0.566828 0.925327 0.223423
H26   H     H_    0.738022 0.520934 0.833397 0.204222
C63   C     C_3   0.779413 0.311360 0.905267 -0.724833
H27   H     H_    0.807554 0.254862 0.867478 0.223066
H28   H     H_    0.737148 0.229165 0.901360 0.238062
H29   H     H_    0.804469 0.298801 0.959810 0.241310
O22   O     O_3   0.194954 0.320651 0.116779 -0.595495
C64   C     C_3   0.179028 0.131312 0.107857 0.090115
H30   H     H_    0.152538 0.115044 0.054203 0.167185
H31   H     H_    0.150311 0.077270 0.146140 0.114397
C65   C     C_3   0.236141 0.013076 0.112571 -0.351675
H32   H     H_    0.265212 0.066582 0.075064 0.223373
H33   H     H_    0.261814 0.021007 0.166951 0.204197
C66   C     C_3   0.220583 0.811265 0.095049 -0.724610
H34   H     H_    0.192320 0.754942 0.132762 0.223024
H35   H     H_    0.262857 0.729033 0.099149 0.237967
H36   H     H_    0.195646 0.798550 0.040435 0.241293

loop_
_geom_bond_atom_site_label_1
_geom_bond_atom_site_label_2
_ccdc_geom_bond_type
C2    C39   S    
C41   C45   S    
C37   C53   T    
C65   H32   S    
C9    C11   A    
C33   Br1   S    
O21   C61   S    
O1    C3    A    
C42   C46   S    
O2    C4    A    
C33   C47   S    
C2    O7    A    
C61   H24   S    
C4    C31   S    
O3    V1    S    
C64   H30   S    
C21   C23   A    
O5    C3    A    
C34   C48   S    
C5    H5    S    
C6    H6    S    
C20   C22   A    
C46   C48   S    
H1    C29   S    
C64   H31   S    
C34   C42   S    
C62   H25   S    
C58   O17   A    
C34   C36   S    
C5    C21   A    
C35   H15   S    
C6    C22   A    
C63   H27   S    
O20   V3    S    
C36   H16   S    
O13   V3    S    
C10   C32   A    
C26   H14   S    
C62   H26   S    
C17   C31   A    
C13   C15   A    
C17   C25   A    
C7    C29   A    
C34   Br2   S    
O12   C60   A    
C66   H36   S    
O15   V3    S    
C48   C56   S    
C22   C24   A    
C36   C52   S    
C47   C55   S    
O6    V2    S    
C44   C50   S    
C23   C25   A    
O11   V4    S    
C24   C26   A    
O11   C59   A    
C14   H10   S    
C61   H23   S    
C9    H7    S    
O13   C57   A    
O17   V3    S    
C33   C35   S    
C49   Br3   S    
C38   C54   T    
C46   C50   S    
C38   C59   S    
C42   C44   S    
C49   C51   S    
C25   H13   S    
C57   O18   A    
C64   C65   S    
C11   H11   S    
C65   C66   S    
C35   C43   S    
O16   C60   A    
C12   H12   S    
C15   C19   A    
C63   H29   S    
C14   C16   A    
O4    V2    S    
C1    C40   S    
C39   C55   T    
H18   C52   S    
C42   H22   S    
C48   C52   S    
H17   C51   S    
C41   H21   S    
C47   C51   S    
O6    C4    A    
C62   C63   S    
C43   C49   S    
O1    V2    S    
C13   H9    S    
O14   C58   A    
O2    V1    S    
C45   C47   S    
H2    C30   S    
H3    C23   S    
C45   H19   S    
C18   C26   A    
O4    C2    A    
C19   C27   A    
C40   C56   T    
C7    C27   A    
C18   C32   A    
C41   C43   S    
C66   H34   S    
C8    C57   S    
C46   H20   S    
O14   V4    S    
C65   H33   S    
C16   C20   A    
C36   C44   S    
C5    C29   A    
C44   C54   S    
O3    C1    A    
C6    C30   A    
C27   O21   S    
C8    C30   A    
O18   V4    S    
O16   V4    S    
C10   C12   A    
O7    V1    S    
C1    O8    A    
C11   C13   A    
C3    C32   S    
O8    V2    S    
C12   C14   A    
C10   H8    S    
H4    C24   S    
O5    V1    S    
C15   C17   A    
C50   C52   S    
O19   V4    S    
C16   C18   A    
C63   H28   S    
C20   C28   A    
C8    C28   A    
O12   V3    S    
C7    C58   S    
C19   C21   A    
O9    V2    S    
C50   Br4   S    
O10   V1    S    
C28   O22   S    
C35   C51   S    
O22   C64   S    
C45   C49   S    
C43   C53   S    
C61   C62   S    
O15   C59   A    
C9    C31   A    
C37   C60   S    
C33   C41   S    
C66   H35   S    
