data_mof_unit_58704.cif
_audit_creation_date              2012-12-11T17:04:52-0500
_audit_creation_method            fapswitch 2.2
_symmetry_space_group_name_H-M    P1
_symmetry_Int_Tables_number       1
_space_group_crystal_system       triclinic
_cell_length_a                    17.360334
_cell_length_b                    24.37538
_cell_length_c                    15.002314
_cell_angle_alpha                 89.959467
_cell_angle_beta                  125.13581
_cell_angle_gamma                 90.035838
_cell_volume                      5191.69879685

loop_
_atom_site_label
_atom_site_type_symbol
_atom_type_description
_atom_site_fract_x
_atom_site_fract_y
_atom_site_fract_z
_atom_type_partial_charge
C1    C     C_R   0.808701 0.624008 0.906857 -0.228015
C2    C     C_R   0.930593 0.501584 0.632116 0.104556
C3    C     C_R   0.766051 0.045152 0.291744 -0.094903
C4    C     C_R   0.849624 0.349888 0.909689 -0.133867
C5    C     C_R   0.150453 0.350224 0.090970 -0.120510
C6    C     C_R   0.353595 0.848506 0.911159 -0.148064
C7    C     C_R   0.649350 0.849513 0.089135 -0.130941
C8    C     C_R   0.905402 0.634005 0.087830 0.595498
C9    C     C_R   0.096492 0.628795 0.909049 0.605645
C10   C     C_R   0.408737 0.135522 0.089817 0.605759
C11   C     C_R   0.596460 0.128161 0.908619 0.616200
C12   C     C_R   0.813178 0.641235 0.997545 -0.018705
C13   C     C_R   0.464044 0.000196 0.289394 0.151510
C14   C     C_R   0.186421 0.641149 0.999619 -0.047417
C15   C     C_R   0.316657 0.144720 0.001424 -0.034910
C16   C     C_R   0.687635 0.138591 0.998482 -0.032948
C17   C     C_3   0.510242 0.638219 0.516053 -0.229724
C18   C     C_3   0.465613 0.510847 0.657153 -0.114906
C19   C     C_3   0.084138 0.060358 0.395172 -0.100156
C20   C     C_3   0.973541 0.140094 0.506923 -0.280010
C21   C     C_3   0.256687 0.601780 0.835730 -0.254714
C22   C     C_3   0.742917 0.603758 0.162895 -0.369382
C23   C     C_3   0.761022 0.137396 0.774560 -0.146788
C24   C     C_R   0.432047 0.001175 0.633168 0.105781
C25   C     C_3   0.261767 0.108891 0.185955 -0.363435
C26   C     C_3   0.439836 0.605074 0.130586 -0.127301
C27   C     C_3   0.550286 0.615198 0.869969 -0.090540
C28   C     C_3   0.945324 0.112783 0.095092 -0.069657
C29   C     C_3   0.070536 0.083825 0.808543 -0.107189
C30   C     C_3   0.124303 0.213265 0.286237 -0.239509
C31   C     C_3   0.883652 0.245067 0.657941 -0.211339
C32   C     C_3   0.622867 0.711237 0.305098 -0.239430
C33   C     C_3   0.381797 0.723083 0.688741 -0.185253
C34   C     C_3   0.851818 0.366862 0.461481 -0.213150
C35   C     C_R   0.700040 0.499005 0.635542 0.127232
C36   C     C_3   0.752861 0.436917 0.187745 -0.248031
C37   C     C_3   0.364608 0.866223 0.472316 -0.196316
C38   C     C_3   0.253737 0.936353 0.189658 -0.240844
C39   C     C_3   0.138648 0.519488 0.556259 -0.254596
C40   C     C_3   0.877456 0.663133 0.479277 -0.275060
C41   C     C_3   0.641478 0.012844 0.556719 -0.251151
C42   C     C_3   0.394841 0.163950 0.490902 -0.263032
C43   C     C_3   0.042125 0.679406 0.217927 -0.258961
C44   C     C_3   0.980981 0.685708 0.783353 -0.203110
C45   C     C_3   0.549698 0.177287 0.220541 -0.276730
C46   C     C_R   0.325606 0.500208 0.308592 0.103118
C47   C     C_3   0.479805 0.185419 0.784853 -0.210673
C48   C     C_R   0.175212 0.000318 0.698394 0.073971
C49   C     C_R   0.817800 0.997916 0.337361 0.141260
C50   C     C_3   0.551577 0.449956 0.461313 -0.142581
C51   C     C_3   0.501646 0.491794 0.365602 -0.075203
C52   C     C_3   0.994378 0.973822 0.606523 -0.162589
C53   C     C_R   0.188275 0.628153 0.090855 -0.243108
C54   C     C_3   0.965077 0.944419 0.499642 -0.130847
C55   C     C_3   0.473819 0.457600 0.480811 -0.389595
C56   C     C_3   0.559009 0.539884 0.445484 -0.325030
C57   C     C_3   0.934525 0.024765 0.540319 -0.333463
C58   C     C_3   0.050646 0.969046 0.507554 -0.327152
C59   C     C_3   0.426069 0.499894 0.387688 -0.017788
C60   C     C_3   0.605751 0.498063 0.539156 -0.045040
C61   C     C_3   0.908951 0.995750 0.435644 -0.032733
C62   C     C_3   0.077800 0.999314 0.611891 -0.016637
C63   C     C_3   0.482409 0.547177 0.466079 0.548365
C64   C     C_R   0.311910 0.129120 0.909512 -0.277475
C65   C     C_3   0.528465 0.505578 0.557743 0.560142
C66   C     C_3   0.993743 0.019931 0.444148 0.526831
C67   C     C_3   0.018974 0.049444 0.546657 0.549219
C68   C     C_R   0.872668 0.242103 0.099671 -0.110643
C69   C     C_R   0.109878 0.230052 0.911325 -0.012731
C70   C     C_R   0.375367 0.742674 0.102810 -0.106831
C71   C     C_R   0.631688 0.745975 0.897156 -0.114453
C72   C     C_R   0.855002 0.262259 0.002912 0.118676
C73   C     C_R   0.146399 0.261489 0.004712 0.013403
C74   C     C_R   0.363149 0.760582 0.007426 0.097266
C75   C     C_R   0.690947 0.124511 0.090729 -0.234049
C76   C     C_R   0.644252 0.763307 0.992888 0.096219
C77   C     C_R   0.800004 0.231295 0.906824 -0.385398
C78   C     C_R   0.215512 0.236155 0.104522 -0.331866
C79   C     C_R   0.307855 0.729347 0.911941 -0.345557
C80   C     C_R   0.697997 0.731342 0.087726 -0.347539
C81   C     C_R   0.941744 0.349723 0.091929 -0.109209
C82   C     C_R   0.058882 0.349433 0.908836 -0.153125
C83   C     C_R   0.444911 0.849263 0.092980 -0.117748
C84   C     C_R   0.558183 0.850560 0.906643 -0.129897
C85   C     C_R   0.259740 0.683056 0.910818 0.655372
C86   C     C_R   0.879242 0.318731 0.000945 0.110986
C87   C     C_R   0.743057 0.684070 0.087151 0.678202
C88   C     C_R   0.756635 0.182417 0.906774 0.629065
C89   C     C_R   0.258656 0.187669 0.104296 0.728401
C90   C     C_R   0.261388 0.670923 0.004328 -0.086531
C91   C     C_R   0.739129 0.671380 0.992630 -0.073649
C92   C     C_R   0.761271 0.169037 0.001341 -0.037783
C93   C     C_R   0.241447 0.169442 0.004803 -0.128926
C94   C     C_R   0.325881 0.698401 0.101308 -0.184923
C95   C     C_R   0.677604 0.700313 0.897091 -0.198764
C96   C     C_R   0.827042 0.195579 0.098600 -0.215957
C97   C     C_R   0.121791 0.318655 0.000760 0.120129
C98   C     C_R   0.153964 0.184128 0.911852 -0.205252
C99   C     C_3   0.409254 0.679270 0.211717 0.426455
C100  C     C_3   0.592198 0.682794 0.787563 0.479215
C101  C     C_3   0.916593 0.174256 0.199656 0.470886
C102  C     C_3   0.088730 0.177645 0.790181 0.435617
C103  C     C_3   0.965445 0.226694 0.202329 0.383678
C104  C     C_3   0.041840 0.231311 0.790775 0.475247
C105  C     C_3   0.463765 0.728287 0.211247 0.416626
C106  C     C_3   0.542575 0.734285 0.787563 0.398254
C107  C     C_R   0.924292 0.553680 0.490337 -0.224983
C108  C     C_R   0.385318 0.817267 0.003138 0.112620
C109  C     C_R   0.944200 0.550722 0.415060 -0.160309
C110  C     C_R   0.430460 0.052529 0.494675 -0.223679
C111  C     C_R   0.449312 0.049480 0.418616 -0.147596
C112  C     C_R   0.900467 0.505741 0.520019 -0.137213
C113  C     C_R   0.926393 0.503726 0.353770 -0.141895
C114  C     C_R   0.404039 0.004972 0.522311 -0.155650
C115  C     C_R   0.428210 0.003081 0.354938 -0.146808
C116  C     C_R   0.864638 0.460570 0.447267 0.479901
C117  C     C_R   0.873340 0.461315 0.358387 0.416117
C118  C     C_R   0.367816 0.959849 0.449409 0.478225
C119  C     C_R   0.619607 0.819100 0.996902 0.120109
C120  C     C_R   0.375052 0.960834 0.359746 0.417781
C121  C     C_3   0.023391 0.591920 0.472373 0.396417
C122  C     C_3   0.000852 0.596551 0.556115 0.457497
C123  C     C_3   0.531914 0.088331 0.477900 0.377378
C124  C     C_3   0.510939 0.092942 0.563056 0.449835
C125  C     C_R   0.990599 0.545993 0.259436 -0.125829
C126  C     C_R   0.945564 0.546346 0.695402 -0.119415
C127  C     C_R   0.489925 0.045830 0.258768 -0.136999
C128  C     C_R   0.446048 0.046168 0.695565 -0.108948
C129  C     C_R   0.745069 0.453993 0.698557 -0.073860
C130  C     C_R   0.964078 0.500551 0.289787 0.147553
C131  C     C_R   0.269598 0.454165 0.267070 -0.162120
C132  C     C_R   0.230801 0.954184 0.738409 -0.123149
C133  C     C_R   0.764423 0.952848 0.284831 -0.134373
C134  C     C_R   0.989014 0.454347 0.258306 -0.137546
C135  C     C_R   0.949637 0.455393 0.695138 -0.129686
C136  C     C_R   0.489163 0.954126 0.258167 -0.135844
C137  C     C_R   0.450769 0.955139 0.696064 -0.119109
C138  C     C_R   0.744886 0.545396 0.695032 -0.095095
C139  C     C_R   0.269817 0.546097 0.276131 -0.094312
C140  C     C_R   0.230614 0.046113 0.726355 -0.166193
H1    H     H_    0.749314 0.626457 0.822668 0.154286
H2    H     H_    0.058453 0.582004 0.638406 0.107284
H3    H     H_    0.765515 0.470835 0.147983 0.136713
H4    H     H_    0.700697 0.449726 0.204406 0.139112
H5    H     H_    0.721760 0.402211 0.129372 0.169681
H6    H     H_    0.441541 0.868998 0.509093 0.094763
H7    H     H_    0.326839 0.846247 0.391174 0.195753
H8    H     H_    0.356459 0.838983 0.525623 0.127430
H9    H     H_    0.265973 0.970413 0.149762 0.128160
H10   H     H_    0.201870 0.948995 0.206888 0.143201
H11   H     H_    0.222497 0.901708 0.131144 0.168165
H12   H     H_    0.102786 0.505841 0.594225 0.102333
H13   H     H_    0.518221 0.127264 0.432507 0.106669
H14   H     H_    0.215506 0.516845 0.619924 0.148210
H15   H     H_    0.123064 0.490615 0.490900 0.163969
H16   H     H_    0.828865 0.638620 0.489222 0.135218
H17   H     H_    0.861299 0.657258 0.396781 0.186833
H18   H     H_    0.864892 0.706990 0.486520 0.155183
H19   H     H_    0.603068 0.999566 0.591793 0.107199
H20   H     H_    0.717735 0.008918 0.622204 0.155294
H21   H     H_    0.625917 0.984363 0.490783 0.166427
H22   H     H_    0.381215 0.161029 0.409298 0.184329
H23   H     H_    0.386159 0.207649 0.503887 0.155092
H24   H     H_    0.567607 0.076241 0.643963 0.107697
H25   H     H_    0.341957 0.140057 0.494115 0.128469
H26   H     H_    0.809228 0.336452 0.825789 0.098898
H27   H     H_    0.188334 0.336900 0.174718 0.091634
H28   H     H_    0.314717 0.834263 0.827831 0.102654
H29   H     H_    0.689401 0.835322 0.172564 0.094025
H30   H     H_    0.045187 0.699519 0.153374 0.137514
H31   H     H_    0.087137 0.642116 0.248885 0.142343
H32   H     H_    0.071605 0.708584 0.286928 0.179435
H33   H     H_    0.006699 0.718085 0.846888 0.110535
H34   H     H_    0.921971 0.662438 0.774976 0.103204
H35   H     H_    0.987016 0.335526 0.175111 0.104340
H36   H     H_    0.952875 0.706794 0.704826 0.194950
H37   H     H_    0.553694 0.196313 0.155815 0.138392
H38   H     H_    0.591932 0.138957 0.250985 0.144550
H39   H     H_    0.581706 0.206453 0.289818 0.174653
H40   H     H_    0.504722 0.216849 0.849914 0.109983
H41   H     H_    0.420869 0.161223 0.774692 0.108277
H42   H     H_    0.451929 0.207681 0.707526 0.187420
H43   H     H_    0.013823 0.335310 0.825898 0.110612
H44   H     H_    0.491283 0.835594 0.176417 0.102024
H45   H     H_    0.513518 0.837571 0.822686 0.111034
H46   H     H_    0.985255 0.587487 0.277024 0.180144
H47   H     H_    0.921236 0.587425 0.666119 0.164361
H48   H     H_    0.483823 0.087282 0.276130 0.184217
H49   H     H_    0.242799 0.638962 0.173192 0.144829
H50   H     H_    0.422269 0.087268 0.665937 0.163859
H51   H     H_    0.730598 0.411377 0.674203 0.086794
H52   H     H_    0.291171 0.411664 0.283410 0.108157
H53   H     H_    0.209113 0.911682 0.721716 0.109118
H54   H     H_    0.780691 0.910183 0.308014 0.090568
H55   H     H_    0.981505 0.411885 0.272614 0.138898
H56   H     H_    0.935795 0.413187 0.668590 0.129957
H57   H     H_    0.482226 0.911622 0.272842 0.137872
H58   H     H_    0.438131 0.912837 0.670552 0.130485
H59   H     H_    0.730516 0.587264 0.665904 0.058629
H60   H     H_    0.255341 0.137627 0.827162 0.140461
H61   H     H_    0.290443 0.587296 0.305673 0.155617
H62   H     H_    0.210910 0.086692 0.692546 0.155500
H63   H     H_    0.784520 0.086199 0.324821 0.068915
H64   H     H_    0.437366 0.424010 0.492729 0.149739
H65   H     H_    0.597336 0.572083 0.433230 0.159999
H66   H     H_    0.883608 0.046519 0.550040 0.168549
H67   H     H_    0.099609 0.945886 0.496364 0.164958
H68   H     H_    0.583581 0.410529 0.461409 0.143881
H69   H     H_    0.486643 0.485940 0.283626 0.128811
H70   H     H_    0.998544 0.954908 0.676495 0.122397
H71   H     H_    0.749554 0.130334 0.174259 0.147505
H72   H     H_    0.940479 0.901335 0.477759 0.127483
H73   H     H_    0.527454 0.651518 0.458591 0.132102
H74   H     H_    0.575178 0.624846 0.594482 0.153694
H75   H     H_    0.480932 0.674209 0.532200 0.152970
H76   H     H_    0.429915 0.470523 0.626215 0.084260
H77   H     H_    0.416957 0.544816 0.606735 0.178847
H78   H     H_    0.483702 0.515170 0.740635 0.149208
H79   H     H_    0.141042 0.031916 0.454653 0.091372
H80   H     H_    0.096980 0.101789 0.431914 0.141155
H81   H     H_    0.090197 0.063062 0.325718 0.178354
H82   H     H_    0.984057 0.255060 0.270384 -0.041864
H83   H     H_    0.922489 0.139142 0.528997 0.178507
H84   H     H_    0.937409 0.130312 0.419309 0.148388
H85   H     H_    0.001101 0.182551 0.519996 0.147911
H86   H     H_    0.788673 0.245360 0.831810 0.158583
H87   H     H_    0.238339 0.253615 0.182210 0.141688
H88   H     H_    0.299496 0.741404 0.837447 0.165725
H89   H     H_    0.706929 0.743238 0.162596 0.157838
H90   H     H_    0.333146 0.607580 0.872498 0.106507
H91   H     H_    0.226140 0.580919 0.756685 0.185483
H92   H     H_    0.246396 0.574423 0.887355 0.118082
H93   H     H_    0.053548 0.266965 0.753128 -0.118815
H94   H     H_    0.750902 0.575002 0.111270 0.146966
H95   H     H_    0.666974 0.611516 0.126541 0.136028
H96   H     H_    0.772074 0.583557 0.242298 0.191699
H97   H     H_    0.837597 0.132325 0.839864 0.108453
H98   H     H_    0.749808 0.169779 0.716124 0.167574
H99   H     H_    0.736440 0.098088 0.729579 0.174045
H100  H     H_    0.275811 0.077292 0.143645 0.155359
H101  H     H_    0.184285 0.115408 0.141564 0.141098
H102  H     H_    0.285809 0.092934 0.267013 0.182153
H103  H     H_    0.444052 0.636211 0.079536 0.157860
H104  H     H_    0.481439 0.759995 0.273972 -0.054658
H105  H     H_    0.372495 0.582119 0.082796 0.116094
H106  H     H_    0.497072 0.575067 0.156369 0.129527
H107  H     H_    0.553689 0.649227 0.921101 0.150570
H108  H     H_    0.610873 0.587060 0.919454 0.112684
H109  H     H_    0.485345 0.591849 0.842415 0.117808
H110  H     H_    0.944162 0.149605 0.051093 0.152055
H111  H     H_    0.880916 0.087828 0.041693 0.124330
H112  H     H_    0.005964 0.087517 0.113471 0.118500
H113  H     H_    0.090564 0.083731 0.893480 0.113896
H114  H     H_    0.133133 0.076427 0.808007 0.136582
H115  H     H_    0.529928 0.765625 0.726179 -0.066360
H116  H     H_    0.020820 0.049363 0.765897 0.137358
H117  H     H_    0.394598 0.684605 0.274202 -0.001684
H118  H     H_    0.607635 0.685893 0.725691 -0.061042
H119  H     H_    0.909740 0.173066 0.268624 -0.028176
H120  H     H_    0.120809 0.181944 0.744502 0.003297
H121  H     H_    0.122381 0.180761 0.337060 0.133566
H122  H     H_    0.147325 0.252934 0.330940 0.117674
H123  H     H_    0.177518 0.200746 0.271595 0.172851
H124  H     H_    0.896729 0.230809 0.597230 0.114579
H125  H     H_    0.884368 0.290509 0.662081 0.109921
H126  H     H_    0.006733 0.630244 0.424346 0.108676
H127  H     H_    0.812286 0.231023 0.629992 0.159085
H128  H     H_    0.618119 0.682347 0.359271 0.142099
H129  H     H_    0.645043 0.752608 0.343007 0.113243
H130  H     H_    0.678072 0.695553 0.296224 0.167710
H131  H     H_    0.385959 0.693284 0.635425 0.159326
H132  H     H_    0.364121 0.764691 0.651610 0.104825
H133  H     H_    0.323677 0.709654 0.694369 0.179228
H134  H     H_    0.928995 0.366552 0.499055 0.104284
H135  H     H_    0.811557 0.349411 0.378044 0.198374
H136  H     H_    0.839215 0.339182 0.510171 0.125174
N1    N     N_R   0.892620 0.603790 0.941770 -0.078884
N2    N     N_R   0.973690 0.529110 0.793240 -0.055692
N3    N     N_R   0.526310 0.029110 0.206760 -0.058989
N4    N     N_R   0.473690 0.029110 0.793240 -0.054591
N5    N     N_R   0.818570 0.472310 0.793020 -0.044688
N6    N     N_R   0.181430 0.472310 0.206980 -0.041487
N7    N     N_R   0.318570 0.972310 0.793020 -0.037771
N8    N     N_R   0.681430 0.972310 0.206980 -0.042610
N9    N     N_R   0.026930 0.472300 0.207330 -0.051166
N10   N     N_R   0.973070 0.472300 0.792670 -0.053341
N11   N     N_R   0.526930 0.972300 0.207330 -0.051721
N12   N     N_R   0.107380 0.603790 0.058230 -0.078640
N13   N     N_R   0.473070 0.972300 0.792670 -0.052143
N14   N     N_R   0.817960 0.529130 0.792460 -0.038545
N15   N     N_R   0.182040 0.529130 0.207540 -0.047738
N16   N     N_R   0.317960 0.029130 0.792460 -0.040575
N17   N     N_R   0.682040 0.029130 0.207540 -0.040743
N18   N     N_R   0.894850 0.397640 0.943830 -0.041129
N19   N     N_R   0.105150 0.397640 0.056170 -0.042712
N20   N     N_R   0.394850 0.897640 0.943830 -0.042135
N21   N     N_R   0.605150 0.897640 0.056170 -0.040275
N22   N     N_R   0.950040 0.603780 0.055950 -0.117204
N23   N     N_R   0.392620 0.103790 0.941770 -0.068165
N24   N     N_R   0.049960 0.603780 0.944050 -0.114751
N25   N     N_R   0.450040 0.103780 0.055950 -0.113819
N26   N     N_R   0.549960 0.103780 0.944050 -0.117520
N27   N     N_R   0.607380 0.103790 0.058230 -0.081286
N28   N     N_R   0.952270 0.397640 0.058010 -0.045742
N29   N     N_R   0.047730 0.397640 0.941990 -0.044286
N30   N     N_R   0.452270 0.897640 0.058010 -0.045616
N31   N     N_R   0.547730 0.897640 0.941990 -0.045606
N32   N     N_R   0.026310 0.529110 0.206760 -0.059072
Ni1   Ni    Ni4+2 0.934160 0.565860 0.869070 0.190880
Ni2   Ni    Ni4+2 0.065840 0.565860 0.130930 0.193270
Ni3   Ni    Ni4+2 0.434160 0.065860 0.869070 0.191570
Ni4   Ni    Ni4+2 0.565840 0.065860 0.130930 0.192015
Ni5   Ni    Ni4+2 0.067260 0.435560 0.132230 0.205497
Ni6   Ni    Ni4+2 0.932740 0.435560 0.867770 0.210744
Ni7   Ni    Ni4+2 0.567260 0.935560 0.132230 0.207108
Ni8   Ni    Ni4+2 0.432740 0.935560 0.867770 0.214346
O1    O     O_3   0.441828 0.596537 0.469598 -0.638578
O2    O     O_3   0.545966 0.632188 0.776987 -0.583201
O3    O     O_3   0.956395 0.124171 0.194303 -0.585852
O4    O     O_3   0.024433 0.133139 0.755086 -0.559052
O5    O     O_3   0.036614 0.219263 0.184876 -0.588658
O6    O     O_3   0.949460 0.223364 0.762290 -0.568882
O7    O     O_3   0.537302 0.714303 0.200838 -0.586495
O8    O     O_3   0.465905 0.724444 0.794552 -0.602170
O9    O     O_3   0.817130 0.419312 0.461094 -0.616714
O10   O     O_3   0.837641 0.419043 0.283504 -0.630544
O11   O     O_3   0.323081 0.917469 0.464862 -0.614548
O12   O     O_3   0.549425 0.513334 0.662876 -0.605625
O13   O     O_3   0.338759 0.918452 0.285066 -0.627924
O14   O     O_3   0.117118 0.573940 0.515710 -0.610664
O15   O     O_3   0.972516 0.650647 0.562137 -0.573683
O16   O     O_3   0.623493 0.067638 0.517966 -0.624299
O17   O     O_3   0.487649 0.147537 0.574267 -0.565395
O18   O     O_3   0.948348 0.667248 0.179813 -0.609303
O19   O     O_3   0.054611 0.650392 0.805899 -0.569034
O20   O     O_3   0.455369 0.167821 0.183240 -0.609665
O21   O     O_3   0.554114 0.151036 0.806333 -0.562210
O22   O     O_3   0.992421 0.042230 0.356520 -0.594891
O23   O     O_3   0.049538 0.104375 0.573832 -0.639649
O24   O     O_3   0.209540 0.652115 0.816698 -0.555002
O25   O     O_3   0.793466 0.652631 0.180679 -0.596471
O26   O     O_3   0.707234 0.148728 0.815811 -0.588000
O27   O     O_3   0.311635 0.157646 0.199334 -0.606666
O28   O     O_3   0.452320 0.627136 0.225011 -0.602160

loop_
_geom_bond_atom_site_label_1
_geom_bond_atom_site_label_2
_ccdc_geom_bond_type
C63   C65   S    
C55   C59   S    
C16   C75   A    
C107  C112  A    
C12   C91   S    
C124  H24   S    
C139  N15   A    
N3    Ni4   S    
C25   H102  S    
C120  O13   S    
C126  N2    A    
C32   O7    S    
C126  H47   S    
C87   C91   A    
N7    Ni8   S    
C9    O19   S    
C71   C95   A    
N19   Ni5   S    
C110  C111  A    
C14   C90   S    
C22   H94   S    
C117  O10   S    
C77   C88   A    
C133  H54   S    
C70   C74   A    
C29   H113  S    
C65   O12   S    
C81   C86   A    
C69   C98   A    
C77   H86   S    
C101  C103  S    
C33   H131  S    
N15   Ni2   S    
C52   H70   S    
C84   H45   S    
C130  C134  A    
C55   C65   S    
C43   H30   S    
N2    Ni1   S    
C7    N21   A    
C78   C89   A    
C30   O5    S    
C39   H14   S    
C85   O24   S    
C7    C119  A    
C40   H17   S    
N21   Ni7   S    
C26   O28   S    
C98   C102  S    
C23   O26   S    
N29   Ni6   S    
C35   C60   S    
C30   H122  S    
C1    N1    A    
C140  H62   S    
C51   H69   S    
C68   C72   A    
C2    C112  S    
C20   H84   S    
C11   O21   S    
C13   C115  S    
C82   N29   A    
C8    N22   A    
C60   C65   S    
N13   Ni8   S    
C74   C79   A    
C64   H60   S    
C75   N27   A    
C79   C85   A    
C49   C133  A    
C100  C106  S    
C18   H76   S    
C70   C105  S    
C84   N31   A    
C85   C90   A    
C57   C61   S    
C54   C61   S    
N7    N16   A    
C34   H135  S    
C59   C63   S    
N4    N13   A    
C56   H65   S    
C125  N32   A    
C27   H109  S    
C28   H111  S    
N22   Ni2   S    
N1    Ni1   S    
C109  C121  S    
C123  O16   S    
C84   C119  A    
C21   H90   S    
N10   Ni6   S    
C102  H120  S    
C128  H50   S    
C36   H4    S    
C118  C120  A    
C13   C127  A    
C132  N7    A    
N14   Ni1   S    
C71   C106  S    
C107  C122  S    
C26   H106  S    
C46   C139  A    
N9    N32   A    
C50   H68   S    
C8    O18   S    
C24   C114  S    
C21   O24   S    
C47   H41   S    
C123  C124  S    
N4    Ni3   S    
C44   H34   S    
C4    C86   A    
C101  H119  S    
C92   C96   A    
N11   Ni7   S    
C104  O6    S    
C9    N24   A    
C135  H56   S    
N17   Ni4   S    
N26   Ni3   S    
C110  C114  A    
C42   H25   S    
C138  H59   S    
C54   H72   S    
C66   C67   S    
C1    C12   A    
N32   Ni2   S    
C6    H28   S    
C113  C130  S    
C48   C140  A    
C31   H127  S    
C23   H98   S    
C43   H31   S    
C26   H103  S    
C21   H92   S    
C57   H66   S    
C39   H15   S    
N3    N11   A    
C31   O6    S    
C129  N5    A    
C47   H40   S    
C41   H20   S    
C48   C62   S    
C8    C12   A    
C45   H38   S    
C113  C117  A    
C118  O11   S    
C5    C97   A    
C132  H53   S    
N5    Ni6   S    
C17   H74   S    
C18   H78   S    
C79   H88   S    
C112  C116  A    
N8    Ni7   S    
C78   H87   S    
C17   O1    S    
C76   C80   A    
C42   H22   S    
C25   H101  S    
C24   C137  A    
C19   O22   S    
C2    C135  A    
C50   C60   S    
C52   C62   S    
C33   H133  S    
C129  H51   S    
C89   C93   A    
C28   H110  S    
C91   C95   A    
N1    N22   A    
C36   H5    S    
C14   C53   A    
C51   C59   S    
C24   C128  A    
C10   O20   S    
C19   H80   S    
C127  N3    A    
C136  N11   A    
C53   H49   S    
N21   N31   A    
C58   C62   S    
N20   Ni8   S    
C41   H21   S    
C31   H125  S    
C3    H63   S    
C38   H11   S    
C32   H130  S    
N8    N17   A    
C32   H129  S    
N28   Ni5   S    
C131  H52   S    
C34   O9    S    
C75   H71   S    
C68   C96   A    
N30   Ni7   S    
C81   H35   S    
C40   H18   S    
C70   C94   A    
C71   C76   A    
C69   C104  S    
C99   H117  S    
C39   H12   S    
C83   C108  A    
C30   H123  S    
C110  C124  S    
N24   Ni1   S    
C44   O19   S    
N25   Ni4   S    
C15   C64   A    
C68   C103  S    
C69   C73   A    
C37   H6    S    
C38   H9    S    
N18   N28   A    
N5    N14   A    
C96   C101  S    
C107  C109  A    
C88   O26   S    
C121  O14   S    
C90   C94   A    
C45   O20   S    
C100  H118  S    
C49   C61   S    
C111  C123  S    
C28   O3    S    
C44   H36   S    
C3    N17   A    
C20   O23   S    
C95   C100  S    
C11   N26   A    
C83   N30   A    
C34   H136  S    
C56   C60   S    
C31   H124  S    
C38   O13   S    
C9    C14   A    
C28   H112  S    
C67   O23   S    
C140  N16   A    
C23   H99   S    
C11   C16   A    
C89   O27   S    
C64   N23   A    
C50   C51   S    
C135  N10   A    
C29   H114  S    
C137  N13   A    
C116  O9    S    
C121  C122  S    
C134  H55   S    
N19   N29   A    
C16   C92   S    
C7    H29   S    
C33   H132  S    
C82   C97   A    
C123  H13   S    
C39   O14   S    
N2    N10   A    
C63   O1    S    
C121  H126  S    
C15   C93   S    
C72   C86   S    
C133  N8    A    
C30   H121  S    
C5    N19   A    
C87   O25   S    
C29   O4    S    
C138  N14   A    
N16   Ni3   S    
C27   H108  S    
C55   H64   S    
C20   H83   S    
C36   O10   S    
C83   H44   S    
C37   H8    S    
N6    Ni5   S    
C1    H1    S    
C52   C57   S    
C74   C108  S    
N6    N15   A    
C137  H58   S    
C105  O7    S    
C48   C132  A    
C100  O2    S    
N27   Ni4   S    
C101  O3    S    
C102  O4    S    
C27   O2    S    
C46   C59   S    
C66   O22   S    
C19   H81   S    
C80   H89   S    
C10   N25   A    
C3    C49   A    
C73   C97   S    
C34   H134  S    
C62   C67   S    
C94   C99   S    
C36   H3    S    
C4    N18   A    
C80   C87   A    
C27   H107  S    
C10   C15   A    
C37   O11   S    
C35   C138  A    
C23   H97   S    
C6    N20   A    
C21   H91   S    
C134  N9    A    
C116  C117  A    
C51   C56   S    
C29   H116  S    
C41   H19   S    
C61   C66   S    
C58   C66   S    
C88   C92   A    
C4    H26   S    
C73   C78   A    
C35   C129  A    
C105  H104  S    
C26   H105  S    
C109  C113  A    
N18   Ni6   S    
C41   O16   S    
C57   C67   S    
C47   H42   S    
C17   H73   S    
C125  C130  A    
N12   Ni2   S    
C52   C54   S    
C127  H48   S    
C47   O21   S    
N12   N24   A    
C99   C105  S    
C76   C119  S    
C44   H33   S    
C42   O17   S    
C139  H61   S    
C46   C131  A    
C42   H23   S    
C53   N12   A    
C25   H100  S    
C82   H43   S    
C37   H7    S    
C20   H85   S    
C22   H95   S    
C33   O8    S    
C125  H46   S    
C72   C77   A    
C136  H57   S    
C56   C63   S    
C43   O18   S    
C102  C104  S    
N23   N25   A    
C114  C118  A    
C22   H96   S    
C2    C126  A    
N23   Ni3   S    
C104  H93   S    
N9    Ni5   S    
C13   C136  A    
C19   H79   S    
C122  H2    S    
C81   N28   A    
C25   O27   S    
C54   C58   S    
C22   O25   S    
N26   N27   A    
C106  O8    S    
C103  O5    S    
C106  H115  S    
C122  O15   S    
C43   H32   S    
C40   O15   S    
C45   H37   S    
C124  O17   S    
C50   C55   S    
C103  H82   S    
C58   H67   S    
N20   N30   A    
C128  N4    A    
C32   H128  S    
C5    H27   S    
C18   O12   S    
C99   O28   S    
C45   H39   S    
C115  C120  A    
C6    C108  A    
C40   H16   S    
C111  C115  A    
N31   Ni8   S    
C17   H75   S    
C18   H77   S    
C93   C98   A    
C38   H10   S    
C131  N6    A    
