data_mof_unit_60484.cif
_audit_creation_date              2012-12-10T18:40:26-0500
_audit_creation_method            fapswitch 2.2
_symmetry_space_group_name_H-M    P1
_symmetry_Int_Tables_number       1
_space_group_crystal_system       triclinic
_cell_length_a                    10.7728
_cell_length_b                    11.575513
_cell_length_c                    16.672552
_cell_angle_alpha                 90.009913
_cell_angle_beta                  85.28757
_cell_angle_gamma                 90.019918
_cell_volume                      2072.05038819

loop_
_atom_site_label
_atom_site_type_symbol
_atom_type_description
_atom_site_fract_x
_atom_site_fract_y
_atom_site_fract_z
_atom_type_partial_charge
C1    C     C_R   0.500015 0.718857 0.500019 0.913659
C2    C     C_R   0.516873 0.499214 0.345807 0.906190
C3    C     C_R   0.472210 0.453929 0.737043 -0.153406
C4    C     C_R   0.526450 0.477171 0.259503 -0.146400
C5    C     C_R   0.563216 0.379295 0.764781 0.513570
C6    C     C_R   0.424808 0.500183 0.214033 0.517828
C7    C     C_R   0.544219 0.331976 0.841649 -0.251109
C8    C     C_R   0.429990 0.463082 0.134216 -0.256731
C9    C     C_R   0.440055 0.363811 0.892454 0.127023
C10   C     C_R   0.531681 0.397990 0.101251 0.131247
C11   C     C_R   0.348085 0.434348 0.863813 -0.165560
C12   C     C_R   0.499984 0.281146 0.500032 0.917986
C13   C     C_R   0.633720 0.378823 0.145922 -0.175013
C14   C     C_R   0.363739 0.478761 0.786238 -0.274350
C15   C     C_R   0.631364 0.418380 0.224627 -0.278475
C16   C     C_2   0.436259 0.342394 0.978844 -0.205712
C17   C     C_2   0.538939 0.361772 0.017076 -0.198154
C18   C     C_3   0.772891 0.396512 0.738474 -0.278015
C19   C     C_3   0.215397 0.501380 0.250489 -0.271653
C20   C     C_1   0.500039 0.838977 0.500069 -0.181539
C21   C     C_1   0.499963 0.161044 0.500105 -0.173609
C22   C     C_1   0.500024 0.940859 0.500112 0.008608
C23   C     C_1   0.499986 0.059166 0.500133 0.009651
C24   C     C_1   0.930255 0.499979 0.500005 0.021917
C25   C     C_1   0.069746 0.499982 0.499987 0.020081
C26   C     C_R   0.483135 0.493427 0.653802 0.896978
H1    H     H_    0.709663 0.399001 0.259175 0.178704
H2    H     H_    0.763487 0.492315 0.741077 0.155560
H3    H     H_    0.851335 0.376244 0.693350 0.194357
H4    H     H_    0.227530 0.415571 0.279133 0.156165
H5    H     H_    0.180531 0.490665 0.190047 0.143152
H6    H     H_    0.142868 0.548628 0.288536 0.193781
H7    H     H_    0.292132 0.533971 0.765020 0.171595
H8    H     H_    0.629875 0.367285 0.983883 0.145036
H9    H     H_    0.345574 0.337619 0.012399 0.145463
H10   H     H_    0.267156 0.459568 0.902775 0.136669
H11   H     H_    0.714608 0.332228 0.120097 0.141283
H12   H     H_    0.355882 0.487983 0.097737 0.142290
H13   H     H_    0.612730 0.273038 0.862485 0.147140
H14   H     H_    0.797409 0.362276 0.797445 0.141438
N1    N     N_1   0.819370 0.500000 0.500010 -0.074103
N2    N     N_1   0.180630 0.500000 0.499990 -0.076946
O1    O     O_R   0.397470 0.665550 0.500010 -0.600699
O2    O     O_3   0.326164 0.567134 0.246111 -0.597455
O3    O     O_R   0.602530 0.334450 0.499990 -0.591370
O4    O     O_R   0.602530 0.665550 0.499990 -0.611524
O5    O     O_R   0.397470 0.334450 0.500010 -0.617919
O6    O     O_R   0.385350 0.500000 0.615800 -0.620746
O7    O     O_R   0.614650 0.500000 0.384200 -0.628626
O8    O     O_R   0.590410 0.500000 0.615800 -0.570814
O9    O     O_R   0.409590 0.500000 0.384200 -0.573953
O10   O     O_3   0.664143 0.343634 0.714084 -0.591284
Zn1   Zn    Zn3+2 0.363080 0.500000 0.500000 0.991092
Zn2   Zn    Zn3+2 0.636920 0.500000 0.500000 0.996707

loop_
_geom_bond_atom_site_label_1
_geom_bond_atom_site_label_2
_ccdc_geom_bond_type
C25   N2    T    
C2    C4    S    
C5    O10   S    
C2    O7    A    
C15   H1    S    
C26   O6    A    
O5    Zn1   S    
C19   H5    S    
O4    Zn2   S    
C14   H7    S    
C26   O8    A    
C18   O10   S    
C16   H9    S    
C18   H3    S    
C6    O2    S    
C24   C25   S    
C24   N1    T    
C9    C11   A    
O8    Zn2   S    
C3    C14   A    
C8    H12   S    
C4    C15   A    
C12   O5    A    
C6    C8    A    
C19   H6    S    
C12   C21   S    
C4    C6    A    
C11   H10   S    
C9    C16   S    
C20   C22   T    
O3    Zn2   S    
C13   C15   A    
N2    Zn1   S    
O6    Zn1   S    
N1    Zn2   S    
C11   C14   A    
C1    O4    A    
O1    Zn1   S    
C17   H8    S    
C10   C17   S    
O7    Zn2   S    
C7    C9    A    
C18   H2    S    
C19   O2    S    
C8    C10   A    
C2    O9    A    
C5    C7    A    
C18   H14   S    
C22   C23   S    
C16   C17   D    
C1    C20   S    
C7    H13   S    
C3    C5    A    
C19   H4    S    
C13   H11   S    
C21   C23   T    
C1    O1    A    
C3    C26   S    
C12   O3    A    
O9    Zn1   S    
C10   C13   A    
