data_mof_unit_21339.cif
_audit_creation_date              2012-12-11T15:26:02-0500
_audit_creation_method            fapswitch 2.2
_symmetry_space_group_name_H-M    P1
_symmetry_Int_Tables_number       1
_space_group_crystal_system       triclinic
_cell_length_a                    24.647014
_cell_length_b                    17.103668
_cell_length_c                    15.569765
_cell_angle_alpha                 90.011495
_cell_angle_beta                  50.522647
_cell_angle_gamma                 89.873829
_cell_volume                      5066.18617711

loop_
_atom_site_label
_atom_site_type_symbol
_atom_type_description
_atom_site_fract_x
_atom_site_fract_y
_atom_site_fract_z
_atom_type_partial_charge
C1    C     C_R   0.335501 0.117443 0.793115 -0.047385
C2    C     C_2   0.302167 0.856021 0.983147 -0.346149
C3    C     C_2   0.308604 0.174105 0.965238 -0.308226
C4    C     C_2   0.696549 0.844478 0.019191 -0.291445
C5    C     C_2   0.130711 0.766291 0.173079 -0.169047
C6    C     C_2   0.803573 0.343698 0.979946 -0.288227
C7    C     C_2   0.854221 0.757395 0.855079 -0.292921
C8    C     C_2   0.162205 0.263003 0.107316 -0.312880
C9    C     C_2   0.688328 0.305064 0.145355 0.382375
C10   C     C_2   0.246720 0.809727 0.022345 0.371701
C11   C     C_2   0.240722 0.152961 0.037100 0.384532
C12   C     C_R   0.667376 0.891682 0.198800 -0.084281
C13   C     C_2   0.766043 0.859217 0.949325 0.383602
C14   C     C_2   0.189750 0.798985 0.143107 0.441050
C15   C     C_2   0.733926 0.358133 0.049628 0.384125
C16   C     C_2   0.811886 0.806060 0.853424 0.384917
C17   C     C_2   0.191695 0.207647 0.127374 0.390631
C18   C     C_R   0.614690 0.097852 0.593292 0.474655
C19   C     C_R   0.409100 0.856901 0.408224 0.498595
C20   C     C_R   0.385014 0.097298 0.406934 0.463683
C21   C     C_R   0.590420 0.856565 0.591868 0.494178
C22   C     C_R   0.114406 0.598582 0.593573 0.460871
C23   C     C_R   0.650375 0.141169 0.241361 -0.022867
C24   C     C_R   0.904846 0.360523 0.408532 0.483279
C25   C     C_R   0.885294 0.598189 0.406696 0.456491
C26   C     C_R   0.092201 0.358843 0.592879 0.485913
C27   C     C_R   0.688712 0.101933 0.409319 -0.200343
C28   C     C_R   0.338993 0.854943 0.592790 -0.229049
C29   C     C_R   0.311068 0.101523 0.590970 -0.232696
C30   C     C_R   0.661028 0.854591 0.407429 -0.227421
C31   C     C_R   0.188700 0.602120 0.409717 -0.215016
C32   C     C_R   0.836785 0.356527 0.592835 -0.224510
C33   C     C_R   0.811158 0.602154 0.590501 -0.200080
C34   C     C_R   0.332818 0.893206 0.801812 -0.094331
C35   C     C_R   0.165565 0.357850 0.408532 -0.187668
C36   C     C_R   0.559664 0.142193 0.240920 -0.213755
C37   C     C_R   0.421225 0.895521 0.805188 -0.108203
C38   C     C_R   0.424740 0.116696 0.796661 -0.187993
C39   C     C_R   0.578858 0.892728 0.195612 -0.141917
C40   C     C_R   0.053667 0.646304 0.254516 -0.188614
C41   C     C_R   0.921148 0.392454 0.804218 -0.140097
C42   C     C_R   0.940323 0.642425 0.758766 -0.207639
C43   C     C_R   0.068588 0.368752 0.219679 -0.203344
C44   C     C_R   0.355858 0.141126 0.853468 0.206416
C45   C     C_R   0.849643 0.641539 0.758291 -0.025679
C46   C     C_R   0.649003 0.872896 0.134496 0.193778
C47   C     C_R   0.618388 0.184141 0.209049 0.213794
C48   C     C_R   0.351955 0.874512 0.865091 0.156128
C49   C     C_R   0.881635 0.684603 0.790383 0.214787
C50   C     C_R   0.131283 0.332427 0.177326 0.214331
C51   C     C_R   0.108344 0.691277 0.230903 0.161507
C52   C     C_R   0.851125 0.372450 0.864943 0.191430
C53   C     C_R   0.683175 0.114816 0.502586 -0.013707
C54   C     C_R   0.361087 0.810755 0.500608 -0.025087
C55   C     C_R   0.316152 0.113319 0.497866 -0.006714
C56   C     C_R   0.159178 0.371094 0.218417 -0.024146
C57   C     C_R   0.638413 0.810140 0.499626 -0.021871
C58   C     C_R   0.182886 0.615862 0.503174 -0.003545
C59   C     C_R   0.857099 0.314302 0.500498 -0.007156
C60   C     C_R   0.816684 0.615338 0.497176 -0.007188
C61   C     C_R   0.142303 0.313655 0.501158 -0.016746
C62   C     C_R   0.192054 0.150560 0.596736 -0.203403
C63   C     C_R   0.732581 0.711669 0.394711 -0.215186
C64   C     C_R   0.806996 0.152153 0.405035 -0.192426
C65   C     C_R   0.265731 0.714379 0.605888 -0.212399
C66   C     C_R   0.691961 0.650217 0.593715 -0.196553
C67   C     C_R   0.144500 0.646168 0.254175 -0.059108
C68   C     C_R   0.232018 0.210385 0.397527 -0.207514
C69   C     C_R   0.307402 0.650656 0.407151 -0.199240
C70   C     C_R   0.765310 0.214159 0.604637 -0.216121
C71   C     C_R   0.646235 0.698361 0.594424 -0.106495
C72   C     C_R   0.275860 0.159542 0.395992 -0.143524
C73   C     C_R   0.352927 0.698923 0.406428 -0.104037
C74   C     C_R   0.721468 0.164130 0.605586 -0.123285
C75   C     C_R   0.147959 0.201878 0.598018 -0.111769
C76   C     C_R   0.778242 0.664689 0.393855 -0.119626
C77   C     C_R   0.850973 0.203078 0.404261 -0.097976
C78   C     C_R   0.832775 0.391415 0.800665 -0.082133
C79   C     C_R   0.220265 0.667410 0.606679 -0.119250
C80   C     C_R   0.670135 0.736615 0.496238 0.157220
C81   C     C_R   0.259673 0.136380 0.496384 0.173401
C82   C     C_R   0.328738 0.737931 0.504380 0.155680
C83   C     C_R   0.738944 0.139109 0.504876 0.164927
C84   C     C_R   0.172389 0.239479 0.499217 0.174309
C85   C     C_R   0.760831 0.639531 0.494442 0.166475
C86   C     C_R   0.826142 0.241107 0.503065 0.158995
C87   C     C_R   0.238354 0.640790 0.506171 0.163854
C88   C     C_2   0.645900 0.256597 0.143960 -0.296985
H1    H     H_    0.736508 0.099058 0.323887 0.122286
H2    H     H_    0.446527 0.903808 0.840960 0.121902
H3    H     H_    0.453123 0.118936 0.828061 0.131326
H4    H     H_    0.552763 0.897475 0.160703 0.132119
H5    H     H_    0.015586 0.664262 0.245332 0.134537
H6    H     H_    0.947025 0.396947 0.839471 0.134351
H7    H     H_    0.976670 0.659590 0.771954 0.139453
H8    H     H_    0.038521 0.357221 0.193133 0.159851
H9    H     H_    0.283530 0.120464 0.817475 0.131476
H10   H     H_    0.719801 0.893095 0.172474 0.150214
H11   H     H_    0.698713 0.153910 0.226158 0.141972
H12   H     H_    0.300728 0.839559 0.679215 0.135698
H13   H     H_    0.279535 0.899099 0.831949 0.141814
H14   H     H_    0.801355 0.654534 0.773303 0.141248
H15   H     H_    0.212198 0.365271 0.188620 0.090139
H16   H     H_    0.191192 0.661207 0.242705 0.137604
H17   H     H_    0.780414 0.392773 0.826756 0.149639
H18   H     H_    0.549802 0.043809 0.732131 0.300160
H19   H     H_    0.438152 0.900601 0.272155 0.316762
H20   H     H_    0.454293 0.050515 0.262984 0.305550
H21   H     H_    0.561033 0.899678 0.728506 0.313026
H22   H     H_    0.046066 0.551198 0.737004 0.304778
H23   H     H_    0.263530 0.098973 0.676635 0.125811
H24   H     H_    0.933140 0.410327 0.275525 0.322008
H25   H     H_    0.954775 0.552500 0.262025 0.306904
H26   H     H_    0.061185 0.404960 0.728964 0.317129
H27   H     H_    0.175526 0.128684 0.675265 0.124643
H28   H     H_    0.750936 0.734986 0.315893 0.124614
H29   H     H_    0.824046 0.129542 0.326451 0.123366
H30   H     H_    0.246853 0.738739 0.684558 0.136042
H31   H     H_    0.675128 0.627440 0.672047 0.123507
H32   H     H_    0.249665 0.232426 0.318558 0.141030
H33   H     H_    0.324573 0.626991 0.328961 0.121386
H34   H     H_    0.699839 0.839005 0.321231 0.122630
H35   H     H_    0.746694 0.237640 0.683600 0.124630
H36   H     H_    0.594993 0.710057 0.673009 0.176881
H37   H     H_    0.325285 0.147273 0.315589 0.193937
H38   H     H_    0.404349 0.710035 0.328002 0.174916
H39   H     H_    0.671069 0.154084 0.685461 0.191285
H40   H     H_    0.097971 0.216163 0.677194 0.180988
H41   H     H_    0.829455 0.656796 0.314357 0.190475
H42   H     H_    0.901321 0.217153 0.325473 0.167833
H43   H     H_    0.168672 0.660608 0.685822 0.190882
H44   H     H_    0.289179 0.750864 0.885138 0.327393
H45   H     H_    0.236692 0.599279 0.324433 0.117809
H46   H     H_    0.729105 0.338891 0.211892 0.319468
H47   H     H_    0.845822 0.917029 0.912179 0.314610
H48   H     H_    0.165167 0.083754 0.080398 0.316689
H49   H     H_    0.653810 0.415814 0.086946 0.312415
H50   H     H_    0.252012 0.805661 0.179601 0.305473
H51   H     H_    0.209946 0.163525 0.221118 0.314411
H52   H     H_    0.771053 0.839800 0.786871 0.318401
H53   H     H_    0.308550 0.885279 0.038051 0.141427
H54   H     H_    0.637506 0.265677 0.084054 0.113849
H55   H     H_    0.674837 0.803308 0.994985 0.119522
H56   H     H_    0.798208 0.340929 0.678982 0.120467
H57   H     H_    0.327688 0.222791 0.984324 0.109366
H58   H     H_    0.825499 0.302634 0.004036 0.120503
H59   H     H_    0.115182 0.775850 0.122277 0.135240
H60   H     H_    0.165691 0.259828 0.034199 0.114516
H61   H     H_    0.862523 0.766556 0.915080 0.113689
H62   H     H_    0.763256 0.599405 0.675832 0.120918
H63   H     H_    0.209712 0.345476 0.323703 0.131626
H64   H     H_    0.523304 0.159299 0.227626 0.138336
N1    N     N_R   0.388930 0.078160 0.705470 -0.052075
N2    N     N_R   0.419500 0.922160 0.443350 -0.102213
N3    N     N_R   0.419500 0.077840 0.443350 -0.095290
N4    N     N_R   0.580500 0.922160 0.556650 -0.105182
N5    N     N_R   0.080500 0.577840 0.556650 -0.093124
N6    N     N_R   0.919500 0.422160 0.443350 -0.099930
N7    N     N_R   0.919500 0.577840 0.443350 -0.094891
N8    N     N_R   0.080500 0.422160 0.556650 -0.102811
N9    N     N_R   0.626210 0.077590 0.443410 -0.058757
N10   N     N_R   0.373790 0.922410 0.556590 -0.057917
N11   N     N_R   0.373790 0.077590 0.556590 -0.056617
N12   N     N_R   0.611070 0.921840 0.294530 -0.055676
N13   N     N_R   0.626210 0.922410 0.443410 -0.059429
N14   N     N_R   0.126210 0.577590 0.443410 -0.056224
N15   N     N_R   0.873790 0.422410 0.556590 -0.058545
N16   N     N_R   0.873790 0.577590 0.556590 -0.056872
N17   N     N_R   0.126210 0.422410 0.443410 -0.065334
N18   N     N_R   0.554800 0.077270 0.294580 -0.054492
N19   N     N_R   0.445200 0.922730 0.705420 -0.060387
N20   N     N_R   0.445200 0.077270 0.705420 -0.055581
N21   N     N_R   0.554800 0.922730 0.294580 -0.059210
N22   N     N_R   0.054800 0.577270 0.294580 -0.053557
N23   N     N_R   0.611070 0.078160 0.294530 -0.055487
N24   N     N_R   0.945200 0.422730 0.705420 -0.057443
N25   N     N_R   0.945200 0.577270 0.705420 -0.055309
N26   N     N_R   0.054800 0.422730 0.294580 -0.057759
N27   N     N_R   0.388930 0.921840 0.705470 -0.052245
N28   N     N_R   0.888930 0.578160 0.705470 -0.055804
N29   N     N_R   0.111070 0.421840 0.294530 -0.053654
N30   N     N_R   0.111070 0.578160 0.294530 -0.055903
N31   N     N_R   0.888930 0.421840 0.705470 -0.055296
N32   N     N_R   0.580500 0.077840 0.556650 -0.096524
Ni1   Ni    Ni4+2 0.382710 0.000000 0.629850 0.212295
Ni2   Ni    Ni4+2 0.617290 0.000000 0.370150 0.213581
Ni3   Ni    Ni4+2 0.882710 0.500000 0.629850 0.218210
Ni4   Ni    Ni4+2 0.117290 0.500000 0.370150 0.203737
Ni5   Ni    Ni4+2 0.513020 0.000000 0.629850 0.203759
Ni6   Ni    Ni4+2 0.486980 0.000000 0.370150 0.207249
Ni7   Ni    Ni4+2 0.013020 0.500000 0.629850 0.211732
Ni8   Ni    Ni4+2 0.986980 0.500000 0.370150 0.212013
O1    O     O_3   0.593579 0.074280 0.694914 -0.800875
O2    O     O_3   0.695875 0.298043 0.225733 -0.756407
O3    O     O_3   0.794355 0.915673 0.973956 -0.765846
O4    O     O_3   0.216660 0.087044 0.019337 -0.760140
O5    O     O_3   0.705301 0.414535 0.025268 -0.767804
O6    O     O_3   0.200954 0.802657 0.219642 -0.760598
O7    O     O_3   0.182950 0.208171 0.224320 -0.759231
O8    O     O_3   0.804379 0.798867 0.773020 -0.754741
O9    O     O_3   0.428182 0.847598 0.304661 -0.788064
O10   O     O_3   0.407452 0.075342 0.303869 -0.802353
O11   O     O_3   0.570351 0.846732 0.695978 -0.788289
O12   O     O_3   0.092499 0.576686 0.696307 -0.799072
O13   O     O_3   0.915349 0.358227 0.310687 -0.786330
O14   O     O_3   0.907578 0.576538 0.303605 -0.797629
O15   O     O_3   0.072505 0.351566 0.697055 -0.790279
O16   O     O_3   0.241549 0.767535 0.951493 -0.780961

loop_
_geom_bond_atom_site_label_1
_geom_bond_atom_site_label_2
_ccdc_geom_bond_type
N24   N31   A    
C23   H11   S    
C43   N26   A    
C5    H59   S    
C20   N3    A    
C64   C77   A    
C29   N11   A    
C26   O15   S    
C40   H5    S    
C31   H45   S    
C58   C87   S    
N22   N30   A    
C4    H55   S    
C79   C87   A    
C28   N10   A    
C64   C83   A    
C41   H6    S    
C4    C46   S    
N7    N16   A    
C21   C57   A    
C14   O6    S    
C37   H2    S    
C78   H17   S    
C65   C79   A    
C31   C58   A    
N3    Ni6   S    
C26   C61   A    
H24   O13   S    
H19   O9    S    
N6    Ni8   S    
C33   H62   S    
C9    C88   D    
C15   O5    S    
C24   N6    A    
C75   C84   A    
C23   N23   A    
C63   C76   A    
C42   N25   A    
C45   C49   A    
C73   H38   S    
C30   C57   A    
N21   Ni6   S    
C19   O9    S    
H26   O15   S    
N19   Ni5   S    
C36   C47   A    
H22   O12   S    
C75   H40   S    
C4    C13   D    
C10   O16   S    
H20   O10   S    
C45   N28   A    
C6    C15   D    
C7    H61   S    
C70   H35   S    
N13   Ni2   S    
C30   H34   S    
C70   C74   A    
N8    N17   A    
C69   C73   A    
C25   C60   A    
C69   H33   S    
C55   C81   S    
C74   C83   A    
C41   C52   A    
C12   H10   S    
C72   C81   A    
C16   O8    S    
C39   N21   A    
N18   N23   A    
N4    Ni5   S    
C28   H12   S    
N2    Ni6   S    
N15   Ni3   S    
N16   Ni3   S    
C18   O1    S    
N12   Ni2   S    
C57   C80   S    
N19   N27   A    
C34   N27   A    
C8    H60   S    
C35   H63   S    
C66   C85   A    
C20   C55   A    
C52   C78   A    
C88   H54   S    
C71   C80   A    
N29   Ni4   S    
C29   H23   S    
N6    N15   A    
H18   O1    S    
C63   C80   A    
C3    C44   S    
C18   C53   A    
C34   H13   S    
C23   C47   A    
C78   N31   A    
C42   H7    S    
C68   C84   A    
C71   H36   S    
H21   O11   S    
C11   O4    S    
C30   N13   A    
C12   C46   A    
C53   C83   S    
C10   C14   S    
C1    H9    S    
C28   C54   A    
C9    O2    S    
C36   H64   S    
N24   Ni7   S    
C51   C67   A    
C29   C55   A    
C2    C48   S    
C68   H32   S    
H47   O3    S    
C38   H3    S    
C50   C56   A    
C64   H29   S    
C68   C72   A    
N5    Ni7   S    
C66   C71   A    
C38   C44   A    
N9    Ni2   S    
N28   Ni3   S    
N31   Ni3   S    
C12   N12   A    
N26   Ni8   S    
C76   H41   S    
C1    C44   A    
C74   H39   S    
C31   N14   A    
C18   N32   A    
C65   H30   S    
N25   N28   A    
C79   H43   S    
C43   H8    S    
N12   N21   A    
C35   C61   A    
N30   Ni4   S    
C37   C48   A    
C1    N1    A    
C7    C49   S    
C5    C14   D    
C39   C46   A    
C25   N7    A    
C63   H28   S    
H50   O6    S    
C19   C54   A    
C7    C16   D    
N17   Ni4   S    
C62   C81   A    
H49   O5    S    
C77   C86   A    
C3    H57   S    
C33   C60   A    
C66   H31   S    
H48   O4    S    
C13   O3    S    
C35   N17   A    
N14   Ni4   S    
C62   C75   A    
C13   C16   S    
C33   N16   A    
C34   C48   A    
C21   O11   S    
C70   C86   A    
C8    C50   S    
C39   H4    S    
C54   C82   S    
C26   N8    A    
C2    H53   S    
C11   C17   S    
C24   O13   S    
N7    Ni8   S    
N2    N10   A    
C8    C17   D    
C56   H15   S    
N8    Ni7   S    
C67   H16   S    
C61   C84   S    
C69   C87   A    
N5    N14   A    
C22   C58   A    
N10   Ni1   S    
C60   C85   S    
C27   C53   A    
C43   C50   A    
H44   O16   S    
N27   Ni1   S    
C22   N5    A    
N20   Ni5   S    
C40   C51   A    
N18   Ni6   S    
C36   N18   A    
N25   Ni7   S    
C22   O12   S    
C72   H37   S    
N11   Ni1   S    
C32   H56   S    
N3    N11   A    
C47   C88   S    
N9    N32   A    
H52   O8    S    
C59   C86   S    
C20   O10   S    
C62   H27   S    
C27   N9    A    
N23   Ni2   S    
C40   N22   A    
C65   C82   A    
N1    Ni1   S    
N4    N13   A    
C24   C59   A    
C6    H58   S    
N1    N20   A    
C21   N4    A    
C73   C82   A    
C27   H1    S    
H51   O7    S    
C77   H42   S    
C9    C15   S    
C37   N19   A    
N26   N29   A    
C3    C11   D    
C45   H14   S    
C42   C49   A    
C41   N24   A    
H25   O14   S    
H46   O2    S    
C56   N29   A    
C32   N15   A    
C19   N2    A    
N32   Ni5   S    
C5    C51   S    
C32   C59   A    
C6    C52   S    
C17   O7    S    
C76   C85   A    
C38   N20   A    
C25   O14   S    
C67   N30   A    
N22   Ni8   S    
C2    C10   D    
