data_mof_unit_6591.cif
_audit_creation_date              2012-12-11T14:58:00-0500
_audit_creation_method            fapswitch 2.2
_symmetry_space_group_name_H-M    P1
_symmetry_Int_Tables_number       1
_space_group_crystal_system       triclinic
_cell_length_a                    6.942328
_cell_length_b                    16.802685
_cell_length_c                    16.963568
_cell_angle_alpha                 100.442234
_cell_angle_beta                  89.113705
_cell_angle_gamma                 91.488543
_cell_volume                      1945.25020414

loop_
_atom_site_label
_atom_site_type_symbol
_atom_type_description
_atom_site_fract_x
_atom_site_fract_y
_atom_site_fract_z
_atom_type_partial_charge
O1    O     O_R   0.506180 0.438940 0.579430 -0.543358
O2    O     O_R   0.170520 0.406230 0.413590 -0.542252
O3    O     O_R   0.005180 0.561060 0.420570 -0.533903
C1    C     C_R   0.339947 0.385267 0.383269 0.785596
O4    O     O_R   0.176140 0.429310 0.578370 -0.544012
O5    O     O_R   0.010830 0.584300 0.586530 -0.536138
C2    C     C_R   0.341692 0.413214 0.605053 0.688592
O6    O     O_R   0.500520 0.415700 0.413470 -0.524829
O7    O     O_3   0.340830 0.550820 0.502480 -0.360173
V1    V     V_3+5 0.064040 0.490570 0.499540 1.436884
O8    O     O_R   0.681400 0.593770 0.586410 -0.539689
C3    C     C_R   0.850841 0.616576 0.614683 0.690569
O9    O     O_R   0.675790 0.570690 0.421630 -0.529619
C4    C     C_R   0.847069 0.586716 0.395343 0.696431
V2    V     V_3+5 0.564650 0.509430 0.500460 1.449261
O10   O     O_3   0.837730 0.449180 0.497520 -0.371387
C5    C     C_R   0.896897 0.864009 0.168677 -0.085959
C6    C     C_R   0.867057 0.637384 0.332481 -0.093544
C7    C     C_R   0.021500 0.660760 0.208458 -0.166319
C8    C     C_R   0.981941 0.610870 0.264614 -0.169364
C9    C     C_R   0.782961 0.713704 0.341565 -0.218290
C10   C     C_R   0.819519 0.764552 0.284620 0.156391
C11   C     C_R   0.943250 0.738093 0.218165 0.107063
C12   C     C_R   0.983638 0.788465 0.161533 -0.249017
C13   C     C_R   0.772258 0.889388 0.233932 -0.217146
C14   C     C_R   0.734976 0.841025 0.292229 0.179437
H1    H     H_    0.076365 0.767667 0.110316 0.121947
H2    H     H_    0.702917 0.947245 0.239663 0.121673
H3    H     H_    0.112712 0.638615 0.157167 0.116431
H4    H     H_    0.039292 0.550698 0.254831 0.116068
H5    H     H_    0.693408 0.733778 0.393907 0.160035
H6    H     H_    0.663139 0.640071 0.976339 0.112103
C15   C     C_R   0.029578 0.902507 0.724351 -0.213137
C16   C     C_R   0.081078 0.914267 0.647508 -0.136662
C17   C     C_R   0.059717 0.851540 0.581904 0.264477
C18   C     C_R   0.988430 0.775752 0.593964 -0.162952
C19   C     C_R   0.937041 0.761900 0.671548 0.035693
C20   C     C_R   0.957010 0.826675 0.737994 0.071507
C21   C     C_R   0.863552 0.685285 0.683312 -0.168274
C22   C     C_R   0.808325 0.673699 0.761356 0.066633
C23   C     C_R   0.827557 0.738610 0.827763 0.067348
C24   C     C_R   0.901900 0.815092 0.816108 -0.170276
C25   C     C_R   0.736290 0.597704 0.775035 -0.145427
C26   C     C_R   0.683931 0.586157 0.851873 -0.122127
C27   C     C_R   0.703011 0.649479 0.916696 -0.122841
C28   C     C_R   0.774340 0.724864 0.905170 -0.132314
H7    H     H_    0.046938 0.953707 0.772769 0.115635
H8    H     H_    0.137448 0.972810 0.638915 0.122392
H9    H     H_    0.971996 0.728216 0.542016 0.094032
H10   H     H_    0.720247 0.546312 0.726739 0.104700
H11   H     H_    0.629047 0.527623 0.861190 0.117122
H12   H     H_    0.788532 0.771876 0.957679 0.098682
H13   H     H_    0.467104 0.484947 0.124600 0.115954
C29   C     C_R   0.328449 0.219960 0.405583 -0.137105
C30   C     C_R   0.331170 0.140888 0.419688 -0.114378
C31   C     C_R   0.354411 0.076690 0.356388 -0.124252
C32   C     C_R   0.379346 0.091129 0.278565 -0.149945
C33   C     C_R   0.381634 0.170935 0.262495 0.076936
C34   C     C_R   0.353685 0.236795 0.327130 0.049168
C35   C     C_R   0.412380 0.185421 0.183611 -0.156308
C36   C     C_R   0.416760 0.265876 0.169116 -0.023191
C37   C     C_R   0.398932 0.332942 0.233984 0.068653
C38   C     C_R   0.357675 0.317721 0.313223 -0.177178
C39   C     C_R   0.439955 0.280288 0.089861 -0.145062
C40   C     C_R   0.453433 0.358388 0.073461 0.233596
C41   C     C_R   0.449074 0.424019 0.136708 -0.206093
C42   C     C_R   0.425744 0.412649 0.216208 0.140367
H14   H     H_    0.309083 0.267560 0.457116 0.091047
H15   H     H_    0.316457 0.129356 0.480152 0.119522
H16   H     H_    0.354223 0.015428 0.367783 0.119340
H17   H     H_    0.398992 0.039135 0.231407 0.095501
H18   H     H_    0.448350 0.230935 0.039233 0.114652
C43   C     C_R   0.430237 0.140142 0.833672 -0.115109
C44   C     C_R   0.335823 0.359394 0.665947 -0.108340
C45   C     C_R   0.151004 0.301094 0.766268 -0.087216
C46   C     C_R   0.168564 0.355746 0.713388 -0.134754
C47   C     C_R   0.487033 0.307374 0.673391 -0.219143
C48   C     C_R   0.469708 0.250853 0.725915 0.068847
C49   C     C_R   0.298992 0.247571 0.772420 0.088308
C50   C     C_R   0.279086 0.191563 0.824895 -0.222190
C51   C     C_R   0.598998 0.143748 0.787168 -0.275857
C52   C     C_R   0.618521 0.196878 0.731715 0.390510
H19   H     H_    0.149105 0.190088 0.860915 0.134398
H20   H     H_    0.717846 0.105667 0.795070 0.126818
H21   H     H_    0.020182 0.300137 0.801815 0.134131
H22   H     H_    0.049494 0.395158 0.709270 0.127011
H23   H     H_    0.615029 0.309382 0.636369 0.170052
O11   O     O_R   0.265840 0.084300 0.086750 -0.535114
O12   O     O_R   0.589750 0.070740 0.921690 -0.543737
O13   O     O_R   0.755020 0.915730 0.913400 -0.535462
C53   C     C_R   0.424071 0.086922 0.895140 0.719297
O14   O     O_R   0.595830 0.093740 0.086480 -0.537913
O15   O     O_R   0.761150 0.938890 0.079360 -0.540094
C54   C     C_R   0.426810 0.116019 0.115487 0.697357
O16   O     O_R   0.259710 0.061140 0.920790 -0.541415
O17   O     O_3   0.425260 0.949200 0.997610 -0.366320
V3    V     V_3+5 0.702060 0.009430 0.000450 1.415759
O18   O     O_R   0.090530 0.929220 0.078150 -0.538632
C55   C     C_R   0.919030 0.913782 0.105042 0.708957
O19   O     O_R   0.084440 0.906220 0.913360 -0.538590
C56   C     C_R   0.914962 0.883650 0.884927 0.694134
V4    V     V_3+5 0.201450 0.990520 0.999290 1.420755
O20   O     O_3   0.928380 0.050800 0.002390 -0.368576
N1    N     N_3   0.112089 0.865701 0.503314 -0.665570
H24   H     H_    0.016171 0.907465 0.488421 0.221718
H25   H     H_    0.093553 0.812679 0.460835 0.233027
N2    N     N_3   0.474471 0.369804 0.991868 -0.666650
H26   H     H_    0.479712 0.431508 0.989144 0.220159
H27   H     H_    0.607439 0.346607 0.970405 0.225742
N3    N     N_3   0.443979 0.482694 0.277903 -0.652258
H28   H     H_    0.582310 0.507397 0.272889 0.229694
H29   H     H_    0.347247 0.525721 0.267006 0.217107
O21   O     O_3   0.787539 0.202552 0.687807 -0.564485
C57   C     C_3   0.851681 0.125449 0.650851 0.090879
H30   H     H_    0.729872 0.083578 0.627480 0.118570
H31   H     H_    0.936792 0.098454 0.693894 0.122162
C58   C     C_3   0.982869 0.135107 0.580553 -0.716581
H32   H     H_    0.109481 0.174407 0.602046 0.227010
H33   H     H_    0.033651 0.074903 0.550566 0.171854
H34   H     H_    0.903452 0.162929 0.536497 0.226541
N4    N     N_3   0.607510 0.869096 0.358043 -0.680200
H35   H     H_    0.660767 0.925018 0.388077 0.228750
H36   H     H_    0.473058 0.878114 0.334626 0.235738

loop_
_geom_bond_atom_site_label_1
_geom_bond_atom_site_label_2
_ccdc_geom_bond_type
C30   C31   A    
O17   V4    S    
C6    C9    A    
C23   C24   A    
C4    C6    S    
O2    C1    A    
C7    C8    A    
C12   H1    S    
C1    O6    A    
N1    H25   S    
C57   H30   S    
C8    H4    S    
C47   C48   A    
C13   H2    S    
C9    H5    S    
C1    C38   S    
C19   C20   A    
C44   C46   A    
C37   C42   A    
C18   C19   A    
C20   C24   A    
C58   H33   S    
O5    C3    A    
C7    H3    S    
C29   H14   S    
C33   C35   A    
V2    O10   S    
C28   H12   S    
C31   C32   A    
C16   C17   A    
H6    C27   S    
N3    H28   S    
O21   C57   S    
O8    V2    S    
C45   H21   S    
C22   C25   A    
C17   C18   A    
C44   C47   A    
C23   C28   A    
O1    V2    S    
C14   N4    S    
O12   C53   A    
O7    V1    S    
O15   C55   A    
O13   V3    S    
O16   V4    S    
C41   C42   A    
O9    C4    A    
N2    H27   S    
C36   C37   A    
C50   H19   S    
C43   C51   A    
N1    H24   S    
O14   V3    S    
C51   C52   A    
C2    C44   S    
C29   C34   A    
O11   C54   A    
C5    C12   A    
C43   C53   S    
C17   N1    S    
C58   H34   S    
C21   C22   A    
O4    C2    A    
C48   C49   A    
C13   C14   A    
O18   V4    S    
O12   V3    S    
C35   C36   A    
C36   C39   A    
C7    C11   A    
C45   C46   A    
O13   C56   A    
C37   C38   A    
C48   C52   A    
C42   N3    S    
O11   V4    S    
C11   C12   A    
O17   V3    S    
O14   C54   A    
C15   C16   A    
C30   H15   S    
C32   H17   S    
H13   C41   S    
C5    C55   S    
N4    H35   S    
V3    O20   S    
O3    C4    A    
C26   H11   S    
C22   C23   A    
O18   C55   A    
O6    V2    S    
C31   H16   S    
O9    V2    S    
C25   C26   A    
C15   H7    S    
C16   H8    S    
N2    H26   S    
O2    V1    S    
C24   C56   S    
O15   V3    S    
C51   H20   S    
C26   C27   A    
O19   V4    S    
C29   C30   A    
O1    C2    A    
C52   O21   S    
O5    V1    S    
C57   H31   S    
O8    C3    A    
C25   H10   S    
C34   C38   A    
C15   C20   A    
C5    C13   A    
C39   C40   A    
C3    C21   S    
C33   C34   A    
O4    V1    S    
C19   C21   A    
O3    V1    S    
V1    O10   S    
C58   H32   S    
C32   C33   A    
O19   C56   A    
C43   C50   A    
C6    C8    A    
C39   H18   S    
O7    V2    S    
V4    O20   S    
N3    H29   S    
N4    H36   S    
C57   C58   S    
C53   O16   A    
C49   C50   A    
C27   C28   A    
C47   H23   S    
C40   C41   A    
C10   C14   A    
C46   H22   S    
C10   C11   A    
C9    C10   A    
C45   C49   A    
C40   N2    S    
C18   H9    S    
C35   C54   S    
