data_mof_unit_13262.cif
_audit_creation_date              2012-12-10T16:52:36-0500
_audit_creation_method            fapswitch 2.2
_symmetry_space_group_name_H-M    P1
_symmetry_Int_Tables_number       1
_space_group_crystal_system       triclinic
_cell_length_a                    7.813834
_cell_length_b                    8.574625
_cell_length_c                    14.070056
_cell_angle_alpha                 93.132371
_cell_angle_beta                  94.828832
_cell_angle_gamma                 93.973874
_cell_volume                      935.363239884

loop_
_atom_site_label
_atom_site_type_symbol
_atom_type_description
_atom_site_fract_x
_atom_site_fract_y
_atom_site_fract_z
_atom_type_partial_charge
C1    C     C_R   0.044999 0.794619 0.497531 0.954314
C2    C     C_R   0.930692 0.472587 0.319708 0.876795
C3    C     C_R   0.116108 0.573508 0.781052 -0.197446
C4    C     C_R   0.883894 0.426509 0.218946 -0.197437
C5    C     C_R   0.046211 0.654030 0.939582 -0.184238
C6    C     C_R   0.953792 0.345996 0.060414 -0.184239
C7    C     C_R   0.994759 0.620214 0.842713 -0.252954
C8    C     C_R   0.005243 0.379806 0.157284 -0.252958
C9    C     C_R   0.289287 0.572712 0.816693 0.368781
C10   C     C_R   0.710716 0.427316 0.183304 0.368774
C11   C     C_R   0.326958 0.559370 0.913898 0.043616
C12   C     C_R   0.955001 0.205381 0.502469 0.954317
C13   C     C_R   0.673048 0.440662 0.086098 0.043607
C14   C     C_R   0.210575 0.617965 0.976273 0.093896
C15   C     C_R   0.789430 0.382066 0.023724 0.093898
C16   C     C_R   0.478387 0.494236 0.950231 0.061467
C17   C     C_R   0.521619 0.505798 0.049766 0.061467
C18   C     C_R   0.417733 0.589898 0.109387 -0.160134
C19   C     C_R   0.582272 0.410136 0.890609 -0.160138
C20   C     C_R   0.261298 0.640326 0.073425 -0.238260
C21   C     C_R   0.738706 0.359706 0.926571 -0.238260
C22   C     C_2   0.068519 0.958204 0.496184 -0.377092
C23   C     C_2   0.931480 0.041796 0.503816 -0.377092
C24   C     C_R   0.069308 0.527417 0.680291 0.876789
H1    H     H_    0.179541 0.695613 0.121746 0.159756
H2    H     H_    0.513027 0.628032 0.568872 0.197479
H3    H     H_    0.611940 0.314336 0.282668 0.331530
H4    H     H_    0.388047 0.685679 0.717317 0.331533
H5    H     H_    0.455163 0.618157 0.184309 0.210489
H6    H     H_    0.544843 0.381877 0.815687 0.210487
H7    H     H_    0.820462 0.304417 0.878251 0.159757
H8    H     H_    0.137203 0.366591 0.183968 0.209607
H9    H     H_    0.862798 0.633424 0.816029 0.209609
H10   H     H_    0.954590 0.697144 0.986493 0.160856
H11   H     H_    0.045412 0.302883 0.013503 0.160856
H12   H     H_    0.197773 0.009293 0.488943 0.179904
H13   H     H_    0.802227 0.990707 0.511058 0.179905
H14   H     H_    0.486973 0.371968 0.431128 0.197477
N1    N     N_2   0.440860 0.456490 0.474790 -0.157671
N2    N     N_2   0.559140 0.543510 0.525210 -0.157672
O1    O     O_R   0.891570 0.738930 0.506190 -0.611642
O2    O     O_3   0.423070 0.603991 0.760746 -0.788577
O3    O     O_R   0.108430 0.261070 0.493810 -0.611642
O4    O     O_R   0.174650 0.711050 0.490030 -0.635099
O5    O     O_R   0.825350 0.288950 0.509970 -0.635096
O6    O     O_R   0.909850 0.521900 0.644940 -0.608109
O7    O     O_R   0.090150 0.478100 0.355060 -0.608111
O8    O     O_R   0.192930 0.494020 0.628780 -0.595256
O9    O     O_R   0.807070 0.505980 0.371220 -0.595246
O10   O     O_3   0.576932 0.396044 0.239250 -0.788574
Zn1   Zn    Zn3+2 0.810990 0.518620 0.510790 0.957990
Zn2   Zn    Zn3+2 0.189010 0.481380 0.489210 0.957986

loop_
_geom_bond_atom_site_label_1
_geom_bond_atom_site_label_2
_ccdc_geom_bond_type
C2    C4    S    
O7    Zn2   S    
C3    C9    A    
C2    O9    A    
C2    O7    A    
N2    Zn1   S    
C9    C11   A    
C11   C16   A    
C1    O4    A    
C18   C20   A    
H3    O10   S    
C13   C17   A    
C4    C8    A    
C24   O6    A    
C5    H10   S    
O4    Zn2   S    
N1    Zn2   S    
C5    C14   A    
C1    C22   S    
C18   H5    S    
C23   H13   S    
C21   H7    S    
C12   C23   S    
H2    N2    S    
C3    C24   S    
C10   O10   S    
C16   C19   A    
C9    O2    S    
H4    O2    S    
C19   C21   A    
C17   C18   A    
C12   O3    A    
C3    C7    A    
C13   C15   A    
H14   N1    S    
C11   C14   A    
O3    Zn2   S    
C20   H1    S    
C7    H9    S    
C4    C10   A    
C8    H8    S    
C14   C20   A    
C15   C21   A    
C22   H12   S    
C6    H11   S    
C1    O1    A    
N1    N2    D    
C5    C7    A    
O5    Zn1   S    
C22   C23   D    
C16   C17   A    
C6    C8    A    
C6    C15   A    
O8    Zn2   S    
C19   H6    S    
O6    Zn1   S    
O1    Zn1   S    
C12   O5    A    
O9    Zn1   S    
C10   C13   A    
C24   O8    A    
