data_mof_unit_41607.cif
_audit_creation_date              2012-12-10T17:50:49-0500
_audit_creation_method            fapswitch 2.2
_symmetry_space_group_name_H-M    P1
_symmetry_Int_Tables_number       1
_space_group_crystal_system       triclinic
_cell_length_a                    14.702873
_cell_length_b                    14.490726
_cell_length_c                    15.852134
_cell_angle_alpha                 77.024572
_cell_angle_beta                  102.34204
_cell_angle_gamma                 114.324671
_cell_volume                      2970.88122948

loop_
_atom_site_label
_atom_site_type_symbol
_atom_type_description
_atom_site_fract_x
_atom_site_fract_y
_atom_site_fract_z
_atom_type_partial_charge
C1    C     C_R   0.880913 0.311108 0.513203 0.847345
C2    C     C_R   0.361056 0.923205 0.503799 0.093606
C3    C     C_R   0.676049 0.996472 0.530697 0.074568
C4    C     C_R   0.325181 0.003364 0.480685 0.078082
C5    C     C_R   0.535201 0.051164 0.516119 0.084200
C6    C     C_R   0.466872 0.946815 0.518323 0.082146
C7    C     C_R   0.506317 0.870207 0.528598 -0.214445
C8    C     C_R   0.495198 0.128276 0.499559 -0.211976
C9    C     C_R   0.608751 0.894943 0.534315 -0.175196
C10   C     C_R   0.392308 0.104565 0.481199 -0.177998
C11   C     C_R   0.696855 0.635344 0.330282 -0.014966
C12   C     C_R   0.119420 0.689117 0.485115 0.842565
C13   C     C_R   0.300001 0.359600 0.668030 -0.007980
C14   C     C_R   0.785061 0.616406 0.363548 0.158806
C15   C     C_R   0.212149 0.379231 0.634496 0.142630
C16   C     C_R   0.999216 0.499837 0.659969 0.813535
C17   C     C_R   0.000682 0.499949 0.340067 0.844400
C18   C     C_R   0.720268 0.519822 0.494255 0.008103
C19   C     C_R   0.280859 0.482182 0.507113 -0.015881
C20   C     C_R   0.628157 0.534917 0.466217 -0.044593
C21   C     C_R   0.372001 0.465282 0.534752 -0.042861
C22   C     C_R   0.618517 0.595951 0.383550 0.110343
C23   C     C_R   0.778140 0.019704 0.529957 -0.227494
C24   C     C_R   0.380211 0.401899 0.616376 0.105807
C25   C     C_R   0.545207 0.490297 0.516485 0.090574
C26   C     C_R   0.455083 0.510042 0.484763 0.091193
C27   C     C_R   0.450933 0.574009 0.403983 -0.220941
C28   C     C_R   0.548835 0.425451 0.596877 -0.220680
C29   C     C_R   0.529983 0.615269 0.354932 -0.194434
C30   C     C_R   0.468856 0.382701 0.645195 -0.197727
C31   C     C_3   0.007081 0.412629 0.046612 0.409135
C32   C     C_3   0.992451 0.584819 0.953917 0.455651
C33   C     C_3   0.919735 0.416698 0.973450 -0.324642
C34   C     C_R   0.222591 0.982255 0.453632 -0.213785
C35   C     C_3   0.079824 0.580709 0.027034 -0.285950
C36   C     C_1   0.997652 0.499389 0.749331 -0.139465
C37   C     C_1   0.001922 0.499542 0.250842 -0.129889
C38   C     C_3   0.085213 0.493342 0.989383 -0.014883
C39   C     C_3   0.914294 0.504060 0.011099 0.005888
C40   C     C_3   0.998574 0.498705 0.916783 -0.032482
C41   C     C_3   0.000949 0.498750 0.083713 -0.019199
C42   C     C_1   0.997399 0.498884 0.824876 0.032330
C43   C     C_1   0.002094 0.499227 0.175462 0.040720
C44   C     C_R   0.814665 0.200888 0.520621 -0.180406
C45   C     C_R   0.847646 0.121149 0.521349 0.429612
C46   C     C_R   0.186669 0.799446 0.479917 -0.179422
C47   C     C_3   0.683271 0.693149 0.238048 -0.434001
C48   C     C_3   0.767387 0.721882 0.182192 -0.342611
C49   C     C_3   0.741686 0.773209 0.090236 -0.788838
C50   C     C_3   0.310528 0.297179 0.758582 -0.423615
C51   C     C_3   0.223605 0.264946 0.812244 -0.378226
C52   C     C_3   0.245775 0.209008 0.903089 -0.750499
C53   C     C_3   0.817838 0.507953 0.029211 -0.377680
C54   C     C_3   0.736983 0.494199 0.948853 -0.330079
C55   C     C_3   0.642185 0.499980 0.967916 -0.851704
C56   C     C_R   0.153611 0.881907 0.447794 0.378256
C57   C     C_3   0.181374 0.488908 0.971141 -0.363861
C58   C     C_3   0.261689 0.500324 0.051840 -0.297816
C59   C     C_3   0.356811 0.495942 0.031962 -0.841147
C60   C     C_R   0.712750 0.175888 0.525083 -0.308457
C61   C     C_R   0.289563 0.822091 0.509323 -0.300177
C62   C     C_R   0.640892 0.075261 0.524843 0.098154
Cu1   Cu    Cu3+1 0.081740 0.475690 0.522610 0.980372
Cu2   Cu    Cu3+1 0.918260 0.524310 0.477390 1.005350
H1    H     H_    0.855119 0.349425 0.950630 0.171614
H2    H     H_    0.365237 0.166484 0.465049 0.159070
H3    H     H_    0.312752 0.759091 0.537149 0.175449
H4    H     H_    0.691190 0.237075 0.528986 0.165742
H5    H     H_    0.802887 0.958052 0.532923 0.200185
H6    H     H_    0.197263 0.045282 0.432457 0.200777
H7    H     H_    0.459938 0.790288 0.527705 0.143723
H8    H     H_    0.540988 0.208837 0.495530 0.143831
H9    H     H_    0.519952 0.663074 0.293543 0.141676
H10   H     H_    0.478047 0.333618 0.706000 0.141015
H11   H     H_    0.670459 0.721069 0.057179 0.237616
H12   H     H_    0.144547 0.647902 0.049862 0.178075
H13   H     H_    0.733397 0.845224 0.093064 0.273239
H14   H     H_    0.803142 0.792002 0.051247 0.257472
H15   H     H_    0.838737 0.776381 0.212766 0.287841
H16   H     H_    0.778051 0.651886 0.176751 0.207926
H17   H     H_    0.612139 0.644095 0.202162 0.200561
H18   H     H_    0.675502 0.764720 0.243338 0.228182
H19   H     H_    0.255479 0.138473 0.897970 0.268950
H20   H     H_    0.315248 0.259528 0.939500 0.240105
H21   H     H_    0.181959 0.187024 0.940198 0.267475
H22   H     H_    0.212642 0.333913 0.820079 0.208553
H23   H     H_    0.268701 0.530699 0.447452 0.136007
H24   H     H_    0.152949 0.212740 0.778394 0.255305
H25   H     H_    0.318991 0.226868 0.750792 0.223486
H26   H     H_    0.380417 0.344101 0.797309 0.199979
H27   H     H_    0.005567 0.234029 0.995594 0.329692
H28   H     H_    0.882250 0.740214 0.937726 0.345917
H29   H     H_    0.610487 0.439118 0.022469 0.259733
H30   H     H_    0.659810 0.576075 0.985530 0.255624
H31   H     H_    0.584638 0.488974 0.908925 0.245473
H32   H     H_    0.765928 0.554804 0.893480 0.260255
H33   H     H_    0.716776 0.418502 0.929134 0.222069
H34   H     H_    0.733805 0.474164 0.555370 0.130013
H35   H     H_    0.788181 0.445554 0.083532 0.213390
H36   H     H_    0.836593 0.582313 0.050743 0.206266
H37   H     H_    0.339363 0.421222 0.011652 0.263946
H38   H     H_    0.389250 0.558966 0.979015 0.252414
H39   H     H_    0.413736 0.504509 0.091401 0.242694
H40   H     H_    0.281605 0.574840 0.073647 0.210246
H41   H     H_    0.232338 0.437891 0.105958 0.276670
H42   H     H_    0.161963 0.414941 0.948598 0.211257
H43   H     H_    0.211826 0.552041 0.917547 0.206443
H44   H     H_    0.061123 0.833370 0.275111 0.343970
H45   H     H_    0.148949 0.348625 0.670568 0.143164
H46   H     H_    0.083603 0.253405 0.428732 0.380336
H47   H     H_    0.845662 0.643353 0.325272 0.179576
H48   H     H_    0.386804 0.593768 0.375564 0.134973
H49   H     H_    0.612774 0.405163 0.624853 0.132569
H50   H     H_    0.635205 0.834011 0.539145 0.161839
N1    N     N_R   0.795440 0.560790 0.443380 -0.194562
N2    N     N_R   0.204560 0.439210 0.556620 -0.198786
O1    O     O_R   0.977900 0.338120 0.529810 -0.514040
O2    O     O_2   0.909247 0.226065 0.133120 -0.248066
O3    O     O_3   0.050743 0.237817 0.051978 -0.508592
O4    O     O_2   0.090427 0.768485 0.864244 -0.237787
O5    O     O_2   0.912959 0.680338 0.809566 -0.306573
O6    O     O_3   0.956585 0.763783 0.950324 -0.517673
O7    O     O_2   0.954757 0.813741 0.452624 -0.221714
O8    O     O_2   0.026131 0.967799 0.348402 -0.219922
O9    O     O_3   0.007287 0.794426 0.312614 -0.587540
O10   O     O_2   0.041306 0.174634 0.590790 -0.327931
O11   O     O_2   0.977242 0.046070 0.493289 -0.218060
O12   O     O_R   0.022100 0.661880 0.470190 -0.492974
O13   O     O_3   0.009948 0.234578 0.423143 -0.482376
O14   O     O_R   0.839850 0.379180 0.491620 -0.604428
O15   O     O_R   0.160150 0.620820 0.508380 -0.606268
O16   O     O_R   0.069010 0.479460 0.640020 -0.606099
O17   O     O_R   0.930990 0.520540 0.359980 -0.598265
O18   O     O_R   0.930960 0.520530 0.601820 -0.565670
O19   O     O_R   0.069040 0.479470 0.398180 -0.563727
O20   O     O_2   0.084438 0.317860 0.192286 -0.254022
S1    S     S_3+6 0.012130 0.295715 0.109772 0.032681
S2    S     S_3+6 0.988209 0.701916 0.890598 0.016583
S3    S     S_3+6 0.031941 0.866187 0.390737 0.035827
S4    S     S_3+6 0.972250 0.142396 0.508776 0.040236

loop_
_geom_bond_atom_site_label_1
_geom_bond_atom_site_label_2
_ccdc_geom_bond_type
C21   C26   A    
C34   C56   A    
C23   C45   A    
C22   C29   A    
C27   C29   A    
C23   H5    S    
O8    S3    D    
C36   C42   T    
C55   H29   S    
C16   O18   A    
C33   H1    S    
C39   C41   S    
C53   C54   S    
O9    S3    S    
C25   C28   A    
O10   S4    D    
C26   C27   A    
C33   C39   S    
C9    H50   S    
C48   H15   S    
C52   H21   S    
C12   O15   A    
C19   H23   S    
C7    H7    S    
C5    C6    A    
Cu1   O1    S    
C11   C14   A    
C47   H18   S    
C29   H9    S    
C20   C25   A    
C14   N1    A    
O7    S3    D    
C49   H14   S    
H46   O13   S    
C60   C62   A    
C32   C39   S    
C52   H20   S    
C15   H45   S    
C50   H25   S    
Cu2   O17   S    
C3    C23   A    
C50   H26   S    
Cu2   O12   S    
C17   O19   A    
C49   H11   S    
C54   H33   S    
Cu1   O15   S    
H44   O9    S    
C31   S1    S    
O2    S1    D    
C34   H6    S    
C54   H32   S    
C2    C61   A    
C40   C42   S    
C57   H42   S    
Cu2   N1    S    
C41   C43   S    
C2    C6    A    
C55   H30   S    
C16   O16   A    
C51   H22   S    
Cu2   O18   S    
C10   H2    S    
C53   H36   S    
C14   H47   S    
C4    C34   A    
C35   H12   S    
C8    H8    S    
C33   C40   S    
C46   C61   A    
C51   C52   S    
C59   H37   S    
C32   C35   S    
C35   C38   S    
O6    S2    S    
C12   C46   S    
C1    O14   A    
C56   S3    S    
C47   H17   S    
C1    O1    A    
C25   C26   A    
C45   S4    S    
C53   H35   S    
C13   C50   S    
C13   C24   A    
O3    S1    S    
O5    S2    D    
C37   C43   T    
C52   H19   S    
C2    C4    A    
C32   S2    S    
C3    C9    A    
H28   O6    S    
C38   C57   S    
C61   H3    S    
C1    C44   S    
C47   C48   S    
C31   C33   S    
C50   C51   S    
C17   C37   S    
Cu1   O16   S    
Cu1   N2    S    
C55   H31   S    
C48   C49   S    
C57   H43   S    
Cu2   O14   S    
C27   H48   S    
C13   C15   A    
C17   O17   A    
H27   O3    S    
O4    S2    D    
O11   S4    D    
C4    C10   A    
C44   C45   A    
C3    C62   A    
C7    C9    A    
C54   C55   S    
C31   C41   S    
C19   C21   A    
C59   H38   S    
C18   N1    A    
C20   C22   A    
O20   S1    D    
C51   H24   S    
C5    C8    A    
C6    C7    A    
C12   O12   A    
C11   C22   A    
C11   C47   S    
C31   C38   S    
C58   H41   S    
C59   H39   S    
C48   H16   S    
C28   C30   A    
C58   C59   S    
C16   C36   S    
C38   C40   S    
C57   C58   S    
C39   C53   S    
O13   S4    S    
C19   N2    A    
C44   C60   A    
C30   H10   S    
C49   H13   S    
C5    C62   A    
C18   C20   A    
C32   C40   S    
C35   C41   S    
C24   C30   A    
C28   H49   S    
Cu1   Cu2   S    
C58   H40   S    
C60   H4    S    
C8    C10   A    
C21   C24   A    
C46   C56   A    
C15   N2    A    
C18   H34   S    
Cu1   O19   S    
