data_mof_unit_52416.cif
_audit_creation_date              2012-12-10T20:28:47-0500
_audit_creation_method            fapswitch 2.2
_symmetry_space_group_name_H-M    P1
_symmetry_Int_Tables_number       1
_space_group_crystal_system       triclinic
_cell_length_a                    10.673073
_cell_length_b                    10.670935
_cell_length_c                    9.859698
_cell_angle_alpha                 89.657041
_cell_angle_beta                  92.545521
_cell_angle_gamma                 90.712779
_cell_volume                      1121.72599663

loop_
_atom_site_label
_atom_site_type_symbol
_atom_type_description
_atom_site_fract_x
_atom_site_fract_y
_atom_site_fract_z
_atom_type_partial_charge
C1    C     C_R   0.504963 0.259779 0.500743 0.881992
C2    C     C_R   0.066451 0.409305 0.584109 0.076120
C3    C     C_R   0.127766 0.482197 0.488496 -0.065482
C4    C     C_R   0.061880 0.559637 0.397118 -0.189247
C5    C     C_R   0.934288 0.567979 0.405072 -0.171742
C6    C     C_R   0.875110 0.510528 0.513104 -0.046248
C7    C     C_R   0.522651 0.062707 0.625488 0.106457
C8    C     C_R   0.529939 0.128928 0.504161 -0.166129
C9    C     C_R   0.571016 0.067887 0.388898 -0.331339
C10   C     C_R   0.579419 0.937475 0.389678 0.459151
C11   C     C_R   0.536638 0.871280 0.503406 -0.218124
C12   C     C_R   0.260353 0.493054 0.496651 0.867823
C13   C     C_R   0.524877 0.935053 0.624836 0.068851
C14   C     C_3   0.429158 0.923262 0.730338 -0.428485
C15   C     C_3   0.426729 0.064981 0.731036 -0.484499
C16   C     C_R   0.460431 0.396329 0.070712 0.206366
C17   C     C_R   0.538630 0.602175 0.072970 -0.097362
C18   C     C_R   0.538714 0.602346 0.929348 -0.008612
C19   C     C_R   0.458756 0.396940 0.927446 0.211394
C20   C     C_3   0.327273 0.346845 0.920461 -0.500111
C21   C     C_3   0.331740 0.341755 0.073700 -0.476220
C22   C     C_R   0.509078 0.739957 0.500149 0.915778
C23   C     C_R   0.740774 0.504444 0.503836 0.858691
C24   C     C_R   0.122459 0.305757 0.650580 -0.281429
C25   C     C_R   0.058777 0.241302 0.750561 -0.285770
C26   C     C_R   0.947392 0.289381 0.797067 0.426958
C27   C     C_R   0.900451 0.401906 0.739766 0.345268
C28   C     C_R   0.944884 0.441747 0.613370 -0.086407
H1    H     H_    0.108976 0.613601 0.320561 0.170568
H2    H     H_    0.468591 0.883034 0.827024 0.196854
H3    H     H_    0.335642 0.103029 0.692290 0.191675
H4    H     H_    0.465534 0.105406 0.827736 0.198814
H5    H     H_    0.567234 0.685355 0.127708 0.200489
H6    H     H_    0.570774 0.684822 0.876506 0.142270
H7    H     H_    0.259232 0.416448 0.878040 0.254481
H8    H     H_    0.318788 0.252974 0.874172 0.196699
H9    H     H_    0.263922 0.405575 0.119528 0.240311
H10   H     H_    0.332111 0.244671 0.115248 0.204154
H11   H     H_    0.213215 0.273075 0.622678 0.160701
H12   H     H_    0.100886 0.160019 0.799457 0.181393
H13   H     H_    0.882036 0.620941 0.328464 0.169031
H14   H     H_    0.591262 0.119499 0.297290 0.189131
H15   H     H_    0.339662 0.879633 0.691045 0.207106
N1    N     N_R   0.499160 0.499140 0.142800 -0.109024
N2    N     N_R   0.499160 0.499180 0.857150 -0.094493
O1    O     O_R   0.500020 0.316790 0.614690 -0.634341
O2    O     O_R   0.500000 0.316760 0.385350 -0.621574
O3    O     O_R   0.316770 0.500020 0.614690 -0.611844
O4    O     O_R   0.316760 0.499980 0.385350 -0.627833
O5    O     O_R   0.500000 0.683240 0.614650 -0.621555
O6    O     O_R   0.499980 0.683210 0.385310 -0.584264
O7    O     O_R   0.683240 0.500020 0.614650 -0.565200
O8    O     O_R   0.683230 0.499980 0.385310 -0.612922
Zn1   Zn    Zn3+2 0.500010 0.500020 0.653130 0.981726
Zn2   Zn    Zn3+2 0.499990 0.499980 0.346870 0.969857
O9    O     O_3   0.901927 0.241695 0.916012 -0.559202
C29   C     C_3   0.784513 0.182984 0.886853 0.118545
H16   H     H_    0.798109 0.093335 0.832524 0.124126
H17   H     H_    0.719553 0.243269 0.824150 0.147493
C30   C     C_3   0.722677 0.154411 0.019720 -0.773782
H18   H     H_    0.697555 0.242899 0.069918 0.269790
H19   H     H_    0.636400 0.096952 0.000634 0.194208
H20   H     H_    0.788552 0.102256 0.088541 0.258356
S1    S     S_3+6 0.864316 0.518641 0.858530 0.038715
O10   O     O_2   0.768089 0.468902 0.951869 -0.315062
O11   O     O_2   0.982295 0.548426 0.941699 -0.303974
O12   O     O_3   0.813904 0.651388 0.782342 -0.570504
H21   H     H_    0.812173 0.713886 0.856080 0.359081
O13   O     O_3   0.619147 0.876467 0.276350 -0.610693
C31   C     C_3   0.751726 0.880478 0.280595 0.077238
H22   H     H_    0.790141 0.823957 0.367798 0.140705
H23   H     H_    0.788502 0.978324 0.290806 0.141591
C32   C     C_3   0.799436 0.827230 0.149680 -0.841925
H24   H     H_    0.752903 0.873637 0.060189 0.250066
H25   H     H_    0.902322 0.842937 0.146694 0.229154
H26   H     H_    0.780444 0.725032 0.143849 0.266216

loop_
_geom_bond_atom_site_label_1
_geom_bond_atom_site_label_2
_ccdc_geom_bond_type
C16   C21   S    
C1    C8    S    
C32   H24   S    
C19   C20   S    
C12   O3    A    
C12   O4    A    
C29   H16   S    
C7    C8    A    
O3    Zn1   S    
C26   C27   A    
O5    Zn1   S    
C30   H20   S    
C25   H12   S    
C5    C6    A    
C1    O1    A    
C29   H17   S    
C24   H11   S    
O9    C29   S    
C30   H19   S    
C3    C12   S    
C20   H7    S    
C6    C28   A    
C21   H10   S    
C8    C9    A    
C31   H22   S    
C9    C10   A    
C16   N1    A    
C4    H1    S    
C22   O5    A    
C7    C15   S    
C13   C14   S    
C32   H25   S    
C17   H5    S    
C14   H2    S    
O7    Zn1   S    
C23   O8    A    
O8    Zn2   S    
O12   H21   S    
S1    O12   S    
C15   H4    S    
C24   C25   A    
C27   S1    S    
C1    O2    A    
C29   C30   S    
C25   C26   A    
O4    Zn2   S    
C30   H18   S    
S1    O11   D    
O1    Zn1   S    
C31   C32   S    
C17   C18   A    
C9    H14   S    
C18   H6    S    
N2    Zn1   S    
C2    C24   A    
C32   H26   S    
C3    C4    A    
C18   N2    A    
O2    Zn2   S    
C5    H13   S    
C4    C5    A    
C26   O9    S    
C31   H23   S    
C19   N2    A    
C15   H3    S    
C11   C22   S    
S1    O10   D    
C2    C3    A    
C17   N1    A    
C11   C13   A    
N1    Zn2   S    
C23   O7    A    
C16   C19   A    
C6    C23   S    
O6    Zn2   S    
O13   C31   S    
C10   C11   A    
C20   H8    S    
C10   O13   S    
C7    C13   A    
C21   H9    S    
C20   C21   S    
C27   C28   A    
C14   C15   S    
C14   H15   S    
C2    C28   A    
C22   O6    A    
