data_mof_unit_42353.cif
_audit_creation_date              2012-12-11T15:43:45-0500
_audit_creation_method            fapswitch 2.2
_symmetry_space_group_name_H-M    P1
_symmetry_Int_Tables_number       1
_space_group_crystal_system       monoclinic
_cell_length_a                    14.580304
_cell_length_b                    16.152968
_cell_length_c                    6.912845
_cell_angle_alpha                 90.0
_cell_angle_beta                  98.680869
_cell_angle_gamma                 90.0
_cell_volume                      1609.42922723

loop_
_atom_site_label
_atom_site_type_symbol
_atom_type_description
_atom_site_fract_x
_atom_site_fract_y
_atom_site_fract_z
_atom_type_partial_charge
O1    O     O_R   0.831700 0.662810 0.581550 -0.544392
O2    O     O_R   0.168300 0.337190 0.418450 -0.550676
O3    O     O_R   0.168300 0.162810 0.418450 -0.544392
O4    O     O_R   0.831700 0.837190 0.581550 -0.550676
O5    O     O_R   0.842890 0.834390 0.255500 -0.544332
O6    O     O_R   0.157110 0.165610 0.744500 -0.544411
O7    O     O_R   0.157110 0.334390 0.744500 -0.544332
O8    O     O_R   0.842890 0.665610 0.255500 -0.544411
O9    O     O_R   0.661690 0.835580 0.024130 -0.503808
O10   O     O_R   0.338310 0.164420 0.975870 -0.501604
O11   O     O_R   0.338310 0.335580 0.975870 -0.503808
O12   O     O_R   0.661690 0.664420 0.024130 -0.501604
C1    C     C_R   0.865888 0.864380 0.431431 0.674791
C2    C     C_R   0.134117 0.135586 0.568537 0.684778
C3    C     C_R   0.134111 0.364380 0.568569 0.674791
C4    C     C_R   0.865883 0.635586 0.431463 0.684777
C5    C     C_R   0.064534 0.066786 0.534090 -0.049578
C6    C     C_R   0.934644 0.933783 0.465470 -0.047113
C7    C     C_R   0.935466 0.566786 0.465910 -0.049578
C8    C     C_R   0.065356 0.433783 0.534530 -0.047113
H1    H     H_    0.957350 0.943941 0.163977 0.110924
H2    H     H_    0.041223 0.057041 0.835316 0.112245
H3    H     H_    0.042650 0.443941 0.836023 0.110924
H4    H     H_    0.958777 0.557041 0.164684 0.112245
H5    H     H_    0.068675 0.057273 0.222053 0.116698
H6    H     H_    0.929863 0.943740 0.777160 0.114405
H7    H     H_    0.931325 0.557273 0.777947 0.116698
H8    H     H_    0.070137 0.443740 0.222840 0.114405
C9    C     C_R   0.975039 0.967818 0.311229 -0.168170
C10   C     C_R   0.023684 0.033073 0.688115 -0.160639
C11   C     C_R   0.024961 0.467818 0.688771 -0.168170
C12   C     C_R   0.976316 0.533073 0.311885 -0.160639
O13   O     O_3   0.687240 0.750000 0.366320 -0.344427
O14   O     O_3   0.312760 0.250000 0.633680 -0.344427
V1    V     V_3+5 0.757720 0.750000 0.115230 1.464271
V2    V     V_3+5 0.242280 0.250000 0.884770 1.464271
O15   O     O_R   0.650500 0.664000 0.690740 -0.542964
O16   O     O_R   0.349500 0.336000 0.309260 -0.549074
O17   O     O_R   0.349500 0.164000 0.309260 -0.542964
O18   O     O_R   0.650500 0.836000 0.690740 -0.549074
C13   C     C_R   0.626275 0.637719 0.853964 0.771711
C14   C     C_R   0.369441 0.365810 0.145179 0.761296
C15   C     C_R   0.373725 0.137719 0.146036 0.771711
C16   C     C_R   0.630558 0.865810 0.854821 0.761296
C17   C     C_R   0.038986 0.033196 0.345003 -0.147169
C18   C     C_R   0.959735 0.967699 0.654325 -0.152049
C19   C     C_R   0.961014 0.533196 0.654997 -0.147169
C20   C     C_R   0.040265 0.467699 0.345675 -0.152049
V3    V     V_3+5 0.735670 0.750000 0.607790 1.440783
V4    V     V_3+5 0.264330 0.250000 0.392210 1.440784
O19   O     O_3   0.806150 0.750000 0.906560 -0.388465
O20   O     O_3   0.193850 0.250000 0.093440 -0.388465
C21   C     C_2   0.566357 0.937374 0.850259 -0.414081
C22   C     C_2   0.444208 0.071361 0.152181 -0.412078
C23   C     C_2   0.433643 0.437374 0.149741 -0.414081
C24   C     C_2   0.555792 0.571361 0.847819 -0.412078
C25   C     C_2   0.555105 0.981770 0.012514 0.336140
C26   C     C_2   0.488883 0.052887 0.998449 0.344230
C27   C     C_2   0.444895 0.481770 0.987486 0.336140
C28   C     C_2   0.511117 0.552887 0.001551 0.344230
H9    H     H_    0.459368 0.035861 0.286751 0.145377
H10   H     H_    0.528579 0.955529 0.708994 0.143295
H11   H     H_    0.540632 0.535861 0.713248 0.145377
H12   H     H_    0.471421 0.455529 0.291006 0.143295
O21   O     O_3   0.475694 0.100786 0.829631 -0.540319
C29   C     C_3   0.554665 0.151759 0.830269 0.085142
H13   H     H_    0.618854 0.114107 0.833667 0.087399
H14   H     H_    0.563147 0.194150 0.958986 0.104764
C30   C     C_3   0.543985 0.204323 0.645655 -0.649903
H15   H     H_    0.487013 0.249626 0.646470 0.242388
H16   H     H_    0.609212 0.238973 0.638996 0.152593
H17   H     H_    0.529161 0.164433 0.514040 0.207769
O22   O     O_3   0.603233 0.961187 0.194918 -0.542264
C31   C     C_3   0.675447 0.019309 0.247069 0.112429
H18   H     H_    0.657418 0.083377 0.194477 0.074441
H19   H     H_    0.738217 0.999029 0.186428 0.117799
C32   C     C_3   0.698284 0.024009 0.468518 -0.733201
H20   H     H_    0.719549 0.962554 0.529665 0.233907
H21   H     H_    0.755692 0.068652 0.511235 0.174313
H22   H     H_    0.636240 0.044619 0.530154 0.216828
O23   O     O_3   0.524306 0.600786 0.170369 -0.540319
C33   C     C_3   0.445335 0.651759 0.169730 0.085142
H23   H     H_    0.381146 0.614108 0.166333 0.087399
H24   H     H_    0.436853 0.694150 0.041014 0.104764
C34   C     C_3   0.456015 0.704323 0.354345 -0.649903
H25   H     H_    0.512987 0.749627 0.353528 0.242388
H26   H     H_    0.390788 0.738973 0.361003 0.152592
H27   H     H_    0.470840 0.664433 0.485960 0.207769
O24   O     O_3   0.396767 0.461187 0.805082 -0.542264
C35   C     C_3   0.324553 0.519309 0.752931 0.112430
H28   H     H_    0.342582 0.583377 0.805523 0.074440
H29   H     H_    0.261782 0.499029 0.813572 0.117799
C36   C     C_3   0.301716 0.524009 0.531482 -0.733201
H30   H     H_    0.280451 0.462554 0.470335 0.233907
H31   H     H_    0.244308 0.568652 0.488764 0.174313
H32   H     H_    0.363760 0.544620 0.469846 0.216828

loop_
_geom_bond_atom_site_label_1
_geom_bond_atom_site_label_2
_ccdc_geom_bond_type
C29   H14   S    
C36   H30   S    
C23   C27   D    
O7    V2    S    
O23   C33   S    
C35   H28   S    
C32   H20   S    
C31   H19   S    
C1    C6    S    
O11   V2    S    
C5    C17   A    
O16   C14   A    
C7    C19   A    
C32   H22   S    
C29   C30   S    
O13   V3    S    
O18   V3    S    
O11   C14   A    
C27   O24   S    
C25   O22   S    
O4    C1    A    
C30   H16   S    
O2    V4    S    
C16   C21   S    
V3    O19   S    
C31   C32   S    
V4    O20   S    
O5    C1    A    
V2    O20   S    
O7    C3    A    
C29   H13   S    
C27   C28   S    
O8    C4    A    
C11   C19   A    
C5    C10   A    
C12   C20   A    
C2    C5    S    
C7    C12   A    
C6    C18   A    
O3    V4    S    
C32   H21   S    
O22   C31   S    
C3    C8    S    
O14   V4    S    
C31   H18   S    
C34   H26   S    
C6    C9    A    
C21   C25   D    
O17   C15   A    
C34   H25   S    
H1    C9    S    
C24   C28   D    
C9    C17   A    
O8    V1    S    
H3    C11   S    
C30   H17   S    
H4    C12   S    
C13   C24   S    
O12   C13   A    
C14   C23   S    
O6    C2    A    
O15   V3    S    
C21   H10   S    
C26   O21   S    
C35   H29   S    
C23   H12   S    
C24   H11   S    
O1    C4    A    
O12   V1    S    
O2    C3    A    
C8    C20   A    
O3    C2    A    
O21   C29   S    
C36   H32   S    
C33   H24   S    
V1    O19   S    
H5    C17   S    
C35   C36   S    
C22   C26   D    
C34   H27   S    
H7    C19   S    
H8    C20   S    
O9    C16   A    
H2    C10   S    
O10   C15   A    
C10   C18   A    
O16   V4    S    
C22   H9    S    
C33   C34   S    
O4    V3    S    
C25   C26   S    
C4    C7    S    
O5    V1    S    
O13   V1    S    
C28   O23   S    
O6    V2    S    
O14   V2    S    
O15   C13   A    
C30   H15   S    
C15   C22   S    
H6    C18   S    
O18   C16   A    
O17   V4    S    
C36   H31   S    
C33   H23   S    
O9    V1    S    
O10   V2    S    
O24   C35   S    
O1    V3    S    
C8    C11   A    
