data_mof_unit_42189.cif
_audit_creation_date              2012-12-10T19:04:48-0500
_audit_creation_method            fapswitch 2.2
_symmetry_space_group_name_H-M    P1
_symmetry_Int_Tables_number       1
_space_group_crystal_system       triclinic
_cell_length_a                    15.837789
_cell_length_b                    11.051166
_cell_length_c                    9.622813
_cell_angle_alpha                 90.223214
_cell_angle_beta                  89.747298
_cell_angle_gamma                 89.94354
_cell_volume                      1684.21279913

loop_
_atom_site_label
_atom_site_type_symbol
_atom_type_description
_atom_site_fract_x
_atom_site_fract_y
_atom_site_fract_z
_atom_type_partial_charge
C1    C     C_R   0.498298 0.262840 0.499705 0.798161
C2    C     C_3   0.083172 0.479793 0.483738 0.059457
C3    C     C_3   0.972258 0.558348 0.581533 -0.220030
C4    C     C_3   0.917132 0.485854 0.480527 0.107305
C5    C     C_3   0.030155 0.594229 0.458544 -0.213278
C6    C     C_3   0.973523 0.521939 0.356920 -0.120435
C7    C     C_1   0.174877 0.483405 0.491075 0.043136
C8    C     C_1   0.825418 0.490834 0.487880 -0.026103
C9    C     C_R   0.490509 0.063095 0.621135 -0.037837
C10   C     C_R   0.494771 0.130121 0.499016 -0.071148
C11   C     C_R   0.496496 0.063500 0.373787 -0.196680
C12   C     C_R   0.340029 0.497273 0.499752 0.876495
C13   C     C_R   0.497389 0.935659 0.374290 -0.172252
C14   C     C_R   0.495919 0.870421 0.500739 -0.075745
C15   C     C_R   0.490156 0.939714 0.622597 0.017454
C16   C     C_3   0.491087 0.936808 0.778630 0.173896
C17   C     C_3   0.484986 0.077450 0.775648 0.236405
C18   C     C_R   0.569850 0.532761 0.073193 0.205054
C19   C     C_R   0.434321 0.457071 0.077585 -0.034884
C20   C     C_R   0.427495 0.476058 0.933141 0.565828
C21   C     C_R   0.573371 0.523216 0.925851 0.154933
C22   C     C_3   0.622698 0.640687 0.922935 -0.214133
C23   C     C_R   0.499031 0.737403 0.500516 0.803807
C24   C     C_3   0.609609 0.653483 0.078897 -0.476111
C25   C     C_R   0.660039 0.499231 0.499343 0.784282
C26   C     C_3   0.969597 0.370745 0.504449 -0.206973
C27   C     C_3   0.028183 0.407155 0.381514 -0.192678
C28   C     C_1   0.250332 0.489570 0.497231 -0.067355
C29   C     C_1   0.749878 0.495147 0.495470 -0.174655
C30   C     C_3   0.025537 0.444096 0.604211 0.483910
Cu1   Cu    Cu3+1 0.500000 0.499980 0.640670 1.074729
Cu2   Cu    Cu3+1 0.500000 0.500020 0.359330 0.979324
H1    H     H_    0.052287 0.345158 0.299396 0.177379
H2    H     H_    0.553155 0.903618 0.816021 0.017867
H3    H     H_    0.380995 0.424572 0.137030 0.198217
H4    H     H_    0.590668 0.711806 0.862298 0.191039
H5    H     H_    0.667569 0.653731 0.143789 0.194020
H6    H     H_    0.563566 0.725778 0.106573 0.217683
H7    H     H_    0.943730 0.279065 0.524339 0.165245
H8    H     H_    0.950648 0.554517 0.254806 0.146453
H9    H     H_    0.055943 0.686130 0.439738 0.172412
H10   H     H_    0.949995 0.624148 0.659461 0.163975
H11   H     H_    0.497449 0.110285 0.275742 0.161130
H12   H     H_    0.499943 0.888561 0.275478 0.177392
N1    N     N_R   0.500530 0.500930 0.147930 -0.227032
N2    N     N_R   0.500530 0.500890 0.852020 -0.240247
O1    O     O_R   0.500000 0.319640 0.618810 -0.550009
O2    O     O_R   0.500010 0.319680 0.381230 -0.597519
O3    O     O_R   0.379070 0.499970 0.618770 -0.480541
O4    O     O_R   0.379080 0.500010 0.381190 -0.592445
O5    O     O_R   0.499990 0.680320 0.618770 -0.542610
O6    O     O_R   0.500000 0.680360 0.381190 -0.584349
O7    O     O_R   0.620920 0.499990 0.618810 -0.587263
O8    O     O_R   0.620930 0.500030 0.381230 -0.585190
S1    S     S_3+6 0.384880 0.151094 0.821613 0.098783
O9    O     O_2   0.308670 0.071126 0.818259 -0.186812
O10   O     O_2   0.366907 0.247867 0.718111 -0.224065
O11   O     O_3   0.391153 0.213349 0.980743 -0.568632
H13   H     H_    0.368426 0.151889 0.045407 0.375997
C31   C     C_R   0.561789 0.132823 0.847334 0.044785
C32   C     C_R   0.630500 0.184024 0.774330 -0.130873
C33   C     C_R   0.701333 0.226530 0.845640 -0.123492
C34   C     C_R   0.705779 0.215804 0.989879 -0.129280
C35   C     C_R   0.639354 0.162888 0.063153 -0.143817
C36   C     C_R   0.568419 0.120648 0.992188 -0.111382
H14   H     H_    0.631357 0.188965 0.662419 0.109056
H15   H     H_    0.753451 0.266180 0.788676 0.155954
H16   H     H_    0.761206 0.247030 0.044722 0.132106
H17   H     H_    0.643494 0.152729 0.174730 0.131968
H18   H     H_    0.519266 0.074596 0.049196 0.150577
S2    S     S_3+6 0.317879 0.507405 0.893364 0.122305
O12   O     O_2   0.274402 0.397166 0.838604 -0.155849
O13   O     O_2   0.272888 0.542516 0.025663 -0.287957
O14   O     O_3   0.300793 0.621832 0.783977 -0.461118
H19   H     H_    0.238740 0.624338 0.771548 0.366662
C37   C     C_R   0.716383 0.631859 0.891771 0.163847
C38   C     C_R   0.756951 0.732669 0.833217 -0.140133
C39   C     C_R   0.844680 0.744182 0.840853 -0.165215
C40   C     C_R   0.892671 0.655042 0.906389 -0.110817
C41   C     C_R   0.853567 0.551531 0.958219 -0.093125
C42   C     C_R   0.766031 0.539411 0.950389 -0.149180
H20   H     H_    0.720370 0.806114 0.789695 0.113474
H21   H     H_    0.875292 0.823790 0.799227 0.147144
H22   H     H_    0.960370 0.665547 0.915366 0.172214
H23   H     H_    0.890642 0.482881 0.009584 0.161504
H24   H     H_    0.736606 0.462930 0.000339 0.125890
S3    S     S_3+6 0.057242 0.386943 0.768511 0.011117
O15   O     O_2   0.122184 0.289426 0.746780 -0.207635
O16   O     O_2   0.093689 0.487712 0.854541 -0.284961
O17   O     O_3   0.972700 0.328139 0.849796 -0.578958
H25   H     H_    0.994223 0.299789 0.940532 0.369213
S4    S     S_3+6 0.406410 0.855868 0.857704 0.072266
O18   O     O_2   0.436478 0.731398 0.890122 -0.279474
O19   O     O_2   0.380557 0.914778 0.992437 -0.295668
O20   O     O_3   0.324758 0.849142 0.746452 -0.451310
H26   H     H_    0.273465 0.847523 0.805783 0.395405

loop_
_geom_bond_atom_site_label_1
_geom_bond_atom_site_label_2
_ccdc_geom_bond_type
S3    O15   D    
C3    H10   S    
C18   C21   A    
Cu2   N1    S    
O20   H26   S    
C22   C37   S    
C4    C8    S    
C12   O3    A    
C23   O6    A    
C38   C39   A    
C27   H1    S    
C26   C27   S    
C33   C34   A    
C33   H15   S    
C12   C28   S    
C18   C24   S    
C8    C29   T    
C25   O7    A    
C5    C6    S    
C26   H7    S    
C36   H18   S    
Cu2   O6    S    
C2    C7    S    
C16   H2    S    
C32   H14   S    
C19   C20   A    
C12   O4    A    
Cu1   N2    S    
C24   H6    S    
C20   S2    S    
C11   H11   S    
C2    C27   S    
C9    C10   A    
C17   S1    S    
C42   H24   S    
Cu1   O1    S    
C21   C22   S    
Cu2   O2    S    
Cu1   O3    S    
C39   H21   S    
Cu2   O8    S    
C37   C38   A    
C25   C29   S    
O14   H19   S    
C25   O8    A    
C4    C6    S    
S2    O13   D    
C39   C40   A    
C1    O1    A    
O11   H13   S    
S4    O20   S    
C7    C28   T    
C34   C35   A    
C31   C32   A    
C14   C23   S    
C3    C30   S    
C41   H23   S    
C23   O5    A    
C6    C27   S    
S1    O9    D    
S4    O19   D    
C24   H5    S    
C35   H17   S    
Cu1   O7    S    
Cu2   O4    S    
C9    C17   S    
C31   C36   A    
C16   S4    S    
S1    O10   D    
C6    H8    S    
S3    O17   S    
C2    C5    S    
C3    C4    S    
C18   N1    A    
C21   N2    A    
C5    H9    S    
C34   H16   S    
C40   H22   S    
Cu1   Cu2   S    
C1    C10   S    
Cu1   O5    S    
C41   C42   A    
C3    C5    S    
C37   C42   A    
S2    O14   S    
C4    C26   S    
C19   N1    A    
C1    O2    A    
C26   C30   S    
C22   H4    S    
C2    C30   S    
C35   C36   A    
S3    O16   D    
C9    C15   A    
S2    O12   D    
C19   H3    S    
C11   C13   A    
O17   H25   S    
C16   C17   S    
C38   H20   S    
S4    O18   D    
C22   C24   S    
C32   C33   A    
C10   C11   A    
C17   C31   S    
C40   C41   A    
S1    O11   S    
C14   C15   A    
C30   S3    S    
C13   C14   A    
C13   H12   S    
C20   N2    A    
C15   C16   S    
