data_mof_unit_57619.cif
_audit_creation_date              2012-10-26T17:11:08-0400
_audit_creation_method            fapswitch 2.2
_symmetry_space_group_name_H-M    P1
_symmetry_Int_Tables_number       1
_space_group_crystal_system       triclinic
_cell_length_a                    28.020805
_cell_length_b                    18.725272
_cell_length_c                    16.820878
_cell_angle_alpha                 89.908075
_cell_angle_beta                  63.165787
_cell_angle_gamma                 89.88111
_cell_volume                      7875.44740153

loop_
_atom_site_label
_atom_site_type_symbol
_atom_type_description
_atom_site_fract_x
_atom_site_fract_y
_atom_site_fract_z
_atom_type_partial_charge
C1    C     C_R   0.295778 0.729791 0.329325 0.822425
C2    C     C_R   0.441604 0.123428 0.528385 -0.226106
C3    C     C_R   0.927248 0.098055 0.065876 0.810062
C4    C     C_R   0.425212 0.405123 0.067722 0.828788
C5    C     C_R   0.574311 0.595765 0.932568 0.802030
C6    C     C_R   0.574828 0.405212 0.932270 0.824144
C7    C     C_R   0.427670 0.598610 0.065626 0.810002
C8    C     C_R   0.057311 0.499572 0.477438 0.019751
C9    C     C_R   0.964156 0.499775 0.451775 0.021232
C10   C     C_R   0.547301 0.997708 0.509698 0.023508
C11   C     C_R   0.451492 0.997503 0.494210 0.023486
C12   C     C_R   0.042156 0.562417 0.447196 0.045019
C13   C     C_R   0.461203 0.870915 0.464023 -0.222549
C14   C     C_R   0.984854 0.435100 0.466667 0.045469
C15   C     C_R   0.993048 0.563861 0.440862 0.044460
C16   C     C_R   0.027717 0.436195 0.489249 0.043500
C17   C     C_R   0.525001 0.062172 0.499066 0.046012
C18   C     C_R   0.477761 0.932590 0.491459 0.043565
C19   C     C_R   0.473262 0.062014 0.505650 0.045709
C20   C     C_R   0.521319 0.932676 0.512384 0.043705
C21   C     C_R   0.118077 0.436808 0.524227 0.064630
C22   C     C_R   0.890446 0.564954 0.442053 0.061141
C23   C     C_R   0.888994 0.434236 0.448448 0.061859
C24   C     C_R   0.556197 0.123873 0.476793 -0.226495
C25   C     C_R   0.133517 0.562292 0.480204 0.058210
C26   C     C_R   0.614951 0.934743 0.537410 0.060986
C27   C     C_R   0.373794 0.062277 0.500676 0.060403
C28   C     C_R   0.384585 0.934520 0.464853 0.061802
C29   C     C_R   0.625126 0.062662 0.502080 0.061344
C30   C     C_R   0.167388 0.435605 0.530236 -0.124993
C31   C     C_R   0.836246 0.565270 0.455021 -0.123203
C32   C     C_R   0.835706 0.434505 0.457295 -0.121718
C33   C     C_R   0.175060 0.563972 0.507131 -0.121152
C34   C     C_R   0.666291 0.934729 0.535802 -0.120976
C35   C     C_R   0.040163 0.376630 0.527448 -0.219669
C36   C     C_R   0.327843 0.063780 0.484957 -0.119948
C37   C     C_R   0.333596 0.934664 0.464942 -0.121113
C38   C     C_R   0.671778 0.063915 0.516012 -0.122530
C39   C     C_R   0.192747 0.500108 0.527723 -0.283215
C40   C     C_R   0.810515 0.499975 0.461233 -0.283737
C41   C     C_R   0.692151 0.999639 0.530175 -0.283319
C42   C     C_R   0.307902 0.999680 0.469730 -0.283553
C43   C     C_R   0.102816 0.499671 0.494462 0.073541
C44   C     C_R   0.914304 0.499750 0.447728 0.074651
C45   C     C_R   0.595746 0.998454 0.517088 0.071254
C46   C     C_R   0.971911 0.626701 0.422959 -0.219075
C47   C     C_R   0.403332 0.998156 0.485931 0.071630
C48   C     C_R   0.582108 0.873357 0.557391 -0.176505
C49   C     C_R   0.391199 0.121839 0.532369 -0.183372
C50   C     C_R   0.417542 0.873143 0.445577 -0.176850
C51   C     C_R   0.606853 0.122476 0.471852 -0.184158
C52   C     C_R   0.083441 0.377682 0.546738 -0.179662
C53   C     C_R   0.922399 0.626909 0.422147 -0.194121
C54   C     C_R   0.919024 0.371186 0.438596 -0.182406
C55   C     C_R   0.122555 0.620012 0.436949 -0.186747
C56   C     C_3   0.158331 0.619495 0.974623 -0.677397
C57   C     C_R   0.963824 0.371034 0.453445 -0.224784
C58   C     C_3   0.732630 0.386933 0.156880 -0.712908
C59   C     C_3   0.794771 0.579241 0.120199 -0.696588
C60   C     C_3   0.268150 0.387261 0.842331 -0.710696
C61   C     C_3   0.653559 0.105180 0.976335 -0.676860
C62   C     C_3   0.245068 0.900638 0.144853 -0.711716
C63   C     C_3   0.343616 0.102206 0.027638 -0.681872
C64   C     C_3   0.843444 0.664434 0.743958 -0.670516
C65   C     C_3   0.094876 0.878388 0.713753 -0.534523
C66   C     C_3   0.915296 0.142043 0.276972 -0.550989
C67   C     C_3   0.828409 0.963456 0.265504 -0.643069
C68   C     C_R   0.077257 0.620957 0.423105 -0.215327
C69   C     C_3   0.088041 0.135308 0.719881 -0.547723
C70   C     C_3   0.666728 0.461751 0.726700 -0.633253
C71   C     C_3   0.413904 0.638526 0.279352 -0.550862
C72   C     C_3   0.331201 0.460870 0.273788 -0.643291
C73   C     C_3   0.581622 0.650025 0.727989 -0.555804
C74   C     C_R   0.219987 0.766629 0.953425 0.043430
C75   C     C_R   0.770774 0.218282 0.055423 0.035410
C76   C     C_R   0.802312 0.725833 0.027859 0.060916
C77   C     C_R   0.706154 0.273504 0.669676 0.853741
C78   C     C_R   0.228629 0.218773 0.945403 0.035704
C79   C     C_R   0.711454 0.252853 0.962014 0.045923
C80   C     C_R   0.277258 0.729705 0.049150 0.035379
C81   C     C_R   0.288740 0.252424 0.037864 0.045873
C82   C     C_R   0.744811 0.688737 0.928684 0.060791
C83   C     C_R   0.231498 0.694243 0.961605 0.274624
C84   C     C_R   0.756206 0.289772 0.050730 0.268773
C85   C     C_R   0.761296 0.673166 0.060005 0.268074
C86   C     C_R   0.244151 0.289934 0.948733 0.267215
C87   C     C_R   0.725225 0.181037 0.967724 0.271684
C88   C     C_R   0.704117 0.730278 0.670913 0.837607
C89   C     C_R   0.265406 0.801958 0.041528 0.271174
C90   C     C_R   0.273723 0.180938 0.033949 0.272701
C91   C     C_R   0.795651 0.722966 0.886529 0.263679
C92   C     C_R   0.260541 0.676647 0.008472 -0.318519
C93   C     C_R   0.727363 0.306289 0.003405 -0.295631
C94   C     C_R   0.730379 0.661035 0.014708 -0.291697
C95   C     C_R   0.273427 0.305962 0.995455 -0.294026
C96   C     C_R   0.755337 0.164619 0.013446 -0.314748
C97   C     C_R   0.237366 0.819710 0.993052 -0.301796
C98   C     C_R   0.243380 0.165019 0.988524 -0.314490
C99   C     C_R   0.293896 0.273378 0.330307 0.853257
C100  C     C_R   0.820413 0.746731 0.938198 -0.289924
C101  C     C_R   0.145137 0.831023 0.942021 -0.276882
C102  C     C_R   0.849995 0.160385 0.061640 -0.263087
C103  C     C_R   0.868879 0.807991 0.050639 -0.263144
C104  C     C_R   0.149412 0.161129 0.938902 -0.264064
C105  C     C_R   0.639738 0.321683 0.946367 -0.282540
C106  C     C_R   0.353562 0.666995 0.058609 -0.265888
C107  C     C_R   0.360643 0.321110 0.053351 -0.281450
C108  C     C_R   0.659745 0.640965 0.924435 -0.257580
C109  C     C_R   0.115743 0.848996 0.895637 -0.131660
C110  C     C_R   0.795392 0.229024 0.329525 0.827632
C111  C     C_R   0.882437 0.148747 0.104633 -0.137998
C112  C     C_R   0.882453 0.851267 0.106050 -0.109202
C113  C     C_R   0.117451 0.148651 0.895216 -0.132442
C114  C     C_R   0.620180 0.355871 0.892533 -0.108550
C115  C     C_R   0.384110 0.651268 0.103773 -0.139163
C116  C     C_R   0.380026 0.355477 0.107275 -0.109507
C117  C     C_R   0.621802 0.641744 0.890746 -0.131785
C118  C     C_R   0.130983 0.821197 0.809510 0.203244
C119  C     C_R   0.868748 0.180463 0.188218 0.206641
C120  C     C_R   0.853258 0.845239 0.199049 0.210302
C121  C     C_R   0.204287 0.770271 0.670544 0.855971
C122  C     C_R   0.131530 0.179457 0.810949 0.206188
C123  C     C_R   0.646369 0.345431 0.799837 0.203771
C124  C     C_R   0.369858 0.681474 0.188414 0.208391
C125  C     C_R   0.353711 0.345048 0.199948 0.205238
C126  C     C_R   0.632466 0.679705 0.812211 0.209538
C127  C     C_R   0.180491 0.785258 0.766314 -0.115721
C128  C     C_R   0.817559 0.211434 0.234557 -0.104118
C129  C     C_R   0.815677 0.790899 0.234859 -0.122797
C130  C     C_R   0.182374 0.211330 0.765366 -0.105744
C131  C     C_R   0.684512 0.290980 0.764566 -0.123406
C132  C     C_R   0.204677 0.228889 0.670376 0.826880
C133  C     C_R   0.319259 0.714482 0.233482 -0.104557
C134  C     C_R   0.315684 0.290610 0.235261 -0.123208
C135  C     C_R   0.682662 0.712114 0.766100 -0.114233
C136  C     C_R   0.209168 0.767417 0.813915 -0.208345
C137  C     C_R   0.785333 0.221394 0.191242 -0.209286
C138  C     C_R   0.798075 0.754337 0.180201 -0.236217
C139  C     C_R   0.214141 0.222077 0.809336 -0.209805
C140  C     C_R   0.704070 0.257125 0.818756 -0.212790
C141  C     C_R   0.289100 0.729145 0.187543 -0.212974
C142  C     C_R   0.296285 0.256677 0.181069 -0.213086
C143  C     C_R   0.793410 0.774494 0.330505 0.841353
C144  C     C_R   0.715803 0.720396 0.808082 -0.237083
C145  C     C_R   0.190623 0.787894 0.902681 0.112279
C146  C     C_R   0.802651 0.199814 0.103157 0.116247
C147  C     C_R   0.824154 0.761444 0.086414 0.107897
C148  C     C_R   0.196686 0.200640 0.897597 0.116300
C149  C     C_R   0.683639 0.275275 0.908971 0.113935
C150  C     C_R   0.307521 0.709102 0.098674 0.120720
C151  C     C_R   0.316760 0.274663 0.090737 0.113517
C152  C     C_R   0.706818 0.682689 0.886195 0.101963
C153  C     C_R   0.200878 0.631026 0.513229 0.818005
C154  C     C_R   0.538230 0.871030 0.539589 -0.222228
C155  C     C_R   0.803172 0.368341 0.473086 0.815124
C156  C     C_R   0.803513 0.631762 0.471861 0.808960
C157  C     C_R   0.197087 0.368515 0.525579 0.813278
C158  C     C_R   0.699784 0.130921 0.516301 0.814792
C159  C     C_R   0.303048 0.868228 0.473328 0.816749
C160  C     C_R   0.300132 0.130936 0.483926 0.814040
C161  C     C_R   0.696935 0.868193 0.526781 0.811694
C162  C     C_R   0.926166 0.903528 0.067018 0.816688
C163  C     C_R   0.072790 0.097917 0.934012 0.821399
C164  C     C_R   0.072427 0.901673 0.934182 0.826305
Cu1   Cu    Cu3+1 0.209920 0.785290 0.495070 0.911051
Cu2   Cu    Cu3+1 0.504760 0.500000 0.075850 0.902116
Cu3   Cu    Cu3+1 0.995240 0.000000 0.924150 0.891041
Cu4   Cu    Cu3+1 0.004760 0.000000 0.075850 0.901465
Cu5   Cu    Cu3+1 0.790080 0.214710 0.504930 0.913983
Cu6   Cu    Cu3+1 0.790080 0.785290 0.504930 0.934379
Cu7   Cu    Cu3+1 0.209920 0.214710 0.495070 0.916516
Cu8   Cu    Cu3+1 0.709920 0.285290 0.495070 0.928930
Cu9   Cu    Cu3+1 0.290080 0.714710 0.504930 0.914561
Cu10  Cu    Cu3+1 0.290080 0.285290 0.504930 0.929137
Cu11  Cu    Cu3+1 0.709920 0.714710 0.495070 0.917744
Cu12  Cu    Cu3+1 0.495240 0.500000 0.924150 0.904705
H1    H     H_    0.227738 0.500292 0.539416 0.189782
H2    H     H_    0.911151 0.676347 0.402350 0.174207
H3    H     H_    0.382682 0.596704 0.297796 0.220388
H4    H     H_    0.395796 0.394904 0.262345 0.274722
H5    H     H_    0.331137 0.488633 0.332049 0.214233
H6    H     H_    0.288942 0.451030 0.288287 0.221755
H7    H     H_    0.350541 0.495552 0.214093 0.219886
H8    H     H_    0.555534 0.714041 0.841692 0.238491
H9    H     H_    0.584838 0.681447 0.669794 0.213626
H10   H     H_    0.610834 0.605246 0.704727 0.224722
H11   H     H_    0.540513 0.627668 0.760492 0.206169
H12   H     H_    0.910134 0.320975 0.417357 0.178633
H13   H     H_    0.149531 0.664492 0.409879 0.170480
H14   H     H_    0.515875 0.821716 0.552449 0.139210
H15   H     H_    0.454039 0.171638 0.549284 0.142571
H16   H     H_    0.483734 0.821663 0.451350 0.139993
H17   H     H_    0.543254 0.172197 0.456700 0.142650
H18   H     H_    0.015219 0.329500 0.546583 0.139626
H19   H     H_    0.992145 0.677385 0.411424 0.136211
H20   H     H_    0.983428 0.320403 0.449536 0.138540
H21   H     H_    0.769313 0.500117 0.472294 0.189917
H22   H     H_    0.071692 0.667575 0.390472 0.134352
H23   H     H_    0.229916 0.875369 0.984792 0.156176
H24   H     H_    0.765970 0.109549 0.017593 0.150655
H25   H     H_    0.855002 0.780255 0.905144 0.134055
H26   H     H_    0.231979 0.110183 0.985612 0.147521
H27   H     H_    0.718531 0.361715 0.996765 0.159272
H28   H     H_    0.269174 0.621065 0.014783 0.149440
H29   H     H_    0.282904 0.361209 0.001117 0.158694
H30   H     H_    0.695875 0.627476 0.047994 0.131688
H31   H     H_    0.132631 0.850277 0.009241 0.167730
H32   H     H_    0.729746 0.999855 0.533930 0.191071
H33   H     H_    0.861598 0.139208 0.995538 0.165686
H34   H     H_    0.893214 0.812879 0.979812 0.148516
H35   H     H_    0.137575 0.140300 0.005284 0.164120
H36   H     H_    0.622275 0.333116 0.017069 0.166694
H37   H     H_    0.365627 0.646890 0.991883 0.164864
H38   H     H_    0.378162 0.332553 0.982630 0.166333
H39   H     H_    0.651449 0.607017 0.980779 0.154664
H40   H     H_    0.246520 0.738214 0.781815 0.170615
H41   H     H_    0.746287 0.245914 0.226084 0.169465
H42   H     H_    0.762664 0.722645 0.213420 0.205240
H43   H     H_    0.270751 0.000084 0.464513 0.189201
H44   H     H_    0.253055 0.246830 0.774695 0.170366
H45   H     H_    0.737026 0.219702 0.789870 0.175583
H46   H     H_    0.250758 0.755726 0.221000 0.166009
H47   H     H_    0.263302 0.219442 0.210143 0.176687
H48   H     H_    0.748659 0.756739 0.777574 0.205975
H49   H     H_    0.238634 0.594649 0.904297 0.245110
H50   H     H_    0.147525 0.578365 0.938092 0.226016
H51   H     H_    0.131973 0.666555 0.985203 0.241523
H52   H     H_    0.151477 0.597256 0.040232 0.220500
H53   H     H_    0.802573 0.377747 0.039159 0.250501
H54   H     H_    0.588684 0.826569 0.588617 0.170976
H55   H     H_    0.712110 0.421831 0.128362 0.216896
H56   H     H_    0.750578 0.421144 0.190083 0.234663
H57   H     H_    0.702868 0.351163 0.207847 0.231085
H58   H     H_    0.714848 0.605424 0.164902 0.246425
H59   H     H_    0.785595 0.550510 0.183239 0.226508
H60   H     H_    0.833333 0.607720 0.099158 0.241592
H61   H     H_    0.798719 0.539629 0.068426 0.229386
H62   H     H_    0.198042 0.378335 0.959885 0.252197
H63   H     H_    0.250245 0.422595 0.809855 0.234933
H64   H     H_    0.297482 0.351353 0.790854 0.230970
H65   H     H_    0.366477 0.167435 0.563772 0.176131
H66   H     H_    0.289183 0.421117 0.870728 0.213025
H67   H     H_    0.734262 0.081358 0.909690 0.247559
H68   H     H_    0.644113 0.063648 0.938563 0.226404
H69   H     H_    0.627080 0.151809 0.985257 0.240138
H70   H     H_    0.645436 0.083223 0.042674 0.223369
H71   H     H_    0.314366 0.887434 0.027165 0.251813
H72   H     H_    0.224364 0.934832 0.115981 0.211114
H73   H     H_    0.264388 0.935774 0.174958 0.235052
H74   H     H_    0.215240 0.866638 0.198248 0.231164
H75   H     H_    0.262422 0.082267 0.095373 0.245314
H76   H     H_    0.411356 0.826335 0.414159 0.173619
H77   H     H_    0.352127 0.060709 0.066763 0.226888
H78   H     H_    0.371205 0.147709 0.016978 0.241310
H79   H     H_    0.351054 0.079204 0.962171 0.222343
H80   H     H_    0.853024 0.770100 0.770509 0.246062
H81   H     H_    0.862478 0.675272 0.671203 0.235155
H82   H     H_    0.809937 0.626563 0.759500 0.237653
H83   H     H_    0.873529 0.639575 0.761419 0.225995
H84   H     H_    0.055970 0.802840 0.814995 0.241036
H85   H     H_    0.099839 0.856466 0.649238 0.216845
H86   H     H_    0.056063 0.907223 0.742034 0.200246
H87   H     H_    0.631041 0.168420 0.440575 0.176845
H88   H     H_    0.127653 0.916820 0.701816 0.213538
H89   H     H_    0.944823 0.211422 0.167796 0.239104
H90   H     H_    0.955907 0.117972 0.245272 0.205192
H91   H     H_    0.911709 0.170244 0.337393 0.213146
H92   H     H_    0.885012 0.098796 0.296674 0.221636
H93   H     H_    0.892076 0.900510 0.262957 0.273877
H94   H     H_    0.827311 0.995059 0.322046 0.213664
H95   H     H_    0.786500 0.952393 0.278838 0.222791
H96   H     H_    0.848582 0.995167 0.203334 0.220686
H97   H     H_    0.055610 0.207019 0.826651 0.238694
H98   H     H_    0.087809 0.332272 0.582521 0.170883
H99   H     H_    0.092129 0.161492 0.657910 0.214483
H100  H     H_    0.119053 0.093026 0.702998 0.219489
H101  H     H_    0.047828 0.110231 0.750398 0.202282
H102  H     H_    0.603444 0.393691 0.737809 0.274437
H103  H     H_    0.663701 0.491241 0.671871 0.212415
H104  H     H_    0.648481 0.494439 0.788248 0.219233
H105  H     H_    0.709784 0.453079 0.707649 0.219271
H106  H     H_    0.445915 0.709040 0.171414 0.240528
H107  H     H_    0.453961 0.612850 0.248423 0.205876
H108  H     H_    0.410290 0.665546 0.340487 0.213735
N1    N     N_2   0.213942 0.638855 0.923155 -0.435639
N2    N     N_2   0.908963 0.193052 0.217148 -0.424461
N3    N     N_2   0.856815 0.897274 0.258075 -0.410009
N4    N     N_2   0.092173 0.188774 0.779208 -0.422628
N5    N     N_2   0.639542 0.393916 0.740151 -0.407040
N6    N     N_2   0.409431 0.691198 0.219459 -0.422808
N7    N     N_2   0.359807 0.394009 0.259662 -0.406073
N8    N     N_2   0.590445 0.696765 0.788963 -0.432018
N9    N     N_2   0.774388 0.345721 0.087386 -0.424940
N10   N     N_2   0.752075 0.629048 0.134662 -0.457540
N11   N     N_2   0.226250 0.346213 0.911766 -0.425334
N12   N     N_2   0.709226 0.125204 0.927608 -0.440538
N13   N     N_2   0.285433 0.856992 0.076474 -0.423137
N14   N     N_2   0.288496 0.124930 0.075847 -0.442083
N15   N     N_2   0.824213 0.730711 0.792236 -0.459715
N16   N     N_2   0.093919 0.820119 0.772059 -0.413456
O1    O     O_R   0.255040 0.869590 0.478480 -0.590246
O2    O     O_R   0.817950 0.203450 0.375560 -0.576982
O3    O     O_R   0.817950 0.796550 0.375560 -0.567523
O4    O     O_R   0.182050 0.203450 0.624440 -0.573426
O5    O     O_R   0.682050 0.296550 0.624440 -0.555779
O6    O     O_R   0.317950 0.703450 0.375560 -0.575750
O7    O     O_R   0.317950 0.296550 0.375560 -0.555172
O8    O     O_R   0.682050 0.703450 0.624440 -0.575643
O9    O     O_R   0.250530 0.763330 0.367210 -0.611711
O10   O     O_R   0.749470 0.236670 0.632790 -0.595979
O11   O     O_R   0.749470 0.763330 0.632790 -0.593478
O12   O     O_R   0.744960 0.130410 0.521520 -0.589762
O13   O     O_R   0.250530 0.236670 0.367210 -0.596336
O14   O     O_R   0.750530 0.263330 0.367210 -0.608098
O15   O     O_R   0.249470 0.736670 0.632790 -0.594704
O16   O     O_R   0.249470 0.263330 0.632790 -0.608884
O17   O     O_R   0.750530 0.736670 0.367210 -0.596106
O18   O     O_R   0.177260 0.690030 0.513710 -0.595033
O19   O     O_R   0.822740 0.309970 0.486290 -0.602889
O20   O     O_R   0.822740 0.690030 0.486290 -0.597369
O21   O     O_R   0.177260 0.309970 0.513710 -0.598395
O22   O     O_R   0.677260 0.190030 0.513710 -0.602041
O23   O     O_R   0.744960 0.869590 0.521520 -0.582226
O24   O     O_R   0.322740 0.809970 0.486290 -0.598079
O25   O     O_R   0.322740 0.190030 0.486290 -0.601588
O26   O     O_R   0.677260 0.809970 0.513710 -0.600849
O27   O     O_R   0.051640 0.926880 0.885090 -0.584085
O28   O     O_R   0.948360 0.073120 0.114910 -0.580153
O29   O     O_R   0.948360 0.926880 0.114910 -0.591564
O30   O     O_R   0.051640 0.073120 0.885090 -0.581690
O31   O     O_R   0.551640 0.426880 0.885090 -0.590074
O32   O     O_R   0.448360 0.573120 0.114910 -0.581259
O33   O     O_R   0.448360 0.426880 0.114910 -0.590104
O34   O     O_R   0.255040 0.130410 0.478480 -0.590238
O35   O     O_R   0.551640 0.573120 0.885090 -0.581147
O36   O     O_R   0.940620 0.926560 0.986760 -0.594627
O37   O     O_R   0.059380 0.073440 0.013240 -0.596311
O38   O     O_R   0.059380 0.926560 0.013240 -0.592769
O39   O     O_R   0.940620 0.073440 0.986760 -0.594997
O40   O     O_R   0.440620 0.426560 0.986760 -0.592362
O41   O     O_R   0.559380 0.573440 0.013240 -0.596558
O42   O     O_R   0.559380 0.426560 0.013240 -0.594530
O43   O     O_R   0.440620 0.573440 0.986760 -0.595167
O44   O     O_R   0.755040 0.369590 0.478480 -0.581041
O45   O     O_R   0.244960 0.630410 0.521520 -0.591368
O46   O     O_R   0.244960 0.369590 0.521520 -0.579756
O47   O     O_R   0.755040 0.630410 0.478480 -0.586892
O48   O     O_R   0.182050 0.796550 0.624440 -0.561869

loop_
_geom_bond_atom_site_label_1
_geom_bond_atom_site_label_2
_ccdc_geom_bond_type
C120  N3    S    
C28   C47   A    
C160  O25   A    
C82   C94   A    
C36   C42   A    
C65   H86   S    
C74   C83   A    
C34   C161  S    
C79   C87   A    
C73   H10   S    
C89   N13   S    
Cu9   O6    S    
H71   N13   S    
C71   H108  S    
H58   N10   S    
C59   H61   S    
C72   N7    S    
C124  N6    S    
Cu6   O3    S    
C16   C35   A    
C81   C95   A    
Cu5   O10   S    
C40   H21   S    
C160  O34   A    
C70   H104  S    
C37   C42   A    
H102  N5    S    
C97   H23   S    
C131  C140  A    
C101  H31   S    
Cu11  O47   S    
C139  H44   S    
C113  C122  A    
C10   C20   A    
C99   O7    A    
C7    O32   A    
C60   H64   S    
C91   C100  A    
C22   C53   A    
C117  C126  A    
H8    N8    S    
C6    O42   A    
C78   C148  S    
C79   C149  S    
C119  C128  A    
C24   C51   A    
C8    C16   A    
Cu2   O32   S    
C102  C111  A    
Cu2   O42   S    
C103  H34   S    
C109  C118  A    
C7    O43   A    
C56   H52   S    
C137  C146  A    
C127  C136  A    
H80   N15   S    
Cu3   O30   S    
C112  C120  A    
C84   N9    S    
C82   C91   A    
C29   C45   A    
C103  C112  A    
C142  C151  A    
C80   C92   A    
C100  H25   S    
Cu1   O9    S    
C119  N2    S    
C67   H96   S    
C13   C18   A    
C112  C162  S    
C65   H88   S    
C50   H76   S    
C14   C57   A    
C63   N14   S    
C2    C19   A    
C9    C15   A    
Cu10  O7    S    
C59   H59   S    
C25   C55   A    
C88   C135  S    
C49   H65   S    
Cu5   O12   S    
Cu6   O11   S    
C76   C100  A    
C118  N16   S    
C106  C115  A    
C132  O16   A    
H67   N12   S    
Cu12  O43   S    
C157  O21   A    
C46   C53   A    
C73   N8    S    
C84   C93   A    
C143  O17   A    
C93   H27   S    
C108  H39   S    
C58   H56   S    
C86   C95   A    
Cu5   O19   S    
C60   N11   S    
Cu6   O20   S    
C62   H74   S    
C69   N4    S    
C137  H41   S    
Cu1   O48   S    
C76   C85   A    
C66   H91   S    
C110  C128  S    
C11   C18   A    
Cu11  O8    S    
C106  C150  A    
C74   C145  S    
C94   H30   S    
Cu5   O2    S    
C58   H57   S    
Cu3   O36   S    
C25   C43   A    
C31   C156  S    
C103  C147  A    
C12   C68   A    
C101  C145  A    
C105  H36   S    
C55   H13   S    
C156  O47   A    
C153  O18   A    
C33   C153  S    
C75   C84   A    
C162  O29   A    
C111  C119  A    
C77   C131  S    
Cu3   O27   S    
C6    C114  S    
C26   C45   A    
C67   H94   S    
H106  N6    S    
C29   C38   A    
C163  O30   A    
C107  C151  A    
C90   N14   S    
Cu1   O18   S    
C4    O33   A    
C1    C133  S    
C141  C150  A    
C75   C146  S    
C69   H99   S    
C139  C148  A    
H75   N14   S    
C120  C129  A    
C66   N2    S    
C38   C41   A    
C52   H98   S    
C61   H70   S    
C81   C151  S    
C51   H87   S    
C99   C134  S    
Cu8   O14   S    
C113  C163  S    
Cu9   O45   S    
C62   H72   S    
C8    C12   A    
C61   N12   S    
C10   C45   A    
C125  N7    S    
C126  N8    S    
C114  C123  A    
C157  O46   A    
C88   O8    A    
C116  C125  A    
C118  C127  A    
Cu4   O38   S    
C142  H47   S    
C64   H81   S    
C29   C51   A    
C27   C47   A    
C96   H24   S    
C48   C154  A    
C108  C117  A    
C65   H85   S    
C83   N1    S    
C73   H9    S    
C102  H33   S    
C60   H66   S    
C87   N12   S    
C71   H107  S    
C37   C159  S    
C144  C152  A    
C59   N10   S    
C155  O19   A    
C28   C37   A    
C156  O20   A    
C30   C39   A    
C154  H14   S    
Cu6   O23   S    
C107  C116  A    
C13   C50   A    
C62   N13   S    
Cu4   O28   S    
C15   C46   A    
C140  C149  A    
C27   C49   A    
C25   C33   A    
C54   C57   A    
C125  C134  A    
C30   C157  S    
C95   H29   S    
Cu10  O46   S    
Cu2   O33   S    
C104  C148  A    
C11   C47   A    
C8    C43   A    
C55   C68   A    
C11   C19   A    
C13   H16   S    
C23   C54   A    
C124  C133  A    
C72   H5    S    
C121  C127  S    
C3    O39   A    
C63   H78   S    
Cu7   O13   S    
C101  C109  A    
C31   C40   A    
C80   C89   A    
C106  H37   S    
C89   C97   A    
C73   H11   S    
C108  C152  A    
C77   O5    A    
C3    C111  S    
Cu8   O5    S    
C71   N6    S    
Cu8   O22   S    
C92   H28   S    
C64   H83   S    
C26   C48   A    
C67   H95   S    
C3    O28   A    
C163  O37   A    
C54   H12   S    
Cu7   O34   S    
C34   C41   A    
C130  C139  A    
Cu12  O35   S    
C39   H1    S    
C98   H26   S    
C75   C96   A    
Cu6   Cu11  S    
Cu7   Cu10  S    
C57   H20   S    
C99   O13   A    
C2    H15   S    
C38   C158  S    
C42   H43   S    
Cu3   Cu4   S    
C58   N9    S    
Cu10  O25   S    
C70   H103  S    
C164  O38   A    
C130  C132  S    
C9    C14   A    
C134  C142  A    
H62   N11   S    
C12   C15   A    
C91   N15   S    
C64   N15   S    
C6    O31   A    
C60   H63   S    
Cu4   O29   S    
C126  C135  A    
C159  O24   A    
C121  O15   A    
Cu2   O41   S    
C66   H92   S    
C1    O9    A    
C88   O11   A    
C115  C124  A    
C56   H51   S    
C123  C131  A    
C4    C116  S    
C72   H7    S    
C109  C164  S    
C129  C143  S    
C27   C36   A    
C70   H105  S    
C21   C30   A    
C133  C141  A    
Cu7   O21   S    
C23   C32   A    
C41   H32   S    
C158  O22   A    
C161  O26   A    
C123  N5    S    
C23   C44   A    
C132  O4    A    
C35   C52   A    
H97   N4    S    
C65   N16   S    
Cu1   Cu9   S    
C82   C152  S    
Cu11  O17   S    
C153  O45   A    
C59   H60   S    
C4    O40   A    
C53   H2    S    
Cu3   O39   S    
C46   H19   S    
C80   C150  S    
C83   C92   A    
C33   C39   A    
C20   C154  A    
C79   C93   A    
C155  O44   A    
C140  H45   S    
C10   C17   A    
C61   H69   S    
C68   H22   S    
C159  O1    A    
C7    C115  S    
C122  N4    S    
C67   N3    S    
C58   H55   S    
C21   C43   A    
C28   C50   A    
C26   C34   A    
C62   H73   S    
C63   H79   S    
C129  C138  A    
C76   C147  S    
C78   C98   A    
C56   N1    S    
C136  C145  A    
C35   H18   S    
C143  O3    A    
C141  H46   S    
C48   H54   S    
C78   C86   A    
C61   H68   S    
C77   O10   A    
Cu8   O44   S    
C138  H42   S    
C64   H82   S    
C74   C97   A    
C22   C44   A    
C17   C24   A    
C22   C31   A    
H4    N7    S    
C70   N5    S    
C105  C114  A    
H84   N16   S    
C162  O36   A    
Cu1   O1    S    
C104  C113  A    
C5    C117  S    
H49   N1    S    
C128  C137  A    
C2    C49   A    
C32   C155  S    
C85   C94   A    
C164  O27   A    
C138  C147  A    
C69   H101  S    
C87   C96   A    
H53   N9    S    
Cu12  O31   S    
C161  O23   A    
H89   N2    S    
C135  C144  A    
C110  O2    A    
Cu5   Cu8   S    
C14   C16   A    
C81   C90   A    
Cu7   O4    S    
C69   H100  S    
C9    C44   A    
C158  O12   A    
H93   N3    S    
Cu9   O15   S    
Cu12  O40   S    
C66   H90   S    
Cu11  O26   S    
C5    O35   A    
C105  C149  A    
C1    O6    A    
Cu2   Cu12  S    
C56   H50   S    
C5    O41   A    
Cu9   O24   S    
C72   H6    S    
C102  C146  A    
C63   H77   S    
C107  H38   S    
C24   H17   S    
C85   N10   S    
C17   C19   A    
C90   C98   A    
C18   C20   A    
C32   C40   A    
C121  O48   A    
C144  H48   S    
C36   C160  S    
C71   H3    S    
C86   N11   S    
C110  O14   A    
C104  H35   S    
Cu10  O16   S    
Cu4   O37   S    
C122  C130  A    
C21   C52   A    
C136  H40   S    
