data_mof_unit_31118.cif
_audit_creation_date              2012-12-11T14:56:46-0500
_audit_creation_method            fapswitch 2.2
_symmetry_space_group_name_H-M    P1
_symmetry_Int_Tables_number       1
_space_group_crystal_system       triclinic
_cell_length_a                    10.538125
_cell_length_b                    10.730043
_cell_length_c                    17.109157
_cell_angle_alpha                 80.376972
_cell_angle_beta                  89.783367
_cell_angle_gamma                 119.709746
_cell_volume                      1648.15751957

loop_
_atom_site_label
_atom_site_type_symbol
_atom_type_description
_atom_site_fract_x
_atom_site_fract_y
_atom_site_fract_z
_atom_type_partial_charge
C1    C     C_R   0.222361 0.854129 0.128594 0.551617
C2    C     C_1   0.634450 0.310701 0.705245 -0.059533
C3    C     C_R   0.627334 0.716731 0.803734 -0.128758
C4    C     C_R   0.636643 0.280193 0.086224 0.558445
C5    C     C_R   0.615499 0.701866 0.725557 -0.148038
C6    C     C_R   0.669870 0.825981 0.664420 0.040229
C7    C     C_R   0.743649 0.967656 0.682035 -0.046696
C8    C     C_R   0.750521 0.980838 0.761540 -0.100213
C9    C     C_R   0.688396 0.855602 0.821987 0.065364
C10   C     C_R   0.082598 0.884249 0.789210 0.262216
C11   C     C_R   0.061264 0.874374 0.710351 -0.111942
C12   C     C_R   0.799342 0.420908 0.263432 -0.129395
C13   C     C_R   0.115881 0.803320 0.671087 -0.009530
C14   C     C_R   0.174960 0.724748 0.712974 -0.157996
C15   C     C_R   0.192531 0.729455 0.792713 -0.177451
C16   C     C_R   0.643632 0.856103 0.124342 0.559036
C17   C     C_R   0.152883 0.814660 0.829971 0.042727
C18   C     C_R   0.711355 0.772818 0.353344 0.561625
C19   C     C_R   0.689405 0.396841 0.394369 0.538715
C20   C     C_R   0.103660 0.810485 0.359173 0.545056
C21   C     C_R   0.677186 0.801304 0.584919 0.553719
C22   C     C_R   0.675325 0.376434 0.623516 0.548868
C23   C     C_R   0.789737 0.407546 0.184907 -0.135149
C24   C     C_R   0.090637 0.799100 0.588949 0.553942
C25   C     C_R   0.217175 0.858827 0.902043 0.562577
C26   C     C_R   0.613554 0.221498 0.858935 0.554914
C27   C     C_R   0.647623 0.867280 0.899433 0.551538
C28   C     C_R   0.525441 0.305458 0.204987 -0.125773
C29   C     C_R   0.535485 0.320768 0.283928 -0.135292
C30   C     C_R   0.671643 0.371905 0.314051 0.032108
C31   C     C_3   0.812186 0.104190 0.618192 -0.381242
C32   C     C_3   0.106941 0.107895 0.792115 -0.096740
C33   C     C_R   0.652051 0.342048 0.156640 0.026876
C34   C     C_1   0.685245 0.832442 0.201761 -0.030851
C35   C     C_1   0.703480 0.807972 0.270373 -0.032531
C36   C     C_1   0.180187 0.825648 0.211142 -0.044422
C37   C     C_1   0.151060 0.820056 0.279707 -0.043640
C38   C     C_1   0.620948 0.266992 0.775496 -0.056432
Cr1   Cr    Cr6+3 0.402240 0.783890 0.019450 1.018895
Cr2   Cr    Cr6+3 0.382360 0.097900 0.991800 1.025889
Cr3   Cr    Cr6+3 0.715380 0.118170 0.988700 1.028652
Cr4   Cr    Cr6+3 0.936650 0.882420 0.465510 1.015913
Cr5   Cr    Cr6+3 0.605770 0.565620 0.493360 1.017531
Cr6   Cr    Cr6+3 0.921340 0.550490 0.496380 1.010657
H1    H     H_    0.417708 0.255413 0.183743 0.145549
H2    H     H_    0.796979 0.088494 0.776253 0.127377
H3    H     H_    0.856974 0.203666 0.644552 0.145549
H4    H     H_    0.905891 0.112963 0.583106 0.149644
H5    H     H_    0.728988 0.103014 0.578222 0.149885
H6    H     H_    0.068003 0.127154 0.733561 0.097781
H7    H     H_    0.228246 0.155042 0.785262 0.129677
H8    H     H_    0.083162 0.167795 0.831400 0.142062
H9    H     H_    0.002075 0.923111 0.679654 0.149408
H10   H     H_    0.210866 0.663869 0.683679 0.134935
H11   H     H_    0.247162 0.675365 0.823277 0.149533
H12   H     H_    0.437457 0.288842 0.321779 0.133734
H13   H     H_    0.907339 0.469385 0.284487 0.145261
H14   H     H_    0.888677 0.439111 0.147953 0.138034
H15   H     H_    0.579441 0.619242 0.850144 0.138096
H16   H     H_    0.566399 0.592471 0.712959 0.140924
O1    O     O_R   0.521780 0.757110 0.108900 -0.504398
O2    O     O_R   0.805020 0.410040 0.421340 -0.523911
O3    O     O_R   0.049240 0.685450 0.403290 -0.502127
O4    O     O_R   0.275160 0.783810 0.101120 -0.493643
O5    O     O_R   0.077520 0.903010 0.551800 -0.529501
O6    O     O_R   0.802980 0.872780 0.546830 -0.505725
O7    O     O_R   0.578090 0.681300 0.569920 -0.520703
O8    O     O_R   0.608530 0.436370 0.586530 -0.499848
O9    O     O_R   0.798770 0.401880 0.597100 -0.521741
O10   O     O_R   0.043450 0.677890 0.566230 -0.492286
O11   O     O_3   0.821250 0.666180 0.485090 -0.273233
O12   O     O_R   0.513330 0.228330 0.898660 -0.503800
O13   O     O_R   0.237900 0.972600 0.090980 -0.509263
O14   O     O_R   0.511190 0.220540 0.061620 -0.505054
O15   O     O_R   0.736920 0.257720 0.063840 -0.511395
O16   O     O_R   0.710450 0.984050 0.081720 -0.489663
O17   O     O_R   0.524090 0.765520 0.933110 -0.528929
O18   O     O_R   0.277300 0.791600 0.938160 -0.522068
O19   O     O_R   0.240210 0.981010 0.915190 -0.484197
O20   O     O_3   0.031903 0.957627 0.827679 -0.549848
O21   O     O_R   0.739230 0.266130 0.888050 -0.507352
O22   O     O_R   0.712580 0.991850 0.918770 -0.517885
O23   O     O_3   0.499990 0.999980 0.999980 -0.275979
O24   O     O_R   0.083770 0.911170 0.376030 -0.513465
O25   O     O_R   0.808770 0.880340 0.383890 -0.488715
O26   O     O_R   0.584340 0.689460 0.394160 -0.500542
O27   O     O_R   0.614320 0.443940 0.423590 -0.517662

loop_
_geom_bond_atom_site_label_1
_geom_bond_atom_site_label_2
_ccdc_geom_bond_type
C23   H14   S    
C21   O6    A    
C26   O12   A    
C1    O13   A    
C24   O10   A    
C7    C8    A    
Cr1   O4    S    
C12   C23   A    
C18   O26   A    
Cr1   O17   S    
C28   C29   A    
Cr6   O2    S    
C19   O27   A    
C5    C6    A    
Cr3   O15   S    
C19   O2    A    
Cr3   O23   S    
Cr2   O13   S    
Cr6   O11   S    
C34   C35   T    
C32   H8    S    
C4    O15   A    
C16   C34   S    
C8    C9    A    
C23   C33   A    
C2    C22   S    
Cr4   O5    S    
Cr6   O10   S    
C18   C35   S    
C22   O9    A    
C4    O14   A    
C11   H9    S    
C16   O16   A    
C31   H3    S    
C13   C14   A    
C21   O7    A    
Cr2   O23   S    
C31   H5    S    
Cr6   O3    S    
Cr1   O1    S    
C28   H1    S    
C18   O25   A    
C7    C31   S    
C25   O18   A    
Cr1   O18   S    
Cr4   O24   S    
C10   O20   S    
C26   C38   S    
C3    C5    A    
C6    C21   S    
C13   C24   S    
C15   H11   S    
C32   H7    S    
C29   C30   A    
C3    C9    A    
C32   O20   S    
C2    C38   T    
Cr3   O21   S    
Cr2   O19   S    
Cr6   O9    S    
Cr4   O25   S    
C22   O8    A    
C24   O5    A    
C12   H13   S    
C14   H10   S    
C28   C33   A    
C26   O21   A    
C31   H4    S    
C20   O24   A    
C16   O1    A    
C1    O4    A    
C9    C27   S    
C15   C17   A    
C4    C33   S    
C36   C37   T    
Cr5   O11   S    
Cr2   O12   S    
C5    H16   S    
C12   C30   A    
C25   O19   A    
Cr5   O26   S    
C27   O22   A    
C27   O17   A    
C6    C7    A    
C29   H12   S    
Cr5   O8    S    
Cr5   O27   S    
C20   O3    A    
C17   C25   S    
Cr3   O16   S    
C20   C37   S    
C11   C13   A    
Cr3   O22   S    
Cr4   O11   S    
Cr2   O14   S    
C32   H6    S    
C8    H2    S    
C10   C11   A    
Cr1   O23   S    
Cr5   O7    S    
Cr4   O6    S    
C14   C15   A    
C10   C17   A    
C19   C30   S    
C1    C36   S    
C3    H15   S    
