data_mof_unit_49426.cif
_audit_creation_date              2012-12-10T17:28:35-0500
_audit_creation_method            fapswitch 2.2
_symmetry_space_group_name_H-M    P1
_symmetry_Int_Tables_number       1
_space_group_crystal_system       triclinic
_cell_length_a                    10.434498
_cell_length_b                    12.154417
_cell_length_c                    13.036951
_cell_angle_alpha                 91.687504
_cell_angle_beta                  91.454464
_cell_angle_gamma                 89.671803
_cell_volume                      1652.14436245

loop_
_atom_site_label
_atom_site_type_symbol
_atom_type_description
_atom_site_fract_x
_atom_site_fract_y
_atom_site_fract_z
_atom_type_partial_charge
Br1   Br    Br    0.578798 0.707822 0.186932 -0.598219
Br2   Br    Br    0.419220 0.292230 0.812571 -0.595559
C1    C     C_R   0.494085 0.519499 0.699550 0.892432
C2    C     C_R   0.526781 0.564803 0.129104 0.205883
C3    C     C_R   0.486022 0.447267 0.977195 0.083395
C4    C     C_R   0.511056 0.552826 0.022662 0.081274
C5    C     C_R   0.378366 0.951385 0.405364 -0.312647
C6    C     C_R   0.619294 0.048795 0.596779 -0.290299
C7    C     C_R   0.389218 0.837532 0.412985 0.345304
C8    C     C_R   0.611916 0.162692 0.586211 0.330440
C9    C     C_R   0.552349 0.860550 0.543230 0.243764
C10   C     C_R   0.445810 0.139484 0.458338 0.239090
C11   C     C_R   0.542157 0.977149 0.536425 0.010713
C12   C     C_R   0.505439 0.480484 0.300401 0.888317
C13   C     C_R   0.454802 0.023018 0.466213 0.011643
C14   C     C_R   0.739993 0.501962 0.485698 0.898034
C15   C     C_R   0.259905 0.498118 0.514222 0.895185
C16   C     C_R   0.894918 0.314056 0.393340 0.205200
C17   C     C_R   0.106125 0.687958 0.602903 0.228870
C18   C     C_R   0.945091 0.208367 0.412936 0.201631
C19   C     C_R   0.058305 0.793875 0.580121 0.214359
C20   C     C_R   0.038860 0.196778 0.490410 -0.253126
C21   C     C_R   0.962093 0.803956 0.504541 -0.270484
C22   C     C_R   0.095059 0.289040 0.539502 0.146122
C23   C     C_R   0.509130 0.471540 0.189751 -0.109285
C24   C     C_R   0.904206 0.711225 0.457907 0.148972
C25   C     C_R   0.055801 0.395852 0.510605 0.029981
C26   C     C_R   0.943654 0.604816 0.487747 0.031107
C27   C     C_R   0.942447 0.406385 0.452106 -0.014166
C28   C     C_R   0.057325 0.594676 0.545994 -0.010758
C29   C     C_R   0.123230 0.493140 0.538884 -0.199478
C30   C     C_R   0.876262 0.507424 0.460062 -0.200588
C31   C     C_3   0.799276 0.327972 0.305470 -0.827388
C32   C     C_3   0.200283 0.674127 0.691703 -0.847037
C33   C     C_3   0.895874 0.107163 0.355422 -0.905695
C34   C     C_R   0.489153 0.528470 0.810119 -0.111575
C35   C     C_3   0.110773 0.898671 0.629544 -0.916123
C36   C     C_3   0.181957 0.269738 0.631027 -0.731907
C37   C     C_3   0.815502 0.729587 0.367278 -0.729089
C38   C     C_3   0.353169 0.185481 0.379649 -0.859413
C39   C     C_3   0.646584 0.814400 0.620670 -0.862496
C40   C     C_3   0.711569 0.230216 0.645066 -0.752281
C41   C     C_3   0.297783 0.771668 0.344584 -0.771289
C42   C     C_R   0.518664 0.644644 0.960632 -0.156190
C43   C     C_R   0.478156 0.355494 0.039261 -0.155552
C44   C     C_R   0.509005 0.632259 0.855923 -0.269687
C45   C     C_R   0.488489 0.367835 0.143980 -0.271850
C46   C     C_R   0.470873 0.435249 0.870695 0.200382
H1    H     H_    0.930283 0.885092 0.482839 0.165386
H2    H     H_    0.772690 0.415201 0.293895 0.215625
H3    H     H_    0.841742 0.297485 0.232751 0.231566
H4    H     H_    0.222672 0.586602 0.706234 0.217952
H5    H     H_    0.290377 0.718076 0.676755 0.266105
H6    H     H_    0.158420 0.708945 0.763138 0.233541
H7    H     H_    0.949773 0.032406 0.377774 0.227862
H8    H     H_    0.793015 0.095024 0.371631 0.250742
H9    H     H_    0.907564 0.115752 0.271698 0.251279
H10   H     H_    0.030997 0.948441 0.661906 0.239251
H11   H     H_    0.181921 0.885126 0.692325 0.256092
H12   H     H_    0.069935 0.115375 0.511973 0.161030
H13   H     H_    0.158405 0.946811 0.570485 0.237997
H14   H     H_    0.132171 0.217858 0.686173 0.228516
H15   H     H_    0.270193 0.226150 0.606604 0.267565
H16   H     H_    0.207851 0.347848 0.672287 0.253240
H17   H     H_    0.864117 0.780804 0.310934 0.228329
H18   H     H_    0.788834 0.651117 0.327002 0.253264
H19   H     H_    0.727822 0.773510 0.392488 0.267362
H20   H     H_    0.255379 0.155022 0.392364 0.219252
H21   H     H_    0.344818 0.274405 0.381507 0.300791
H22   H     H_    0.382789 0.159183 0.301480 0.215764
H23   H     H_    0.308751 0.982226 0.350326 0.173759
H24   H     H_    0.655159 0.725506 0.618410 0.301119
H25   H     H_    0.744073 0.845064 0.606708 0.218679
H26   H     H_    0.618394 0.840201 0.699335 0.215828
H27   H     H_    0.786369 0.256694 0.592712 0.235883
H28   H     H_    0.670251 0.300674 0.687187 0.282596
H29   H     H_    0.762433 0.181444 0.704402 0.192554
H30   H     H_    0.313634 0.683156 0.342366 0.290003
H31   H     H_    0.198126 0.787202 0.369438 0.206416
H32   H     H_    0.305299 0.798275 0.264167 0.230485
H33   H     H_    0.689177 0.017293 0.651112 0.168567
H34   H     H_    0.477848 0.295315 0.189208 0.183199
H35   H     H_    0.519734 0.704808 0.810743 0.182911
H36   H     H_    0.533412 0.727332 0.990860 0.203337
H37   H     H_    0.462961 0.272864 0.009028 0.203994
H38   H     H_    0.711622 0.279977 0.319193 0.264099
N1    N     N_R   0.523130 0.207800 0.519340 -0.105497
N2    N     N_R   0.476870 0.792200 0.480660 -0.104252
O1    O     O_R   0.506170 0.421700 0.658830 -0.582190
O2    O     O_R   0.493830 0.578300 0.341170 -0.583264
O3    O     O_R   0.491330 0.609310 0.646410 -0.649176
O4    O     O_R   0.508670 0.390690 0.353590 -0.648656
O5    O     O_R   0.690650 0.406190 0.506220 -0.609228
O6    O     O_R   0.309350 0.593810 0.493780 -0.613962
O7    O     O_R   0.675800 0.593810 0.493800 -0.618295
O8    O     O_R   0.324200 0.406190 0.506200 -0.617255
Zn1   Zn    Zn3+2 0.509910 0.374730 0.508290 0.939428
Zn2   Zn    Zn3+2 0.490090 0.625270 0.491710 0.940491

loop_
_geom_bond_atom_site_label_1
_geom_bond_atom_site_label_2
_ccdc_geom_bond_type
C6    C11   A    
C8    C40   S    
C22   C25   A    
C2    C23   A    
O7    Zn2   S    
C41   H30   S    
C14   O5    A    
C38   H22   S    
C17   C19   A    
C27   C30   A    
C7    N2    A    
C20   H12   S    
C28   C29   A    
C24   C37   S    
C21   H1    S    
C25   C27   A    
O6    Zn2   S    
C41   H31   S    
C1    O3    A    
C21   C24   A    
C12   O2    A    
C32   H4    S    
C39   H26   S    
C18   C33   S    
C22   C36   S    
C34   C44   A    
C23   C45   A    
C35   H10   S    
C5    C13   A    
C12   C23   S    
C4    C42   A    
C37   H17   S    
C37   H19   S    
C42   C44   A    
O4    Zn1   S    
C36   H16   S    
C43   C45   A    
C3    C46   A    
C8    N1    A    
C7    C41   S    
C38   H21   S    
C25   C29   A    
C6    H33   S    
C26   C30   A    
C2    C4    A    
C15   O8    A    
Br2   C46   S    
C31   H2    S    
C3    C43   A    
C33   H7    S    
O1    Zn1   S    
C10   C38   S    
C43   H37   S    
C31   H38   S    
C10   C13   A    
C9    N2    A    
O8    Zn1   S    
C40   H27   S    
C16   C27   A    
C12   O4    A    
C35   H11   S    
C40   H29   S    
C39   H24   S    
C18   C20   A    
C32   H6    S    
C11   C13   A    
C15   C29   S    
C37   H18   S    
C20   C22   A    
C31   H3    S    
O5    Zn1   S    
C36   H15   S    
C5    C7    A    
C14   O7    A    
C10   N1    A    
C33   H8    S    
C40   H28   S    
C45   H34   S    
C42   H36   S    
C17   C32   S    
C35   H13   S    
C14   C30   S    
C24   C26   A    
C33   H9    S    
C1    O1    A    
Br1   C2    S    
C19   C21   A    
C41   H32   S    
C5    H23   S    
C9    C11   A    
C3    C4    A    
C1    C34   S    
C26   C28   A    
C34   C46   A    
C16   C18   A    
O3    Zn2   S    
C16   C31   S    
C39   H25   S    
C44   H35   S    
C19   C35   S    
C32   H5    S    
C6    C8    A    
C38   H20   S    
C9    C39   S    
C15   O6    A    
N1    Zn1   S    
C17   C28   A    
O2    Zn2   S    
N2    Zn2   S    
C36   H14   S    
