data_mof_unit_5690.cif
_audit_creation_date              2012-12-10T19:19:38-0500
_audit_creation_method            fapswitch 2.2
_symmetry_space_group_name_H-M    P1
_symmetry_Int_Tables_number       1
_space_group_crystal_system       triclinic
_cell_length_a                    15.729021
_cell_length_b                    15.770143
_cell_length_c                    14.971867
_cell_angle_alpha                 89.966338
_cell_angle_beta                  90.602157
_cell_angle_gamma                 90.11769
_cell_volume                      3713.54177313

loop_
_atom_site_label
_atom_site_type_symbol
_atom_type_description
_atom_site_fract_x
_atom_site_fract_y
_atom_site_fract_z
_atom_type_partial_charge
C1    C     C_R   0.499403 0.337938 0.500124 0.916598
C2    C     C_3   0.560897 0.050726 0.439609 -0.124266
C3    C     C_3   0.554264 0.952511 0.429860 -0.099110
C4    C     C_R   0.337565 0.499928 0.499576 0.897053
C5    C     C_1   0.497959 0.750346 0.500503 -0.217189
C6    C     C_3   0.488094 0.082925 0.503382 0.039820
C7    C     C_3   0.517904 0.950238 0.597500 -0.104137
C8    C     C_3   0.491506 0.916772 0.502345 0.060745
C9    C     C_3   0.396555 0.947275 0.481676 0.440873
C10   C     C_3   0.400010 0.047377 0.461720 0.476695
C11   C     C_1   0.495016 0.825314 0.501653 -0.028664
C12   C     C_3   0.083229 0.499276 0.499761 -0.030863
C13   C     C_1   0.490440 0.174465 0.501769 -0.106413
C14   C     C_1   0.494713 0.249500 0.500590 -0.244343
C15   C     C_3   0.528207 0.413405 0.053466 0.299609
C16   C     C_R   0.500250 0.661980 0.500010 0.908872
C17   C     C_3   0.562426 0.571350 0.051306 -0.178018
C18   C     C_3   0.558932 0.572650 0.945873 0.366911
C19   C     C_3   0.499998 0.502221 0.089585 -0.031907
C20   C     C_3   0.530135 0.413354 0.948298 0.319080
C21   C     C_3   0.498800 0.500734 0.909795 -0.028764
C22   C     C_3   0.406213 0.514592 0.945227 -0.354041
C23   C     C_3   0.973972 0.574361 0.529981 0.034947
C24   C     C_3   0.406027 0.520179 0.053403 0.469549
C25   C     C_1   0.498340 0.499324 0.809145 0.152985
C26   C     C_1   0.501522 0.502243 0.190707 0.232930
C27   C     C_R   0.662411 0.499956 0.500571 0.902819
C28   C     C_3   0.975073 0.438527 0.560531 -0.148592
C29   C     C_3   0.026620 0.422297 0.475850 0.357467
C30   C     C_1   0.248921 0.499592 0.498583 -0.178359
C31   C     C_1   0.751008 0.499485 0.502638 -0.182125
C32   C     C_3   0.031541 0.515122 0.584934 0.466863
C33   C     C_3   0.999868 0.284153 0.430646 0.080686
C34   C     C_3   0.916683 0.498465 0.506378 -0.008364
C35   C     C_3   0.032112 0.221049 0.361485 -0.321312
C36   C     C_3   0.966346 0.152117 0.341843 -0.990388
C37   C     C_3   0.372729 0.133707 0.329101 0.106600
C38   C     C_3   0.281415 0.124229 0.293824 -0.333916
C39   C     C_3   0.252196 0.204010 0.244843 -0.991205
C40   C     C_3   0.321032 0.847167 0.575317 0.113037
C41   C     C_3   0.231881 0.844737 0.614818 -0.360867
C42   C     C_3   0.204244 0.754024 0.636014 -0.929111
C43   C     C_3   0.413953 0.142734 0.690483 0.102797
C44   C     C_3   0.407839 0.137302 0.792190 -0.333779
C45   C     C_3   0.026163 0.560441 0.444466 -0.373972
C46   C     C_3   0.380223 0.221855 0.832032 -1.006671
C47   C     C_3   0.614152 0.329610 0.854535 0.102673
C48   C     C_3   0.701294 0.326266 0.810667 -0.288952
C49   C     C_3   0.704195 0.257947 0.738582 -0.986540
C50   C     C_3   0.613379 0.306684 0.119376 0.101003
C51   C     C_3   0.587671 0.301865 0.217641 -0.328874
C52   C     C_3   0.606850 0.215160 0.257687 -1.014268
C53   C     C_3   0.675941 0.640298 0.878124 0.040577
C54   C     C_3   0.649182 0.656962 0.780888 -0.323329
C55   C     C_3   0.693106 0.735415 0.743417 -0.953089
C56   C     C_3   0.969361 0.482862 0.421718 0.421331
C57   C     C_3   0.310374 0.395081 0.055366 0.074499
C58   C     C_3   0.224500 0.421490 0.014909 -0.341836
C59   C     C_3   0.179337 0.346404 0.971003 -0.962635
C60   C     C_3   0.987515 0.459967 0.270838 0.080221
C61   C     C_3   0.944122 0.419551 0.189566 -0.310323
C62   C     C_3   0.005725 0.409076 0.112556 -0.999704
C63   C     C_3   0.018535 0.523762 0.738586 0.109212
C64   C     C_3   0.055413 0.569266 0.820338 -0.338169
C65   C     C_3   0.999898 0.555929 0.902162 -0.986788
C66   C     C_1   0.173808 0.499328 0.498364 0.075842
C67   C     C_1   0.826079 0.499011 0.505294 0.051463
C68   C     C_3   0.503080 0.049367 0.603376 0.502536
H1    H     H_    0.526848 0.939397 0.362624 0.135274
H2    H     H_    0.938942 0.311527 0.405245 0.164082
H3    H     H_    0.577866 0.071803 0.716201 0.168079
H4    H     H_    0.633931 0.082512 0.622626 0.191007
H5    H     H_    0.987549 0.249693 0.493965 0.142511
H6    H     H_    0.046608 0.255236 0.298482 0.222507
H7    H     H_    0.091606 0.191050 0.386670 0.234394
H8    H     H_    0.951521 0.116353 0.403717 0.266711
H9    H     H_    0.991984 0.107262 0.291781 0.267823
H10   H     H_    0.907025 0.180636 0.314453 0.263500
H11   H     H_    0.647090 0.144448 0.475933 0.193889
H12   H     H_    0.688152 0.069365 0.413896 0.189007
H13   H     H_    0.672843 0.933438 0.376893 0.175543
H14   H     H_    0.474946 0.919809 0.646719 0.201104
H15   H     H_    0.631543 0.846693 0.418656 0.196340
H16   H     H_    0.304265 0.069298 0.560136 0.252019
H17   H     H_    0.330738 0.155148 0.503564 0.147196
H18   H     H_    0.414367 0.148296 0.271630 0.158055
H19   H     H_    0.378631 0.188933 0.374167 0.148141
H20   H     H_    0.277982 0.069571 0.247065 0.223187
H21   H     H_    0.237475 0.111533 0.349807 0.229924
H22   H     H_    0.254243 0.259569 0.290420 0.280462
H23   H     H_    0.185920 0.195320 0.220220 0.263792
H24   H     H_    0.293728 0.216102 0.186712 0.254188
H25   H     H_    0.540863 0.634306 0.075086 0.114363
H26   H     H_    0.366126 0.820344 0.625373 0.144874
H27   H     H_    0.321042 0.805355 0.515695 0.157005
H28   H     H_    0.230965 0.883032 0.677116 0.230930
H29   H     H_    0.185988 0.872958 0.566347 0.226022
H30   H     H_    0.202395 0.715087 0.574186 0.268968
H31   H     H_    0.139650 0.754584 0.665233 0.262334
H32   H     H_    0.248887 0.724674 0.684949 0.269923
H33   H     H_    0.352564 0.167052 0.663992 0.145621
H34   H     H_    0.462748 0.190741 0.673130 0.166206
H35   H     H_    0.360916 0.087651 0.810638 0.234580
H36   H     H_    0.530183 0.634167 0.925497 0.025963
H37   H     H_    0.470708 0.119468 0.820907 0.204392
H38   H     H_    0.424014 0.273258 0.811216 0.257645
H39   H     H_    0.380981 0.217658 0.906078 0.257653
H40   H     H_    0.314762 0.237729 0.809191 0.271459
H41   H     H_    0.299098 0.927705 0.389249 0.211619
H42   H     H_    0.395818 0.905754 0.346798 0.190324
H43   H     H_    0.565551 0.340233 0.801117 0.130470
H44   H     H_    0.601216 0.268054 0.888253 0.122467
H45   H     H_    0.715468 0.388831 0.779846 0.239208
H46   H     H_    0.750789 0.312845 0.862273 0.218780
H47   H     H_    0.371358 0.458943 0.920001 0.187965
H48   H     H_    0.691846 0.194576 0.768207 0.260990
H49   H     H_    0.768073 0.257436 0.707706 0.265170
H50   H     H_    0.655938 0.270910 0.685584 0.279479
H51   H     H_    0.994822 0.334991 0.638710 0.198073
H52   H     H_    0.898848 0.337567 0.588062 0.180463
H53   H     H_    0.680483 0.285749 0.113508 0.171406
H54   H     H_    0.574658 0.262451 0.077357 0.103270
H55   H     H_    0.623182 0.350786 0.256437 0.250669
H56   H     H_    0.518553 0.314770 0.223763 0.208620
H57   H     H_    0.570319 0.165082 0.221880 0.258219
H58   H     H_    0.479006 0.367275 0.075402 0.021776
H59   H     H_    0.588321 0.215440 0.328917 0.274435
H60   H     H_    0.675883 0.201079 0.253902 0.264893
H61   H     H_    0.683850 0.516930 0.052883 0.304853
H62   H     H_    0.681458 0.619759 0.079741 0.166708
H63   H     H_    0.746281 0.634391 0.881273 0.166694
H64   H     H_    0.659276 0.694876 0.921868 0.110644
H65   H     H_    0.665897 0.601169 0.739297 0.245506
H66   H     H_    0.579293 0.666387 0.776599 0.212242
H67   H     H_    0.676573 0.792260 0.783365 0.257694
H68   H     H_    0.671822 0.745765 0.673288 0.284351
H69   H     H_    0.483723 0.363572 0.926535 -0.044415
H70   H     H_    0.763188 0.726774 0.744349 0.256599
H71   H     H_    0.296791 0.346794 0.107167 0.168723
H72   H     H_    0.351759 0.361082 0.008098 0.093795
H73   H     H_    0.184075 0.447454 0.068654 0.230458
H74   H     H_    0.232516 0.471840 0.964268 0.216053
H75   H     H_    0.218310 0.320885 0.915802 0.268782
H76   H     H_    0.117177 0.367355 0.943028 0.271235
H77   H     H_    0.167925 0.295481 0.020782 0.264571
H78   H     H_    0.314964 0.612527 0.075610 0.202729
H79   H     H_    0.409315 0.654347 0.047312 0.128918
H80   H     H_    0.049133 0.609942 0.397779 0.168890
H81   H     H_    0.043386 0.420395 0.290039 0.167871
H82   H     H_    0.009713 0.524782 0.252967 0.144766
H83   H     H_    0.918838 0.356162 0.208334 0.225105
H84   H     H_    0.889963 0.459863 0.167376 0.238134
H85   H     H_    0.031089 0.471813 0.092068 0.269377
H86   H     H_    0.972130 0.379976 0.054596 0.271739
H87   H     H_    0.059103 0.367035 0.132883 0.272423
H88   H     H_    0.301842 0.593269 0.923688 0.188969
H89   H     H_    0.395618 0.642893 0.905285 0.180076
H90   H     H_    0.995172 0.691742 0.581183 0.199930
H91   H     H_    0.549910 0.077820 0.371829 0.181912
H92   H     H_    0.904057 0.646556 0.614551 0.173428
H93   H     H_    0.014605 0.454951 0.754074 0.168991
H94   H     H_    0.953534 0.548925 0.724866 0.131653
H95   H     H_    0.120296 0.544655 0.834961 0.232653
H96   H     H_    0.060318 0.638290 0.806090 0.221344
H97   H     H_    0.935298 0.582164 0.890030 0.266518
H98   H     H_    0.028873 0.588873 0.960545 0.263773
H99   H     H_    0.994678 0.487284 0.917832 0.270721
H100  H     H_    0.613137 0.931012 0.692042 0.164839
H101  H     H_    0.651205 0.952653 0.589237 0.244175
N1    N     N_1   0.498320 0.498630 0.731150 -0.114277
N2    N     N_3   0.363236 0.585521 0.899207 -0.458663
N3    N     N_3   0.942646 0.656548 0.559164 -0.435474
N4    N     N_3   0.603502 0.921049 0.623652 -0.462845
N5    N     N_3   0.574603 0.092807 0.650015 -0.484214
N6    N     N_1   0.501700 0.501360 0.268850 -0.109179
N7    N     N_3   0.646604 0.078771 0.466995 -0.457833
N8    N     N_3   0.638390 0.911426 0.431598 -0.419398
N9    N     N_3   0.322800 0.089783 0.497281 -0.449684
N10   N     N_3   0.358851 0.901906 0.404031 -0.476864
N11   N     N_3   0.943764 0.374500 0.622243 -0.479388
N12   N     N_3   0.649231 0.562216 0.087866 -0.389533
N13   N     N_3   0.380769 0.605612 0.083179 -0.436424
O1    O     O_R   0.500080 0.377210 0.574260 -0.620404
O2    O     O_3   0.401212 0.055860 0.366072 -0.706387
O3    O     O_3   0.343669 0.932942 0.557897 -0.648362
O4    O     O_3   0.427472 0.060187 0.654753 -0.651722
O5    O     O_3   0.613846 0.395835 0.918156 -0.549992
O6    O     O_3   0.609377 0.391639 0.089413 -0.602225
O7    O     O_3   0.641197 0.562635 0.908333 -0.592482
O8    O     O_3   0.349852 0.463738 0.100372 -0.645396
O9    O     O_3   0.927776 0.464934 0.340020 -0.642624
O10   O     O_3   0.073279 0.536440 0.665854 -0.641081
O11   O     O_R   0.499910 0.377070 0.425800 -0.619294
O12   O     O_R   0.376870 0.500060 0.574220 -0.601746
O13   O     O_R   0.376690 0.499920 0.425760 -0.606776
O14   O     O_R   0.500090 0.622930 0.574200 -0.616149
O15   O     O_R   0.499920 0.622790 0.425740 -0.608540
O16   O     O_R   0.623310 0.500080 0.574240 -0.622925
O17   O     O_R   0.623130 0.499940 0.425780 -0.604301
O18   O     O_3   0.063343 0.345979 0.445948 -0.646927
Zn1   Zn    Zn3+2 0.500120 0.500090 0.599130 0.958192
Zn2   Zn    Zn3+2 0.499880 0.499910 0.400870 0.979105

loop_
_geom_bond_atom_site_label_1
_geom_bond_atom_site_label_2
_ccdc_geom_bond_type
C25   N1    T    
C4    O13   A    
C35   H6    S    
C34   C56   S    
C23   C45   S    
C12   C29   S    
C63   H94   S    
C18   C21   S    
C51   H55   S    
C41   C42   S    
C35   C36   S    
C50   H54   S    
C17   N12   S    
C64   H96   S    
C50   O6    S    
C52   H60   S    
C7    C8    S    
C18   O7    S    
O13   Zn2   S    
C44   H37   S    
C4    O12   A    
C27   O16   A    
C38   H21   S    
C35   H7    S    
C55   H70   S    
H42   N10   S    
C28   C29   S    
C3    H1    S    
C37   O2    S    
C5    C11   T    
C9    O3    S    
C36   H9    S    
C42   H30   S    
C38   C39   S    
C55   H67   S    
C41   H28   S    
C63   O10   S    
C45   H80   S    
C65   H97   S    
C10   O2    S    
C62   H87   S    
C57   H71   S    
C19   C26   S    
C58   H74   S    
N1    Zn1   S    
C21   C25   S    
C36   H8    S    
C2    N7    S    
C7    C68   S    
C15   C19   S    
C52   H59   S    
C49   H49   S    
C23   N3    S    
C47   C48   S    
C45   C56   S    
C8    C9    S    
C5    C16   S    
C15   H58   S    
C46   H40   S    
O17   Zn2   S    
C53   H63   S    
H4    N5    S    
C9    C10   S    
C39   H22   S    
C22   N2    S    
C9    N10   S    
C29   O18   S    
C6    C68   S    
C56   O9    S    
C68   O4    S    
C13   C14   T    
C12   C32   S    
C51   H56   S    
C2    C6    S    
C50   H53   S    
C59   H75   S    
C64   H95   S    
C39   H23   S    
C44   H35   S    
C44   C46   S    
C50   C51   S    
C1    O1    A    
C15   C20   S    
H78   N13   S    
C24   N13   S    
C51   C52   S    
O1    Zn1   S    
C37   H18   S    
C28   C32   S    
C27   O17   A    
H12   N7    S    
C3    C8    S    
H15   N8    S    
H17   N9    S    
C60   H82   S    
C40   O3    S    
C43   O4    S    
C58   C59   S    
C53   C54   S    
O12   Zn1   S    
C12   C66   S    
C65   H98   S    
C55   H68   S    
O11   Zn2   S    
C62   H86   S    
C57   H72   S    
C38   H20   S    
C60   C61   S    
C10   N9    S    
C20   H69   S    
C1    O11   A    
C43   C44   S    
C43   H33   S    
C37   C38   S    
C16   O14   A    
C42   H32   S    
C61   H83   S    
H41   N10   S    
C49   H50   S    
H100  N4    S    
C48   C49   S    
C23   C34   S    
C46   H39   S    
C7    H14   S    
O16   Zn1   S    
C17   C18   S    
H92   N3    S    
O15   Zn2   S    
C53   H64   S    
C18   H36   S    
C46   H38   S    
H16   N9    S    
C28   N11   S    
C30   C66   T    
C33   H2    S    
C59   H77   S    
H79   N13   S    
C33   H5    S    
C22   H47   S    
C59   H76   S    
C27   C31   S    
C22   C24   S    
C17   H25   S    
H51   N11   S    
C2    H91   S    
C40   H27   S    
C47   O5    S    
C39   H24   S    
C48   H46   S    
C63   H93   S    
H61   N12   S    
C54   C55   S    
C40   C41   S    
C68   N5    S    
H11   N7    S    
C37   H19   S    
N6    Zn2   S    
C40   H26   S    
C12   C45   S    
H62   N12   S    
C34   C67   S    
C6    C10   S    
C52   H57   S    
H3    N5    S    
C29   C56   S    
C32   O10   S    
C15   O6    S    
C65   H99   S    
H88   N2    S    
C33   O18   S    
C62   H85   S    
C23   C32   S    
C2    C3    S    
H52   N11   S    
C43   H34   S    
H13   N8    S    
C57   O8    S    
C36   H10   S    
C42   H31   S    
H89   N2    S    
C6    C13   S    
C54   H65   S    
C58   H73   S    
H90   N3    S    
C57   C58   S    
C26   N6    T    
C8    C11   S    
C47   H43   S    
C7    N4    S    
C64   C65   S    
C33   C35   S    
C19   C24   S    
C41   H29   S    
C60   H81   S    
C3    N8    S    
C61   C62   S    
C61   H84   S    
C31   C67   T    
C28   C34   S    
C63   C64   S    
C17   C19   S    
C60   O9    S    
C49   H48   S    
C20   C21   S    
H101  N4    S    
C24   O8    S    
C1    C14   S    
O14   Zn1   S    
C21   C22   S    
C53   O7    S    
C4    C30   S    
C16   O15   A    
C47   H44   S    
C48   H45   S    
C20   O5    S    
C54   H66   S    
