data_mof_unit_22867.cif
_audit_creation_date              2012-12-11T15:29:41-0500
_audit_creation_method            fapswitch 2.2
_symmetry_space_group_name_H-M    P1
_symmetry_Int_Tables_number       1
_space_group_crystal_system       triclinic
_cell_length_a                    21.596492
_cell_length_b                    7.353772
_cell_length_c                    14.96789
_cell_angle_alpha                 90.000068
_cell_angle_beta                  72.913454
_cell_angle_gamma                 89.999745
_cell_volume                      2272.21367071

loop_
_atom_site_label
_atom_site_type_symbol
_atom_type_description
_atom_site_fract_x
_atom_site_fract_y
_atom_site_fract_z
_atom_type_partial_charge
O1    O     O_R   0.464160 0.506670 0.130070 -0.532993
O2    O     O_R   0.535840 0.006670 0.869930 -0.532989
O3    O     O_R   0.589710 0.179080 0.006710 -0.514060
O4    O     O_R   0.410290 0.679080 0.993290 -0.514054
C1    C     C_R   0.615698 0.343730 0.003622 0.835527
C2    C     C_R   0.384302 0.843732 0.996376 0.835497
O5    O     O_R   0.467940 0.177220 0.138010 -0.531214
O6    O     O_R   0.532060 0.677220 0.861990 -0.531218
O7    O     O_R   0.413200 0.002810 0.002170 -0.527220
O8    O     O_R   0.586800 0.502810 0.997830 -0.527198
C3    C     C_R   0.455977 0.345319 0.173922 0.777383
C4    C     C_R   0.544023 0.845318 0.826077 0.777374
O9    O     O_3   0.482180 0.337850 0.955280 -0.380960
O10   O     O_3   0.517820 0.837850 0.044720 -0.380948
V1    V     V_3+5 0.503310 0.064600 0.008300 1.675003
V2    V     V_3+5 0.496690 0.564600 0.991700 1.675005
C5    C     C_R   0.572165 0.852792 0.723813 -0.228557
C6    C     C_R   0.427834 0.352795 0.276187 -0.228555
C7    C     C_R   0.930369 0.867714 0.276852 -0.171746
C8    C     C_R   0.069631 0.367711 0.723148 -0.171749
C9    C     C_R   0.562065 0.860062 0.565337 0.453961
C10   C     C_R   0.437935 0.360054 0.434662 0.453962
C11   C     C_R   0.533225 0.874342 0.663383 0.220889
C12   C     C_R   0.466775 0.374339 0.336616 0.220882
C13   C     C_R   0.638983 0.827202 0.686878 0.421444
C14   C     C_R   0.361016 0.327212 0.313122 0.421446
C15   C     C_R   0.669319 0.846883 0.589570 -0.108209
C16   C     C_R   0.330680 0.346888 0.410430 -0.108208
C17   C     C_R   0.630146 0.833386 0.528636 -0.162302
C18   C     C_R   0.369855 0.333383 0.471364 -0.162306
C19   C     C_R   0.737762 0.871829 0.550662 -0.047946
C20   C     C_R   0.262238 0.371838 0.449339 -0.047951
C21   C     C_R   0.767420 0.822160 0.456313 -0.058079
C22   C     C_R   0.232580 0.322165 0.543688 -0.058083
C23   C     C_R   0.727608 0.744819 0.406628 0.233479
C24   C     C_R   0.272392 0.244819 0.593371 0.233482
C25   C     C_R   0.660754 0.779201 0.434962 0.363165
C26   C     C_R   0.339246 0.279199 0.565037 0.363162
C27   C     C_R   0.775888 0.954724 0.601892 0.329624
C28   C     C_R   0.224112 0.454741 0.398111 0.329638
C29   C     C_R   0.843745 0.966842 0.563772 0.292248
C30   C     C_R   0.156254 0.466853 0.436230 0.292247
C31   C     C_R   0.874256 0.908030 0.471132 -0.107621
C32   C     C_R   0.125744 0.408033 0.528869 -0.107623
C33   C     C_R   0.835238 0.850687 0.414942 0.003760
C34   C     C_R   0.164762 0.350691 0.585059 0.003757
C35   C     C_R   0.942650 0.915586 0.432138 0.406088
C36   C     C_R   0.057349 0.415581 0.567862 0.406092
C37   C     C_R   0.970571 0.902688 0.334277 0.280029
C38   C     C_R   0.029428 0.402677 0.665723 0.280023
C39   C     C_R   0.864125 0.839977 0.317418 -0.123822
C40   C     C_R   0.135875 0.339981 0.682582 -0.123823
H1    H     H_    0.834778 0.823122 0.270768 0.211235
H2    H     H_    0.165222 0.323129 0.729233 0.211241
C41   C     C_3   0.215778 0.657493 0.974447 0.427749
C42   C     C_3   0.784222 0.157493 0.025563 0.427783
C43   C     C_3   0.288117 0.649490 0.980547 0.447456
C44   C     C_3   0.711883 0.149486 0.019460 0.447462
C45   C     C_3   0.194442 0.907161 0.097880 0.091675
C46   C     C_3   0.805561 0.407126 0.902113 0.091663
C47   C     C_3   0.229969 0.990252 0.924651 0.092708
C48   C     C_3   0.770031 0.490257 0.075343 0.092670
C49   C     C_3   0.187313 0.856221 0.999897 -0.212823
C50   C     C_3   0.812687 0.356214 0.000102 -0.212850
H3    H     H_    0.221548 0.958150 0.857263 0.221210
H4    H     H_    0.778450 0.458162 0.142735 0.221215
C51   C     C_3   0.312803 0.846580 0.996912 -0.193420
C52   C     C_3   0.687198 0.346573 0.003085 -0.193407
C53   C     C_3   0.268261 0.921583 0.093901 0.546077
C54   C     C_3   0.731741 0.421559 0.906093 0.546068
C55   C     C_3   0.303580 0.961741 0.912841 0.077714
C56   C     C_3   0.696421 0.461750 0.087150 0.077754
H5    H     H_    0.322791 0.881350 0.847692 0.221914
H6    H     H_    0.677207 0.381371 0.152304 0.221907
H7    H     H_    0.169856 0.040675 0.118372 0.095000
H8    H     H_    0.830152 0.540625 0.881604 0.094953
O11   O     O_R   0.913210 0.208550 0.002110 -0.522446
O12   O     O_R   0.086790 0.708550 0.997890 -0.522441
O13   O     O_R   0.032060 0.539960 0.861980 -0.536512
O14   O     O_R   0.967940 0.039960 0.138020 -0.536514
C57   C     C_R   0.044574 0.373001 0.825857 0.722599
C58   C     C_R   0.955425 0.873002 0.174143 0.722590
O15   O     O_R   0.910290 0.538020 0.993280 -0.535055
O16   O     O_R   0.089710 0.038020 0.006720 -0.535052
O17   O     O_R   0.964160 0.712340 0.130090 -0.525494
O18   O     O_R   0.035840 0.212340 0.869910 -0.525494
C59   C     C_R   0.884207 0.369020 0.998494 0.795123
C60   C     C_R   0.115793 0.869021 0.001506 0.795132
O19   O     O_3   0.017820 0.379210 0.044690 -0.385771
O20   O     O_3   0.982180 0.879210 0.955310 -0.385773
V3    V     V_3+5 0.996690 0.652500 0.991710 1.571148
V4    V     V_3+5 0.003310 0.152500 0.008290 1.571149
Br1   Br    Br    0.614935 0.727796 0.344876 -0.309694
Br2   Br    Br    0.385065 0.227796 0.655124 -0.309666
O21   O     O_3   0.980984 0.934911 0.491295 -0.611665
H9    H     H_    0.027440 0.934262 0.455463 0.336373
O22   O     O_3   0.019016 0.434904 0.508704 -0.611665
H10   H     H_    0.972560 0.434250 0.544536 0.336371
O23   O     O_3   0.177714 0.532355 0.039421 -0.573190
H11   H     H_    0.152473 0.455430 0.008611 0.356190
O24   O     O_3   0.822285 0.032341 0.960597 -0.573184
H12   H     H_    0.847528 0.955432 0.991411 0.356198
Br3   Br    Br    0.211917 0.591659 0.846610 -0.531151
Br4   Br    Br    0.788080 0.091681 0.153404 -0.531148
O25   O     O_3   0.330189 0.579511 0.897001 -0.629752
H13   H     H_    0.316715 0.453189 0.890334 0.379160
O26   O     O_3   0.669809 0.079521 0.103008 -0.629751
H14   H     H_    0.683283 0.953202 0.109683 0.379173
Br5   Br    Br    0.294598 0.484721 0.080658 -0.394460
Br6   Br    Br    0.705404 0.984699 0.919353 -0.394462
O27   O     O_3   0.162025 0.779088 0.165264 -0.577273
H15   H     H_    0.156043 0.835108 0.227524 0.324991
O28   O     O_3   0.837973 0.279026 0.834742 -0.577263
H16   H     H_    0.843957 0.335024 0.772476 0.325003
O29   O     O_3   0.281210 0.824495 0.167684 -0.590808
H17   H     H_    0.260510 0.888274 0.227455 0.299098
O30   O     O_3   0.718790 0.324461 0.832314 -0.590808
H18   H     H_    0.739492 0.388230 0.772540 0.299107
O31   O     O_3   0.211118 0.172449 0.942149 -0.597141
H19   H     H_    0.224091 0.213469 0.996762 0.349379
O32   O     O_3   0.788883 0.672444 0.057835 -0.597142
H20   H     H_    0.775940 0.713406 0.003189 0.349360
O33   O     O_3   0.339566 0.123630 0.893210 -0.588651
H21   H     H_    0.334983 0.189231 0.951991 0.369357
O34   O     O_3   0.660436 0.623639 0.106769 -0.588650
H22   H     H_    0.665045 0.689265 0.047989 0.369388
O35   O     O_3   0.283928 0.102892 0.103723 -0.636895
H23   H     H_    0.252259 0.150566 0.161237 0.314938
O36   O     O_3   0.716077 0.602868 0.896262 -0.636891
H24   H     H_    0.747747 0.650535 0.838749 0.314925
O37   O     O_3   0.036472 0.931455 0.297879 -0.647571
H25   H     H_    0.049350 0.927810 0.228938 0.295957
O38   O     O_3   0.963526 0.431431 0.702120 -0.647576
H26   H     H_    0.950648 0.427784 0.771062 0.295948
O39   O     O_3   0.878113 0.054648 0.615404 -0.602490
H27   H     H_    0.903457 0.152454 0.575380 0.331266
O40   O     O_3   0.121885 0.554659 0.384599 -0.602483
H28   H     H_    0.096538 0.652459 0.424625 0.331267
O41   O     O_3   0.524995 0.876377 0.504508 -0.584257
H29   H     H_    0.478872 0.896189 0.539042 0.373771
O42   O     O_3   0.475006 0.376360 0.495490 -0.584257
H30   H     H_    0.521130 0.396164 0.460956 0.373771
O43   O     O_3   0.466728 0.896131 0.697127 -0.595195
H31   H     H_    0.453076 0.914284 0.765583 0.310891
O44   O     O_3   0.533272 0.396123 0.302872 -0.595201
H32   H     H_    0.546920 0.414339 0.234420 0.310900
O45   O     O_3   0.672120 0.763139 0.746394 -0.588334
H33   H     H_    0.709961 0.692421 0.709040 0.291433
O46   O     O_3   0.327878 0.263159 0.253605 -0.588336
H34   H     H_    0.290037 0.192445 0.290958 0.291432
Br7   Br    Br    0.757827 0.537068 0.327307 -0.479152
Br8   Br    Br    0.242174 0.037070 0.672693 -0.479148
O47   O     O_3   0.744988 0.041004 0.685079 -0.591291
H35   H     H_    0.776508 0.069835 0.719341 0.388182
O48   O     O_3   0.255013 0.541032 0.314927 -0.591288
H36   H     H_    0.223492 0.569898 0.280672 0.388182

loop_
_geom_bond_atom_site_label_1
_geom_bond_atom_site_label_2
_ccdc_geom_bond_type
C43   O25   S    
C3    C6    S    
O4    V2    S    
O24   H12   S    
C34   C40   A    
C49   C60   S    
C47   O31   S    
C56   H6    S    
C21   C33   A    
O15   C59   A    
O21   H9    S    
O1    C3    A    
O2    C4    A    
C2    O7    A    
O22   H10   S    
O17   V3    S    
O39   H27   S    
C27   C29   A    
O30   H18   S    
C36   C38   A    
O5    C3    A    
C36   O22   S    
C37   O37   S    
C5    C11   A    
C23   Br7   S    
C27   O47   S    
C6    C12   A    
C55   O33   S    
C23   C25   A    
C42   O24   S    
O36   H24   S    
C12   O44   S    
C51   C55   S    
C15   C17   A    
C33   C39   A    
C54   O30   S    
O12   C60   A    
O29   H17   S    
C41   Br3   S    
C18   C26   A    
C44   O26   S    
C47   C49   S    
C48   C50   S    
C43   Br5   S    
O45   H33   S    
C40   H2    S    
C41   C49   S    
C4    C5    S    
C8    C38   A    
O26   H14   S    
C42   C50   S    
C28   O48   S    
C22   C34   A    
C7    C58   S    
C50   C59   S    
O13   V3    S    
C57   O18   A    
C52   C56   S    
O33   H21   S    
C47   C55   S    
C28   C30   A    
O6    V2    S    
C8    C57   S    
C30   O40   S    
C29   C31   A    
C11   O43   S    
C46   O28   S    
C30   C32   A    
C43   C51   S    
C1    C52   S    
C32   C34   A    
O44   H32   S    
C42   C44   S    
C48   H4    S    
C15   C19   A    
C16   C20   A    
C42   Br4   S    
C35   C37   A    
C55   H5    S    
C24   Br8   S    
C9    C17   A    
C46   H8    S    
C54   O36   S    
C51   C53   S    
C20   C22   A    
O14   V4    S    
C7    C39   A    
C7    C37   A    
C45   O27   S    
O23   H11   S    
C46   C54   S    
O6    C4    A    
C6    C14   A    
C26   Br2   S    
C19   C21   A    
C25   Br1   S    
C13   O45   S    
O1    V2    S    
O19   V4    S    
O2    V1    S    
C31   C33   A    
C53   O35   S    
O32   H20   S    
C45   C53   S    
O4    C2    A    
C2    C51   S    
C41   C43   S    
O34   H22   S    
C10   C12   A    
C9    O41   S    
C17   C25   A    
O37   H25   S    
C45   H7    S    
C29   O39   S    
O3    V1    S    
O13   C57   A    
O28   H16   S    
O40   H28   S    
C44   C52   S    
C53   O29   S    
C10   C18   A    
O27   H15   S    
C44   Br6   S    
C45   C49   S    
C14   O46   S    
O16   C60   A    
O3    C1    A    
C38   O38   S    
O41   H29   S    
O12   V3    S    
C13   C15   A    
C58   O17   A    
O15   V3    S    
O25   H13   S    
C14   C16   A    
O11   V4    S    
C56   O34   S    
C46   C50   S    
C5    C13   A    
C9    C11   A    
O43   H31   S    
O7    V1    S    
C16   C18   A    
C8    C40   A    
C32   C36   A    
O8    V2    S    
O42   H30   S    
C24   C26   A    
O20   V3    S    
O38   H26   S    
C10   O42   S    
O5    V1    S    
C21   C23   A    
O14   C58   A    
C19   C27   A    
C22   C24   A    
C20   C28   A    
C48   C56   S    
C47   H3    S    
C1    O8    A    
O11   C59   A    
C52   C54   S    
O31   H19   S    
O9    V2    S    
C41   O23   S    
O48   H36   S    
C35   O21   S    
O10   V1    S    
O18   V4    S    
O16   V4    S    
C39   H1    S    
O47   H35   S    
O46   H34   S    
C31   C35   A    
C48   O32   S    
O35   H23   S    
