data_mof_unit_57098.cif
_audit_creation_date              2013-03-05T16:29:38-0500
_audit_creation_method            fapswitch 2.2
_symmetry_space_group_name_H-M    P1
_symmetry_Int_Tables_number       1
_space_group_crystal_system       triclinic
_cell_length_a                    28.448146
_cell_length_b                    18.24438
_cell_length_c                    18.261034
_cell_angle_alpha                 89.99729
_cell_angle_beta                  130.304939
_cell_angle_gamma                 89.769031
_cell_volume                      7227.80193228

loop_
_atom_site_label
_atom_site_type_symbol
_atom_site_description
_atom_site_fract_x
_atom_site_fract_y
_atom_site_fract_z
_atom_type_partial_charge
O1    O     O_R   0.500010 0.939400 0.392680 -0.611265
O2    O     O_R   0.499990 0.939400 0.607320 -0.610664
O3    O     O_R   0.000010 0.439400 0.392680 -0.614138
O4    O     O_R   0.999990 0.439400 0.607320 -0.610557
O5    O     O_R   0.499990 0.060580 0.392690 -0.582477
O6    O     O_R   0.500010 0.060580 0.607310 -0.583744
O7    O     O_R   0.999990 0.560580 0.392690 -0.582942
O8    O     O_R   0.000010 0.560580 0.607310 -0.583085
C1    C     C_R   0.499901 0.999974 0.358632 0.938500
C2    C     C_R   0.500071 0.999969 0.641339 0.938675
C3    C     C_R   0.999936 0.499975 0.358667 0.935977
C4    C     C_R   0.000073 0.499970 0.641341 0.939369
O9    O     O_R   0.591620 0.939400 0.591620 -0.646709
O10   O     O_R   0.408380 0.939400 0.408380 -0.645067
O11   O     O_R   0.091620 0.439400 0.591620 -0.645796
O12   O     O_R   0.908380 0.439400 0.408380 -0.646116
O13   O     O_R   0.591600 0.060580 0.591620 -0.557416
O14   O     O_R   0.408400 0.060580 0.408380 -0.560534
O15   O     O_R   0.091600 0.560580 0.591620 -0.558309
O16   O     O_R   0.908400 0.560580 0.408380 -0.560292
C5    C     C_R   0.620321 0.999688 0.621508 0.951851
C6    C     C_R   0.379634 0.000086 0.378373 0.950118
C7    C     C_R   0.120317 0.499677 0.621416 0.953507
C8    C     C_R   0.879645 0.500088 0.378396 0.946009
Zn1   Zn    Zn3+2 0.500000 0.919080 0.500000 1.123078
Zn2   Zn    Zn3+2 0.000000 0.419080 0.500000 1.119944
Zn3   Zn    Zn3+2 0.500000 0.080900 0.500000 1.196538
Zn4   Zn    Zn3+2 0.000000 0.580900 0.500000 1.197667
C9    C     C_R   0.651728 0.772920 0.774178 0.109576
C10   C     C_R   0.351143 0.773415 0.229456 0.106961
C11   C     C_R   0.151670 0.272586 0.773345 0.106819
C12   C     C_R   0.853469 0.273961 0.233618 0.106094
C13   C     C_R   0.674695 0.824562 0.746659 0.247583
C14   C     C_R   0.327402 0.825054 0.255987 0.252109
C15   C     C_R   0.174592 0.324383 0.745905 0.259712
C16   C     C_R   0.827885 0.325310 0.257268 0.250652
C17   C     C_R   0.687666 0.897004 0.783698 -0.188450
C18   C     C_R   0.313255 0.897255 0.217447 -0.186989
C19   C     C_R   0.187609 0.396748 0.783217 -0.189810
C20   C     C_R   0.813643 0.397285 0.217986 -0.186167
C21   C     C_R   0.676991 0.917073 0.847200 0.271459
C22   C     C_R   0.323469 0.917089 0.153351 0.267416
C23   C     C_R   0.176820 0.416666 0.846622 0.268884
C24   C     C_R   0.825303 0.417081 0.155600 0.269999
C25   C     C_R   0.657682 0.863055 0.878275 0.112107
C26   C     C_R   0.343872 0.863124 0.123670 0.114357
C27   C     C_R   0.157356 0.362565 0.877360 0.113754
C28   C     C_R   0.848033 0.363411 0.129268 0.106958
C29   C     C_R   0.644290 0.791735 0.840698 0.103874
C30   C     C_R   0.358452 0.792082 0.162785 0.105691
C31   C     C_R   0.144062 0.291276 0.839709 0.102074
C32   C     C_R   0.863065 0.292857 0.169765 0.109501
C33   C     C_R   0.783512 0.947936 0.826518 0.328864
C34   C     C_R   0.216965 0.947605 0.174594 0.322415
C35   C     C_R   0.283494 0.447878 0.826346 0.327713
C36   C     C_R   0.717041 0.447917 0.174038 0.323756
C37   C     C_R   0.813778 0.999814 0.813262 -0.179669
C38   C     C_R   0.186137 0.999917 0.186579 -0.157401
C39   C     C_R   0.313761 0.499818 0.813165 -0.183048
C40   C     C_R   0.686171 0.499768 0.186550 -0.159046
C41   C     C_R   0.781187 0.051477 0.738167 0.002322
C42   C     C_R   0.217987 0.053750 0.258521 -0.003130
C43   C     C_R   0.281159 0.551308 0.737841 0.002106
C44   C     C_R   0.718006 0.553155 0.259118 -0.001394
C45   C     C_R   0.717115 0.049445 0.672925 0.313360
C46   C     C_R   0.282095 0.052246 0.323581 0.293996
C47   C     C_R   0.217089 0.549239 0.672563 0.314087
C48   C     C_R   0.782116 0.551892 0.323961 0.295555
C49   C     C_R   0.686538 0.999143 0.687586 -0.176446
C50   C     C_R   0.313330 0.000381 0.311433 -0.172973
C51   C     C_R   0.186526 0.499059 0.687367 -0.170511
C52   C     C_R   0.813360 0.500349 0.311488 -0.173195
C53   C     C_R   0.719331 0.949306 0.765599 0.051059
C54   C     C_R   0.281065 0.949594 0.234900 0.050486
C55   C     C_R   0.219311 0.449168 0.765315 0.055606
C56   C     C_R   0.781158 0.449816 0.234660 0.051784
C57   C     C_R   0.817831 0.100222 0.654549 0.200463
C58   C     C_R   0.179430 0.100519 0.340287 0.194318
C59   C     C_R   0.318146 0.599459 0.654400 0.204275
C60   C     C_R   0.680381 0.597247 0.343065 0.198914
C61   C     C_R   0.844293 0.156346 0.638573 0.117234
C62   C     C_R   0.153783 0.156763 0.358110 0.126634
C63   C     C_R   0.345035 0.655255 0.638776 0.115710
C64   C     C_R   0.654311 0.652028 0.361885 0.116134
C65   C     C_R   0.867973 0.219401 0.696571 0.282251
C66   C     C_R   0.132900 0.222218 0.304318 0.273194
C67   C     C_R   0.368699 0.718408 0.696647 0.282340
C68   C     C_R   0.631499 0.717247 0.307606 0.285115
C69   C     C_R   0.863135 0.227162 0.767598 -0.285170
C70   C     C_R   0.139297 0.231787 0.235319 -0.287187
C71   C     C_R   0.363428 0.726574 0.767157 -0.284704
C72   C     C_R   0.636874 0.728425 0.237673 -0.283832
H1    H     H_    0.879572 0.276999 0.809403 0.231246
H2    H     H_    0.124318 0.283022 0.196074 0.232644
H3    H     H_    0.379812 0.776470 0.808848 0.230905
H4    H     H_    0.620488 0.779609 0.198229 0.229512
C73   C     C_R   0.835786 0.173043 0.783659 0.225312
C74   C     C_R   0.164850 0.177098 0.216245 0.225564
C75   C     C_R   0.335689 0.672765 0.782816 0.225014
C76   C     C_R   0.663276 0.675440 0.218067 0.225292
C77   C     C_R   0.813485 0.108458 0.727128 -0.125385
C78   C     C_R   0.184718 0.110292 0.268849 -0.126077
C79   C     C_R   0.313467 0.608088 0.726568 -0.124912
C80   C     C_R   0.684701 0.608559 0.270779 -0.124800
C81   C     C_1   0.500204 0.999932 0.282468 -0.056274
C82   C     C_1   0.499778 0.999917 0.717514 -0.061288
C83   C     C_1   0.000270 0.499950 0.282535 -0.052703
C84   C     C_1   0.999775 0.499924 0.717511 -0.060247
C85   C     C_1   0.500376 0.999992 0.217850 -0.014575
C86   C     C_1   0.499616 0.999973 0.782142 -0.017008
C87   C     C_1   0.000426 0.500053 0.217902 -0.005038
C88   C     C_1   0.999612 0.499990 0.782138 -0.014769
O17   O     O_R   0.999970 0.107360 0.060570 -0.600113
O18   O     O_R   0.000030 0.107360 0.939430 -0.612236
O19   O     O_R   0.499970 0.607360 0.060570 -0.609259
O20   O     O_R   0.500030 0.607360 0.939430 -0.610648
C89   C     C_R   0.000474 0.141277 0.000463 0.885469
C90   C     C_R   0.500443 0.641277 0.000431 0.888195
O21   O     O_R   0.908370 0.000030 0.968970 -0.568676
O22   O     O_R   0.091630 0.000030 0.031030 -0.563368
O23   O     O_R   0.408370 0.500030 0.968970 -0.569212
O24   O     O_R   0.591630 0.500030 0.031030 -0.563705
O25   O     O_R   0.908380 0.000000 0.847800 -0.612660
O26   O     O_R   0.091620 0.000000 0.152200 -0.612100
O27   O     O_R   0.408380 0.500000 0.847800 -0.612621
O28   O     O_R   0.591620 0.500000 0.152200 -0.615718
C91   C     C_R   0.879787 0.000545 0.879577 0.931055
C92   C     C_R   0.120170 0.000167 0.120399 0.950822
C93   C     C_R   0.379781 0.500594 0.879560 0.933257
C94   C     C_R   0.620183 0.500009 0.120399 0.951913
Zn5   Zn    Zn3+2 0.999980 0.000040 0.080910 1.185216
Zn6   Zn    Zn3+2 0.000020 0.000040 0.919090 1.168847
Zn7   Zn    Zn3+2 0.499980 0.500040 0.080910 1.167622
Zn8   Zn    Zn3+2 0.500020 0.500040 0.919090 1.166065
O29   O     O_R   0.000000 0.892710 0.060610 -0.590651
O30   O     O_R   0.000000 0.892710 0.939390 -0.593037
O31   O     O_R   0.500000 0.392710 0.060610 -0.590044
O32   O     O_R   0.500000 0.392710 0.939390 -0.593395
C95   C     C_R   0.999929 0.858784 0.999929 0.990533
C96   C     C_R   0.499934 0.358784 0.999934 0.992638
O33   O     O_R   0.551710 0.107310 0.051740 -0.595047
O34   O     O_R   0.448290 0.107310 0.948260 -0.596298
O35   O     O_R   0.051710 0.607310 0.051740 -0.595714
O36   O     O_R   0.948290 0.607310 0.948260 -0.596027
C97   C     C_R   0.499865 0.140946 0.999865 0.870746
C98   C     C_R   0.999865 0.640946 0.999865 0.869914
O37   O     O_R   0.551700 0.999990 0.159040 -0.596351
O38   O     O_R   0.448300 0.999990 0.840960 -0.595689
O39   O     O_R   0.051700 0.499990 0.159040 -0.591016
O40   O     O_R   0.948300 0.499990 0.840960 -0.594797
O41   O     O_R   0.448260 0.000000 0.055600 -0.561270
O42   O     O_R   0.551740 0.000000 0.944400 -0.560293
O43   O     O_R   0.948260 0.500000 0.055600 -0.563159
O44   O     O_R   0.051740 0.500000 0.944400 -0.561051
C99   C     C_R   0.500140 0.000079 0.141115 0.929774
C100  C     C_R   0.499858 0.000081 0.858884 0.932439
C101  C     C_R   0.000148 0.500167 0.141122 0.933598
C102  C     C_R   0.999858 0.500101 0.858883 0.932835
Zn9   Zn    Zn3+2 0.569060 0.999980 0.069070 1.220039
Zn10  Zn    Zn3+2 0.430940 0.999980 0.930930 1.217446
Zn11  Zn    Zn3+2 0.069060 0.499980 0.069070 1.220966
Zn12  Zn    Zn3+2 0.930940 0.499980 0.930930 1.218306
O45   O     O_R   0.551720 0.892660 0.051710 -0.586578
O46   O     O_R   0.448280 0.892660 0.948290 -0.583096
O47   O     O_R   0.051720 0.392660 0.051710 -0.589384
O48   O     O_R   0.948280 0.392660 0.948290 -0.583320
C103  C     C_R   0.500186 0.859035 0.000212 0.970162
C104  C     C_R   0.000188 0.359035 0.000169 0.974383
C105  C     C_1   0.000862 0.217742 0.000791 -0.081539
C106  C     C_1   0.500824 0.717742 0.000755 -0.083183
C107  C     C_1   0.500682 0.782556 0.000634 -0.048506
C108  C     C_1   0.000705 0.282556 0.000633 -0.049652
C109  C     C_1   0.999713 0.782284 0.999713 -0.041630
C110  C     C_1   0.499717 0.282284 0.999718 -0.043292
C111  C     C_1   0.499638 0.217458 0.999638 -0.073334
C112  C     C_1   0.999637 0.717458 0.999637 -0.072138
N1    N     N_R   0.628529 0.735885 0.876865 0.284516
O49   O     O_R   0.662374 0.677047 0.916408 -0.236051
O50   O     O_R   0.577324 0.740211 0.862049 -0.292685
N2    N     N_R   0.375317 0.736281 0.127996 0.285844
O51   O     O_R   0.341751 0.677754 0.087678 -0.234109
O52   O     O_R   0.427293 0.740199 0.145188 -0.288382
N3    N     N_R   0.128228 0.235334 0.875672 0.284993
O53   O     O_R   0.162088 0.176508 0.915219 -0.231668
O54   O     O_R   0.076949 0.239567 0.860646 -0.294648
N4    N     N_R   0.882999 0.237603 0.139176 0.290443
O55   O     O_R   0.847616 0.181981 0.089560 -0.233680
O56   O     O_R   0.939467 0.237321 0.172203 -0.237750
S1    S     S_3+6 0.903638 0.290255 0.681770 0.109669
O57   O     O_2   0.854895 0.344052 0.609042 -0.180113
O58   O     O_2   0.949912 0.329394 0.775285 -0.314684
O59   O     O_3   0.939375 0.257178 0.642929 -0.437403
H5    H     H_    0.966043 0.216933 0.688046 0.389468
S2    S     S_3+6 0.099188 0.294489 0.321697 0.112231
O60   O     O_2   0.050134 0.331245 0.227022 -0.276869
O61   O     O_2   0.070696 0.267119 0.362773 -0.174552
O62   O     O_3   0.153622 0.356600 0.396531 -0.474362
H6    H     H_    0.188569 0.327749 0.451723 0.395988
S3    S     S_3+6 0.404831 0.788919 0.682310 0.109648
O63   O     O_2   0.356348 0.842808 0.609310 -0.182820
O64   O     O_2   0.450960 0.828075 0.775871 -0.313021
O65   O     O_3   0.440865 0.755439 0.644144 -0.436486
H7    H     H_    0.467246 0.715070 0.689284 0.389461
S4    S     S_3+6 0.596317 0.786863 0.325598 0.113633
O66   O     O_2   0.645356 0.839230 0.399515 -0.181775
O67   O     O_2   0.549729 0.828091 0.233495 -0.308201
O68   O     O_3   0.561156 0.752120 0.364451 -0.432868
H8    H     H_    0.534578 0.712487 0.318667 0.389976
N5    N     N_R   0.829961 0.185751 0.855664 0.239923
O69   O     O_R   0.785742 0.156184 0.848937 -0.310578
O70   O     O_R   0.865058 0.233528 0.923329 -0.313993
N6    N     N_R   0.172644 0.192390 0.146949 0.237542
O71   O     O_R   0.175940 0.140101 0.102049 -0.338848
O72   O     O_R   0.172617 0.259827 0.123642 -0.273744
N7    N     N_R   0.329307 0.685845 0.854088 0.239981
O73   O     O_R   0.283649 0.658399 0.845012 -0.309353
O74   O     O_R   0.365166 0.732458 0.922963 -0.311880
N8    N     N_R   0.670046 0.692518 0.147919 0.237777
O75   O     O_R   0.676919 0.641482 0.105799 -0.338856
O76   O     O_R   0.666271 0.760185 0.121881 -0.277037
N9    N     N_R   0.636671 0.699969 0.736077 0.284970
O77   O     O_R   0.580991 0.675523 0.689279 -0.263905
O78   O     O_R   0.680270 0.654482 0.761294 -0.209400
N10   N     N_R   0.367080 0.700594 0.268653 0.284482
O79   O     O_R   0.423013 0.676285 0.315647 -0.266187
O80   O     O_R   0.324053 0.655080 0.244482 -0.208419
N11   N     N_R   0.136890 0.199587 0.735401 0.286499
O81   O     O_R   0.081379 0.174692 0.688990 -0.261581
O82   O     O_R   0.180620 0.154536 0.760137 -0.207523
N12   N     N_R   0.868737 0.201071 0.272539 0.282004
O83   O     O_R   0.925000 0.176931 0.322648 -0.236463
O84   O     O_R   0.825173 0.155472 0.245790 -0.211329
S5    S     S_3+6 0.687456 0.795505 0.667243 0.170722
O85   O     O_2   0.741822 0.744167 0.720961 -0.130220
O86   O     O_2   0.631629 0.754420 0.585116 -0.180056
O87   O     O_3   0.701755 0.863828 0.622293 -0.493912
H9    H     H_    0.661606 0.875325 0.558639 0.400207
S6    S     S_3+6 0.315209 0.796374 0.336153 0.171385
O88   O     O_2   0.261230 0.745155 0.283289 -0.127712
O89   O     O_2   0.371446 0.755281 0.418596 -0.183959
O90   O     O_3   0.300611 0.865048 0.380539 -0.495430
H10   H     H_    0.340222 0.874691 0.445514 0.402225
S7    S     S_3+6 0.187293 0.295657 0.666287 0.154995
O91   O     O_2   0.242344 0.245375 0.720268 -0.132799
O92   O     O_2   0.131932 0.253542 0.584850 -0.187195
O93   O     O_3   0.200356 0.364387 0.620150 -0.523731
H11   H     H_    0.160174 0.374303 0.555816 0.393418
S8    S     S_3+6 0.814043 0.296688 0.335463 0.171043
O94   O     O_2   0.760001 0.245544 0.281203 -0.128051
O95   O     O_2   0.869767 0.255526 0.418797 -0.182803
O96   O     O_3   0.798537 0.365385 0.378582 -0.494188
H12   H     H_    0.838017 0.375859 0.443382 0.401295
S9    S     S_3+6 0.691570 0.008325 0.893187 0.100935
O97   O     O_2   0.658188 0.023840 0.930029 -0.238519
O98   O     O_2   0.759652 0.016751 0.974081 -0.151353
O99   O     O_3   0.668331 0.070826 0.808019 -0.573619
H13   H     H_    0.682114 0.118531 0.841748 0.426887
S10   S     S_3+6 0.306661 0.007720 0.104293 0.103656
O100  O     O_2   0.341741 0.024225 0.070668 -0.233007
O101  O     O_2   0.238771 0.013158 0.020278 -0.150246
O102  O     O_3   0.325431 0.071545 0.185524 -0.577066
H14   H     H_    0.303549 0.116641 0.147701 0.426291
S11   S     S_3+6 0.191457 0.507811 0.892959 0.100535
O103  O     O_2   0.157650 0.523306 0.929091 -0.239197
O104  O     O_2   0.259478 0.515913 0.974469 -0.151014
O105  O     O_3   0.168837 0.570575 0.808361 -0.573820
H15   H     H_    0.182494 0.618181 0.842314 0.427479
S12   S     S_3+6 0.808102 0.507265 0.105127 0.103396
O106  O     O_2   0.846724 0.525034 0.078138 -0.244084
O107  O     O_2   0.741216 0.510222 0.016452 -0.146185
O108  O     O_3   0.821401 0.571875 0.182046 -0.572759
H16   H     H_    0.800339 0.616496 0.142376 0.427912
N13   N     N_R   0.658370 0.877754 0.956071 0.281694
O109  O     O_R   0.608093 0.872901 0.943760 -0.300095
O110  O     O_R   0.710357 0.890632 0.041436 -0.222135
N14   N     N_R   0.343325 0.877574 0.045942 0.279860
O111  O     O_R   0.393701 0.872052 0.058535 -0.300495
O112  O     O_R   0.291327 0.890168 0.960230 -0.227740
N15   N     N_R   0.157783 0.377150 0.954918 0.282120
O113  O     O_R   0.107354 0.372367 0.942185 -0.303185
O114  O     O_R   0.209649 0.390034 0.040426 -0.221963
N16   N     N_R   0.850446 0.377775 0.054483 0.274119
O115  O     O_R   0.901049 0.366260 0.069009 -0.307749
O116  O     O_R   0.799968 0.392842 0.968074 -0.227409
N17   N     N_R   0.817938 0.891234 0.898074 0.214936
O117  O     O_R   0.814128 0.883222 0.964859 -0.303890
O118  O     O_R   0.853205 0.847175 0.896181 -0.362568
N18   N     N_R   0.183216 0.890051 0.104814 0.213888
O119  O     O_R   0.148209 0.846796 0.107736 -0.362852
O120  O     O_R   0.187045 0.880802 0.038194 -0.304789
N19   N     N_R   0.317926 0.391177 0.897904 0.215380
O121  O     O_R   0.313985 0.383021 0.964530 -0.304308
O122  O     O_R   0.353292 0.347220 0.896123 -0.363299
N20   N     N_R   0.683350 0.390739 0.103641 0.214612
O123  O     O_R   0.647961 0.347382 0.105561 -0.362501
O124  O     O_R   0.687959 0.381594 0.037861 -0.303439
N21   N     N_R   0.683163 0.097319 0.590588 0.218141
O125  O     O_R   0.688472 0.168098 0.601545 -0.301794
O126  O     O_R   0.647242 0.070014 0.504396 -0.354941
N22   N     N_R   0.315357 0.101346 0.404180 0.217880
O127  O     O_R   0.309448 0.171945 0.390691 -0.315308
O128  O     O_R   0.350668 0.075361 0.491293 -0.351994
N23   N     N_R   0.183125 0.596893 0.590010 0.217934
O129  O     O_R   0.188480 0.667696 0.600630 -0.300931
O130  O     O_R   0.147179 0.569353 0.503949 -0.352460
N24   N     N_R   0.815375 0.600867 0.404705 0.218605
O131  O     O_R   0.808834 0.671474 0.391394 -0.305880
O132  O     O_R   0.851163 0.574756 0.491772 -0.351288
N25   N     N_R   0.793008 0.036266 0.594285 0.254007
O133  O     O_R   0.756092 0.043090 0.501309 -0.235339
O134  O     O_R   0.806725 0.970969 0.631911 -0.295511
N26   N     N_R   0.203380 0.035253 0.398750 0.253508
O135  O     O_R   0.239900 0.040146 0.491845 -0.239278
O136  O     O_R   0.189392 0.970727 0.359527 -0.296138
N27   N     N_R   0.293244 0.535469 0.594195 0.253429
O137  O     O_R   0.256591 0.542240 0.501234 -0.235457
O138  O     O_R   0.306566 0.470210 0.631833 -0.309779
N28   N     N_R   0.705590 0.531819 0.401150 0.254015
O139  O     O_R   0.743234 0.536364 0.494354 -0.236653
O140  O     O_R   0.691422 0.467496 0.361368 -0.295782
N29   N     N_R   0.845942 0.149546 0.562199 0.265097
O141  O     O_R   0.812886 0.193564 0.488764 -0.183921
O142  O     O_R   0.874322 0.094432 0.560360 -0.262946
N30   N     N_R   0.150176 0.147418 0.432153 0.277519
O143  O     O_R   0.185255 0.186283 0.510011 -0.237308
O144  O     O_R   0.118717 0.093502 0.427938 -0.236187
N31   N     N_R   0.347262 0.647945 0.563041 0.264587
O145  O     O_R   0.315096 0.692250 0.489808 -0.183629
O146  O     O_R   0.375422 0.592308 0.561643 -0.265368
N32   N     N_R   0.652261 0.641578 0.437465 0.262500
O147  O     O_R   0.684850 0.683431 0.512777 -0.183162
O148  O     O_R   0.624025 0.585215 0.436574 -0.266755

loop_
_geom_bond_atom_site_label_1
_geom_bond_atom_site_label_2
_geom_bond_distance
_ccdc_geom_bond_type
C75   C79   1.418851 A    
Zn7   O31   1.993033 S    
C67   C71   1.397201 A    
O44   Zn11  1.993614 S    
C62   N30   1.430860 S    
N19   O121  1.300586 A    
C35   N19   1.439765 S    
N23   O130  1.301196 A    
S8    O94   1.502319 D    
O29   C95   1.268130 A    
N16   O115  1.300130 A    
C88   C102  1.396935 S    
C17   C21   1.423289 A    
O44   C102  1.278767 A    
C35   C39   1.404256 A    
S2    O62   1.681115 S    
C61   N29   1.430840 S    
O108  H16   0.990457 S    
C9    C13   1.413074 A    
C76   C80   1.421910 A    
O38   Zn10  1.998215 S    
C12   C32   1.401983 A    
C34   C54   1.393510 A    
C57   C77   1.416464 A    
O42   C100  1.278757 A    
C45   N21   1.439021 S    
N30   O143  1.300128 A    
C98   C112  1.395902 S    
C50   C54   1.414797 A    
O41   C99   1.278742 A    
O4    C4    1.267010 A    
O37   C99   1.279626 A    
O33   C97   1.278434 A    
S3    O63   1.502087 D    
C27   N15   1.433397 S    
C29   N1    1.436056 S    
O31   C96   1.268129 A    
S6    O89   1.504108 D    
N32   O147  1.300097 A    
S11   O103  1.502996 D    
C66   C70   1.395725 A    
C4    C84   1.396435 S    
C10   C14   1.413047 A    
C103  C107  1.395282 S    
O16   Zn4   2.023519 S    
C74   C78   1.421172 A    
O13   C5    1.270960 A    
O7    Zn4   1.994190 S    
C20   C56   1.490703 S    
C47   N23   1.439017 S    
O15   C7    1.271074 A    
N7    O73   1.300793 A    
C58   C62   1.411557 A    
C33   N17   1.439744 S    
N11   O81   1.301061 A    
C48   C52   1.407627 A    
O19   C90   1.268168 A    
N24   O131  1.301020 A    
O9    C5    1.266943 A    
N12   O84   1.300709 A    
O32   C96   1.268106 A    
S12   O107  1.502880 D    
O8    Zn4   1.994153 S    
N22   O127  1.301006 A    
C36   N20   1.440004 S    
S11   O104  1.502650 D    
C39   C93   1.432446 S    
C39   C43   1.406098 A    
O3    Zn2   1.994695 S    
C64   C68   1.407449 A    
C19   C23   1.423276 A    
C37   C41   1.405878 A    
C31   N3    1.436030 S    
C40   C44   1.406978 A    
N17   O118  1.300876 A    
C46   C50   1.407972 A    
C46   N22   1.438503 S    
O20   C90   1.267721 A    
N15   O114  1.301044 A    
C14   S6    1.787567 S    
O3    C3    1.267029 A    
O27   C93   1.268380 A    
C28   C32   1.404651 A    
N6    O71   1.299985 A    
N29   O141  1.299968 A    
C21   C25   1.415134 A    
N4    O55   1.300904 A    
C65   S1    1.771654 S    
O35   Zn11  1.992051 S    
Zn11  O47   1.995766 S    
C24   C28   1.416087 A    
C57   N25   1.439669 S    
C15   S7    1.788078 S    
O25   Zn6   2.024969 S    
O45   C103  1.278168 A    
C9    C29   1.403606 A    
C73   N5    1.446294 S    
C12   C16   1.412471 A    
C48   N24   1.438663 S    
N19   O122  1.300875 A    
O102  H14   0.990483 S    
C106  C107  1.182486 T    
C1    C81   1.396432 S    
C21   S9    1.789968 S    
C72   H4    1.081756 S    
N26   O135  1.301226 A    
O90   H10   0.990187 S    
S1    O58   1.502811 D    
C110  C111  1.182713 T    
O24   Zn8   2.019518 S    
N28   O140  1.300951 A    
O5    Zn3   1.994190 S    
N8    O76   1.301745 A    
O33   Zn9   1.992051 S    
N1    O50   1.300215 A    
S3    O65   1.681968 S    
O21   Zn5   2.019521 S    
C19   C55   1.491039 S    
S5    O85   1.502337 D    
O8    C4    1.267860 A    
C35   C55   1.394130 A    
O42   Zn9   1.993614 S    
C76   N8    1.447324 S    
O48   C104  1.279556 A    
N21   O126  1.301201 A    
C59   C79   1.416357 A    
N12   O83   1.301013 A    
C32   N4    1.433542 S    
N13   O109  1.299676 A    
N25   O134  1.301102 A    
C42   C46   1.390978 A    
C63   N31   1.431011 S    
O13   Zn3   2.019635 S    
C97   C111  1.395902 S    
N31   O146  1.301014 A    
C5    C49   1.436616 S    
N18   O120  1.300622 A    
C41   C77   1.487588 S    
O5    C1    1.267865 A    
N9    O77   1.301039 A    
C41   C45   1.390785 A    
O25   C91   1.268489 A    
Zn6   O30   1.993003 S    
S7    O93   1.681969 S    
N5    O69   1.301560 A    
N14   O112  1.301029 A    
C68   S4    1.771446 S    
O15   Zn4   2.019635 S    
O17   C89   1.268166 A    
N11   O82   1.300746 A    
C58   N26   1.440188 S    
C2    C82   1.396437 S    
C13   S5    1.787616 S    
C8    C52   1.438038 S    
C18   C54   1.490812 S    
C44   C80   1.489336 S    
C81   C85   1.183161 T    
O93   H11   0.990223 S    
O14   C6    1.270925 A    
C83   C87   1.183163 T    
C11   C31   1.403769 A    
C37   C91   1.432202 S    
S9    O99   1.679216 S    
N16   O116  1.301107 A    
O10   C6    1.267989 A    
S10   O100  1.502922 D    
C22   S10   1.790133 S    
C38   C92   1.431131 S    
C66   S2    1.772753 S    
C23   S11   1.790106 S    
O39   C101  1.279468 A    
C25   N13   1.433370 S    
N13   O110  1.301042 A    
C69   H1    1.081577 S    
O62   H6    0.990294 S    
S5    O87   1.681966 S    
O18   C89   1.267736 A    
C71   H3    1.081657 S    
C89   C105  1.395124 S    
C20   C24   1.424121 A    
S4    O66   1.501901 D    
N30   O144  1.300934 A    
C64   N32   1.431359 S    
C71   C75   1.402284 A    
C6    C50   1.438441 S    
C61   C65   1.407940 A    
C42   C78   1.489463 S    
O21   C91   1.268361 A    
O27   Zn8   2.024969 S    
C38   C42   1.406715 A    
O35   C98   1.278437 A    
C63   C67   1.408371 A    
C58   C78   1.417844 A    
C67   S3    1.771668 S    
C60   C64   1.410970 A    
N10   O79   1.301043 A    
O96   H12   0.990232 S    
C9    N9    1.434615 S    
S6    O90   1.682459 S    
N32   O148  1.301023 A    
C60   C80   1.417810 A    
Zn10  O46   1.991831 S    
C82   C86   1.183159 T    
N20   O123  1.300970 A    
O20   Zn8   1.992888 S    
O28   C94   1.268058 A    
C34   N18   1.439999 S    
S7    O91   1.502336 D    
C22   C26   1.415101 A    
Zn12  O48   1.991831 S    
S8    O95   1.504035 D    
N24   O132  1.301236 A    
N15   O113  1.299712 A    
C49   C53   1.414272 A    
O17   Zn5   1.992851 S    
C52   C56   1.414806 A    
O26   C92   1.267731 A    
S2    O60   1.502393 D    
C10   C30   1.403398 A    
N27   O137  1.301234 A    
O22   Zn6   2.019518 S    
O34   C97   1.279026 A    
C59   N27   1.439688 S    
O30   C95   1.268104 A    
N22   O128  1.301222 A    
C70   H2    1.081922 S    
C12   N12   1.434605 S    
O12   Zn2   2.020066 S    
O40   Zn12  1.998215 S    
N18   O119  1.300946 A    
O68   H8    0.990022 S    
C7    C51   1.436443 S    
O1    C1    1.267004 A    
C43   C79   1.487503 S    
O65   H7    0.990111 S    
C65   C69   1.397163 A    
C27   C31   1.405346 A    
O19   Zn7   1.992851 S    
C62   C66   1.408233 A    
C74   N6    1.446281 S    
C13   C17   1.421826 A    
C84   C88   1.183159 T    
C15   C19   1.421992 A    
N17   O117  1.300596 A    
S4    O68   1.681933 S    
C57   C61   1.410858 A    
O36   C98   1.279021 A    
N6    O72   1.301683 A    
C11   C15   1.413164 A    
O39   Zn11  1.998215 S    
N4    O56   1.300326 A    
C44   C48   1.390932 A    
N2    O51   1.301094 A    
S6    O88   1.502345 D    
C33   C37   1.404261 A    
O40   C102  1.279599 A    
O46   C103  1.279499 A    
O23   C93   1.268604 A    
C23   C27   1.415051 A    
O6    C2    1.267872 A    
O4    Zn2   1.994731 S    
O22   C92   1.268206 A    
O43   Zn12  1.993615 S    
N3    O54   1.300222 A    
C87   C101  1.396964 S    
N31   O145  1.299974 A    
O41   Zn10  1.993615 S    
C59   C63   1.411163 A    
S9    O97   1.503000 D    
C45   C49   1.406489 A    
N26   O136  1.300910 A    
O2    Zn1   1.994731 S    
C47   C51   1.406298 A    
O10   Zn1   2.020066 S    
O43   C101  1.278896 A    
S1    O57   1.502119 D    
C85   C99   1.396931 S    
C86   C100  1.396928 S    
C36   C40   1.404013 A    
C104  C108  1.395305 S    
S12   O106  1.502855 D    
N1    O49   1.301120 A    
S3    O64   1.502854 D    
O38   C100  1.279612 A    
C60   N28   1.439831 S    
S11   O105  1.679194 S    
C51   C55   1.414225 A    
C36   C56   1.393516 A    
C11   N11   1.434682 S    
N21   O125  1.301096 A    
N3    O53   1.301104 A    
O37   Zn9   1.998215 S    
C24   S12   1.790541 S    
N25   O133  1.301237 A    
O87   H9    0.990033 S    
O7    C3    1.267838 A    
C18   C22   1.423435 A    
Zn5   O29   1.993033 S    
N7    O74   1.301133 A    
C90   C106  1.395124 S    
O16   C8    1.270773 A    
O28   Zn7   2.024958 S    
N29   O142  1.300995 A    
C25   C29   1.405348 A    
S8    O96   1.682365 S    
O11   C7    1.266704 A    
O12   C8    1.267884 A    
N23   O129  1.301090 A    
O1    Zn1   1.994695 S    
O9    Zn1   2.023946 S    
C43   C47   1.390773 A    
N27   O138  1.301109 A    
C68   C72   1.395951 A    
C16   C20   1.422211 A    
C40   C94   1.431610 S    
S9    O98   1.502677 D    
C28   N16   1.435196 S    
O11   Zn2   2.023946 S    
C10   N10   1.434644 S    
S7    O92   1.504037 D    
C26   N14   1.433777 S    
O26   Zn5   2.024958 S    
C69   C73   1.402715 A    
S1    O59   1.681913 S    
S10   O101  1.502918 D    
N28   O139  1.301240 A    
O6    Zn3   1.994153 S    
S12   O108  1.679823 S    
O99   H13   0.990441 S    
S2    O61   1.502910 D    
N14   O111  1.299719 A    
S5    O86   1.503876 D    
S4    O67   1.503049 D    
O47   C104  1.278104 A    
C3    C83   1.396414 S    
C16   S8    1.787647 S    
C105  C108  1.182474 T    
Zn9   O45   1.995766 S    
C95   C109  1.395744 S    
S10   O102  1.679827 S    
O2    C2    1.266999 A    
C72   C76   1.403156 A    
C34   C38   1.403401 A    
C109  C112  1.182713 T    
C17   C53   1.491067 S    
N2    O52   1.300111 A    
O36   Zn12  1.995988 S    
C14   C18   1.421865 A    
O18   Zn6   1.992888 S    
C33   C53   1.394195 A    
O14   Zn3   2.023519 S    
O34   Zn10  1.995988 S    
N10   O80   1.300720 A    
Zn8   O32   1.993003 S    
C26   C30   1.405142 A    
O59   H5    0.990102 S    
N9    O78   1.300721 A    
N20   O124  1.300611 A    
N8    O75   1.299978 A    
C75   N7    1.445405 S    
N5    O70   1.301751 A    
O24   C94   1.268129 A    
O105  H15   0.990379 S    
C30   N2    1.435496 S    
C96   C110  1.395741 S    
O23   Zn7   2.019521 S    
C70   C74   1.402526 A    
C73   C77   1.419662 A    
