data_mof_unit_47250.cif
_audit_creation_date              2012-12-11T15:26:58-0500
_audit_creation_method            fapswitch 2.2
_symmetry_space_group_name_H-M    P1
_symmetry_Int_Tables_number       1
_space_group_crystal_system       triclinic
_cell_length_a                    13.96841
_cell_length_b                    13.968394
_cell_length_c                    27.409506
_cell_angle_alpha                 89.999989
_cell_angle_beta                  90.0
_cell_angle_gamma                 119.999958
_cell_volume                      4631.54058757

loop_
_atom_site_label
_atom_site_type_symbol
_atom_type_description
_atom_site_fract_x
_atom_site_fract_y
_atom_site_fract_z
_atom_type_partial_charge
C1    C     C_R   0.233675 0.787758 0.568308 0.548798
C2    C     C_R   0.212242 0.445917 0.568308 0.548798
C3    C     C_R   0.554083 0.766325 0.568308 0.548798
C4    C     C_3   0.647057 0.732427 0.788433 0.093669
C5    C     C_3   0.267570 0.914633 0.788433 0.093668
C6    C     C_3   0.085373 0.352946 0.788434 0.093667
C7    C     C_3   0.633919 0.722358 0.731990 -0.211035
C8    C     C_3   0.277638 0.911569 0.731989 -0.211022
C9    C     C_3   0.088434 0.366076 0.731990 -0.211015
C10   C     C_1   0.715027 0.865797 0.857488 0.038645
C11   C     C_1   0.134201 0.849229 0.857488 0.038645
C12   C     C_1   0.150772 0.284974 0.857488 0.038644
C13   C     C_1   0.638669 0.820571 0.656393 -0.008719
C14   C     C_1   0.179428 0.818096 0.656393 -0.008720
C15   C     C_1   0.181906 0.361336 0.656394 -0.008720
C16   C     C_1   0.607265 0.800271 0.614784 0.020756
C17   C     C_1   0.199729 0.806993 0.614784 0.020756
C18   C     C_1   0.193008 0.392738 0.614785 0.020753
C19   C     C_R   0.106575 0.219420 0.948695 0.550641
C20   C     C_R   0.780580 0.887155 0.948695 0.550641
C21   C     C_R   0.112845 0.893425 0.948695 0.550641
C22   C     C_R   0.614310 0.807192 0.385621 0.025638
C23   C     C_R   0.192808 0.807121 0.385622 0.025639
C24   C     C_R   0.192880 0.385688 0.385622 0.025639
C25   C     C_R   0.608606 0.891812 0.360451 -0.125833
C26   C     C_R   0.108183 0.716797 0.360452 -0.125832
C27   C     C_R   0.283205 0.391390 0.360452 -0.125832
C28   C     C_R   0.637191 0.910551 0.311559 -0.123076
C29   C     C_R   0.089442 0.726646 0.311560 -0.123076
C30   C     C_R   0.273357 0.362801 0.311560 -0.123076
C31   C     C_R   0.674081 0.846593 0.287445 0.036468
C32   C     C_R   0.153404 0.827495 0.287447 0.036468
C33   C     C_R   0.172506 0.325910 0.287447 0.036467
C34   C     C_R   0.233258 0.787523 0.431583 0.539056
C35   C     C_R   0.212477 0.445734 0.431583 0.539056
C36   C     C_R   0.554266 0.766743 0.431583 0.539056
C37   C     C_R   0.690845 0.770090 0.313879 -0.120488
C38   C     C_R   0.229913 0.920760 0.313880 -0.120489
C39   C     C_R   0.079240 0.309149 0.313880 -0.120488
C40   C     C_R   0.660459 0.749959 0.362708 -0.127438
C41   C     C_R   0.250044 0.910503 0.362708 -0.127436
C42   C     C_R   0.089497 0.339538 0.362708 -0.127437
C43   C     C_R   0.655429 0.759443 0.206313 -0.119900
C44   C     C_R   0.240554 0.895981 0.206314 -0.119899
C45   C     C_R   0.104015 0.344569 0.206314 -0.119899
C46   C     C_R   0.676492 0.768006 0.156525 -0.130599
C47   C     C_R   0.231991 0.908478 0.156525 -0.130600
C48   C     C_R   0.091518 0.323510 0.156525 -0.130598
C49   C     C_R   0.754634 0.966849 0.161574 -0.124998
C50   C     C_R   0.033145 0.787802 0.161577 -0.124997
C51   C     C_R   0.212203 0.245350 0.161576 -0.124997
C52   C     C_R   0.735531 0.958531 0.211454 -0.121685
C53   C     C_R   0.041464 0.777020 0.211457 -0.121687
C54   C     C_R   0.222985 0.264450 0.211456 -0.121686
C55   C     C_R   0.688753 0.855120 0.234385 0.035466
C56   C     C_R   0.144876 0.833641 0.234387 0.035465
C57   C     C_R   0.166359 0.311236 0.234387 0.035465
C58   C     C_R   0.729531 0.872135 0.134278 0.023633
C59   C     C_R   0.127862 0.857399 0.134279 0.023634
C60   C     C_R   0.142601 0.270464 0.134279 0.023634
C61   C     C_R   0.106496 0.221383 0.086171 0.547497
C62   C     C_R   0.778616 0.885113 0.086171 0.547500
C63   C     C_R   0.114887 0.893503 0.086171 0.547497
C64   C     C_3   0.589714 0.879497 0.733556 0.126923
C65   C     C_3   0.120516 0.710218 0.733557 0.126915
C66   C     C_3   0.289784 0.410301 0.733558 0.126915
C67   C     C_3   0.784162 0.918393 0.720152 -0.288751
C68   C     C_3   0.081596 0.865755 0.720152 -0.288753
C69   C     C_3   0.134245 0.215845 0.720152 -0.288754
C70   C     C_3   0.804035 0.929512 0.776172 -0.244608
C71   C     C_3   0.070482 0.874517 0.776172 -0.244607
C72   C     C_3   0.125480 0.195968 0.776172 -0.244605
C73   C     C_1   0.738948 0.874471 0.900064 0.028456
C74   C     C_1   0.125528 0.864476 0.900064 0.028457
C75   C     C_1   0.135524 0.261053 0.900064 0.028456
C76   C     C_3   0.661132 0.835000 0.709141 0.016537
C77   C     C_3   0.165000 0.826131 0.709142 0.016545
C78   C     C_3   0.173871 0.338873 0.709142 0.016552
C79   C     C_3   0.607538 0.889225 0.790254 0.101810
C80   C     C_3   0.110778 0.718313 0.790255 0.101806
C81   C     C_3   0.281689 0.392463 0.790255 0.101804
C82   C     C_3   0.694541 0.855270 0.804564 0.053475
C83   C     C_3   0.144728 0.839271 0.804564 0.053477
C84   C     C_3   0.160731 0.305461 0.804564 0.053479
Cr1   Cr    Cr6+3 0.164410 0.584450 0.499910 1.028971
Cr2   Cr    Cr6+3 0.415550 0.579960 0.499910 1.028970
Cr3   Cr    Cr6+3 0.420040 0.835590 0.499910 1.028972
Cr4   Cr    Cr6+3 0.156760 0.076070 0.017830 1.046565
Cr5   Cr    Cr6+3 0.923930 0.080690 0.017830 1.046564
Cr6   Cr    Cr6+3 0.919310 0.843240 0.017830 1.046564
H1    H     H_    0.528324 0.831122 0.808649 0.147552
H2    H     H_    0.168878 0.697201 0.808653 0.147550
H3    H     H_    0.302806 0.471675 0.808655 0.147550
H4    H     H_    0.573716 0.937728 0.377242 0.132673
H5    H     H_    0.062264 0.635990 0.377243 0.132671
H6    H     H_    0.364013 0.426282 0.377241 0.132672
H7    H     H_    0.615638 0.678341 0.223041 0.104949
H8    H     H_    0.321656 0.937283 0.223040 0.104952
H9    H     H_    0.062710 0.384365 0.223041 0.104952
H10   H     H_    0.656398 0.694137 0.135885 0.121498
H11   H     H_    0.305861 0.962242 0.135884 0.121496
H12   H     H_    0.037750 0.343612 0.135885 0.121497
H13   H     H_    0.623591 0.970089 0.292020 0.100424
H14   H     H_    0.029900 0.653510 0.292022 0.100425
H15   H     H_    0.346493 0.376399 0.292021 0.100425
H16   H     H_    0.762071 0.033497 0.232314 0.101824
H17   H     H_    0.966496 0.728604 0.232318 0.101827
H18   H     H_    0.271405 0.237903 0.232317 0.101827
H19   H     H_    0.796645 0.048305 0.145143 0.131081
H20   H     H_    0.951688 0.748366 0.145147 0.131085
H21   H     H_    0.251642 0.203333 0.145145 0.131085
H22   H     H_    0.723021 0.722596 0.296275 0.101563
H23   H     H_    0.277410 0.000430 0.296276 0.101564
H24   H     H_    0.999570 0.276973 0.296277 0.101565
H25   H     H_    0.616912 0.962939 0.718138 0.176714
H26   H     H_    0.037079 0.653964 0.718137 0.176709
H27   H     H_    0.346039 0.383121 0.718136 0.176708
H28   H     H_    0.667180 0.685473 0.381610 0.126430
H29   H     H_    0.314534 0.981709 0.381610 0.126431
H30   H     H_    0.018290 0.332819 0.381611 0.126430
H31   H     H_    0.838166 0.890365 0.702982 0.121906
H32   H     H_    0.109612 0.947782 0.702979 0.121905
H33   H     H_    0.052219 0.161835 0.702979 0.121904
H34   H     H_    0.807689 0.000673 0.704360 0.107581
H35   H     H_    0.999317 0.806992 0.704362 0.107579
H36   H     H_    0.193009 0.192329 0.704363 0.107579
H37   H     H_    0.867745 0.907452 0.785818 0.116101
H38   H     H_    0.092540 0.960287 0.785816 0.116094
H39   H     H_    0.039708 0.132260 0.785815 0.116092
H40   H     H_    0.548640 0.657112 0.722511 0.181612
H41   H     H_    0.342892 0.891548 0.722508 0.181628
H42   H     H_    0.108456 0.451351 0.722509 0.181626
H43   H     H_    0.563298 0.682245 0.804753 0.161071
H44   H     H_    0.317755 0.881057 0.804750 0.161072
H45   H     H_    0.118954 0.436707 0.804751 0.161069
O1    O     O_R   0.137310 0.468260 0.552980 -0.505705
O2    O     O_R   0.531740 0.669050 0.552980 -0.505707
O3    O     O_R   0.330950 0.862690 0.552980 -0.505703
O4    O     O_R   0.180530 0.983530 0.965090 -0.496038
O5    O     O_R   0.016470 0.197000 0.965090 -0.496040
O6    O     O_R   0.803000 0.819470 0.965090 -0.496040
O7    O     O_R   0.174120 0.688790 0.549730 -0.491533
O8    O     O_R   0.311210 0.485330 0.549730 -0.491534
O9    O     O_R   0.514670 0.825880 0.549730 -0.491530
O10   O     O_R   0.139940 0.470480 0.446230 -0.523973
O11   O     O_R   0.529520 0.669460 0.446230 -0.523973
O12   O     O_R   0.330540 0.860060 0.446230 -0.523975
O13   O     O_R   0.176560 0.690850 0.450770 -0.509213
O14   O     O_R   0.309150 0.485710 0.450770 -0.509213
O15   O     O_R   0.514290 0.823440 0.450770 -0.509215
O16   O     O_3   0.333333 0.666667 0.499990 -0.264450
O17   O     O_3   0.000000 0.000000 0.017910 -0.230803
O18   O     O_R   0.149710 0.171070 0.967700 -0.493240
O19   O     O_R   0.828930 0.978640 0.967700 -0.493241
O20   O     O_R   0.021360 0.850290 0.967700 -0.493240
O21   O     O_R   0.178510 0.985930 0.071830 -0.518520
O22   O     O_R   0.014070 0.192580 0.071830 -0.518520
O23   O     O_R   0.807420 0.821490 0.071830 -0.518524
O24   O     O_R   0.147830 0.173300 0.066650 -0.501737
O25   O     O_R   0.826700 0.974530 0.066650 -0.501736
O26   O     O_R   0.025470 0.852170 0.066650 -0.501738
O27   O     O_3   0.636784 0.995507 0.807492 -0.674110
H46   H     H_    0.699293 0.051173 0.787707 0.327898
O28   O     O_3   0.004493 0.641276 0.807490 -0.674105
H47   H     H_    0.948829 0.648114 0.787699 0.327895
O29   O     O_3   0.358722 0.363207 0.807488 -0.674107
H48   H     H_    0.351881 0.300707 0.787695 0.327894
O30   O     O_3   0.477142 0.813853 0.721603 -0.725476
H49   H     H_    0.448257 0.741822 0.738352 0.324999
O31   O     O_3   0.186177 0.663308 0.721607 -0.725472
H50   H     H_    0.258202 0.706457 0.738363 0.324983
O32   O     O_3   0.336692 0.522874 0.721609 -0.725480
H51   H     H_    0.293548 0.551749 0.738370 0.324982
O33   O     O_3   0.710902 0.687225 0.805886 -0.667287
H52   H     H_    0.781505 0.721143 0.787589 0.320556
O34   O     O_3   0.312771 0.023679 0.805888 -0.667283
H53   H     H_    0.278848 0.060363 0.787593 0.320555
O35   O     O_3   0.976327 0.289106 0.805890 -0.667286
H54   H     H_    0.939640 0.218498 0.787596 0.320555
H55   H     H_    0.839559 0.017244 0.787094 0.115242
H56   H     H_    0.982751 0.822309 0.787096 0.115257
H57   H     H_    0.177683 0.160440 0.787097 0.115258
H58   H     H_    0.689349 0.694816 0.715927 0.134359
H59   H     H_    0.305168 0.994539 0.715927 0.134353
H60   H     H_    0.005463 0.310635 0.715929 0.134349

loop_
_geom_bond_atom_site_label_1
_geom_bond_atom_site_label_2
_ccdc_geom_bond_type
C70   H37   S    
C58   C62   S    
C15   C18   T    
C40   H28   S    
Cr6   O23   S    
C47   H11   S    
C2    C18   S    
C24   C42   A    
C71   H56   S    
C35   O14   A    
Cr1   O13   S    
C42   H30   S    
C67   H34   S    
C6    C9    S    
O35   H54   S    
C69   C78   S    
C72   H39   S    
C25   C28   A    
C45   C57   A    
C33   C39   A    
C20   O19   A    
C70   H55   S    
C68   C77   S    
C50   C59   A    
Cr4   O21   S    
C66   O32   S    
O28   H47   S    
Cr1   O10   S    
C63   O21   A    
C37   C40   A    
C9    H60   S    
C61   O24   A    
C5    C83   S    
C10   C73   T    
C23   C26   A    
C15   C78   S    
O31   H50   S    
C69   H33   S    
Cr2   O11   S    
C50   H20   S    
C12   C84   S    
C35   O10   A    
C14   C77   S    
C53   H17   S    
O33   H52   S    
C80   O28   S    
C37   H22   S    
C1    O7    A    
Cr2   O2    S    
C34   O13   A    
Cr5   O17   S    
C19   O5    A    
C7    H40   S    
C66   H27   S    
C51   H21   S    
C81   O29   S    
C24   C27   A    
C3    O2    A    
C32   C38   A    
Cr3   O9    S    
C79   H1    S    
C44   C47   A    
C8    H59   S    
C52   H16   S    
C25   H4    S    
C64   H25   S    
C4    O33   S    
C6    O35   S    
C27   C30   A    
C2    O8    A    
Cr4   O17   S    
C14   C17   T    
C27   H6    S    
C44   H8    S    
C80   C83   S    
C67   H31   S    
Cr2   O8    S    
C48   C60   A    
C39   C42   A    
C71   C83   S    
C21   O20   A    
C5    H44   S    
C66   C78   S    
C50   C53   A    
C6    C84   S    
Cr6   O26   S    
C24   C35   S    
C65   C77   S    
C38   C41   A    
Cr6   O17   S    
C45   H9    S    
Cr2   O14   S    
C68   H32   S    
C38   H23   S    
C22   C40   A    
C9    H42   S    
C4    C7    S    
C21   C74   S    
C10   C82   S    
C2    O1    A    
C49   C58   A    
C31   C37   A    
C29   H14   S    
C60   C61   S    
C80   H2    S    
C69   C72   S    
Cr1   O16   S    
Cr4   O4    S    
C6    H45   S    
C61   O22   A    
C5    C8    S    
C81   H3    S    
C34   O12   A    
C44   C56   A    
C13   C76   S    
C39   H24   S    
C48   H12   S    
C8    H41   S    
C62   O23   A    
C64   C76   S    
C41   H29   S    
C72   C84   S    
Cr3   O12   S    
C36   O11   A    
O34   H53   S    
C22   C25   A    
C69   H36   S    
C30   H15   S    
O29   H48   S    
C19   O18   A    
C64   C79   S    
C62   O25   A    
C71   H38   S    
C13   C16   T    
C21   O4    A    
Cr3   O3    S    
C81   C84   S    
O32   H51   S    
Cr5   O25   S    
C49   H19   S    
O27   H46   S    
C45   C48   A    
C43   C55   A    
C26   H5    S    
C63   O26   A    
C46   H10   S    
O30   H49   S    
C23   C34   S    
C33   C57   S    
C30   C33   A    
C59   C63   S    
C20   O6    A    
C28   C31   A    
C3    O9    A    
C43   H7    S    
C49   C52   A    
C11   C74   T    
Cr1   O7    S    
C79   C82   S    
C52   C55   A    
Cr5   O22   S    
C7    C76   S    
C51   C60   A    
C54   H18   S    
C29   C32   A    
C22   C36   S    
C1    C17   S    
C23   C41   A    
C7    H58   S    
C65   O31   S    
C51   C54   A    
C11   C83   S    
Cr4   O18   S    
C67   C70   S    
C19   C75   S    
C72   H57   S    
C64   O30   S    
Cr2   O16   S    
C66   C81   S    
Cr3   O15   S    
C28   H13   S    
C36   O15   A    
Cr5   O19   S    
C8    C77   S    
Cr4   O24   S    
C68   C71   S    
C5    O34   S    
C65   H26   S    
C20   C73   S    
C9    C78   S    
C70   C82   S    
C43   C46   A    
C53   C56   A    
Cr6   O6    S    
C1    O3    A    
Cr1   O1    S    
C47   C59   A    
C4    C82   S    
C26   C29   A    
C12   C75   T    
C65   C80   S    
Cr5   O5    S    
Cr3   O16   S    
C67   C76   S    
C79   O27   S    
C31   C55   S    
Cr6   O20   S    
C68   H35   S    
C32   C56   S    
C46   C58   A    
C3    C16   S    
C4    H43   S    
C54   C57   A    
