data_mof_unit_14300.cif
_audit_creation_date              2012-12-10T16:47:29-0500
_audit_creation_method            fapswitch 2.2
_symmetry_space_group_name_H-M    P1
_symmetry_Int_Tables_number       1
_space_group_crystal_system       triclinic
_cell_length_a                    10.635728
_cell_length_b                    8.6826
_cell_length_c                    7.462887
_cell_angle_alpha                 102.832087
_cell_angle_beta                  94.670013
_cell_angle_gamma                 92.554615
_cell_volume                      668.330045902

loop_
_atom_site_label
_atom_site_type_symbol
_atom_type_description
_atom_site_fract_x
_atom_site_fract_y
_atom_site_fract_z
_atom_type_partial_charge
C1    C     C_R   0.496213 0.199804 0.453357 0.886998
C2    C     C_R   0.503787 0.800196 0.546643 0.886998
C3    C     C_R   0.259768 0.497863 0.500957 0.886042
C4    C     C_R   0.740232 0.502137 0.499043 0.886042
C5    C     C_3   0.042351 0.397909 0.604515 -0.394587
C6    C     C_3   0.957649 0.602091 0.395485 -0.394598
C7    C     C_3   0.947936 0.355873 0.429215 0.337680
C8    C     C_3   0.052064 0.644127 0.570785 0.337669
C9    C     C_3   0.876273 0.503375 0.498088 -0.143782
C10   C     C_3   0.123727 0.496625 0.501912 -0.143782
C11   C     C_3   0.970716 0.547904 0.671426 0.385172
C12   C     C_3   0.029284 0.452095 0.328574 0.385172
C13   C     C_2   0.494415 0.031933 0.427101 -0.327876
C14   C     C_2   0.505585 0.968067 0.572899 -0.327875
Cu1   Cu    Cu3+1 0.514140 0.517380 0.684380 1.005783
Cu2   Cu    Cu3+1 0.485860 0.482620 0.315620 1.005783
H1    H     H_    0.077433 0.315723 0.689108 0.193446
H2    H     H_    0.922567 0.684277 0.310892 0.193446
H3    H     H_    0.399738 0.379088 0.948659 0.235528
H4    H     H_    0.600262 0.620912 0.051341 0.235528
H5    H     H_    0.483881 0.960534 0.286524 0.183006
H6    H     H_    0.516119 0.039466 0.713476 0.183006
N1    N     N_2   0.464560 0.456420 0.038510 -0.208281
N2    N     N_2   0.535440 0.543580 0.961490 -0.208281
O1    O     O_R   0.509190 0.286130 0.619780 -0.594841
O2    O     O_R   0.490810 0.713870 0.380220 -0.594842
O3    O     O_R   0.485310 0.256770 0.308360 -0.579992
O4    O     O_R   0.514690 0.743230 0.691640 -0.579992
O5    O     O_R   0.328790 0.514640 0.655680 -0.589913
O6    O     O_R   0.671210 0.485360 0.344320 -0.589913
O7    O     O_R   0.304910 0.485280 0.344260 -0.543996
O8    O     O_R   0.695090 0.514720 0.655740 -0.543996
O9    O     O_3   0.889171 0.206071 0.350921 -0.714516
H7    H     H_    0.959097 0.135345 0.323177 0.338244
O10   O     O_3   0.110829 0.793929 0.649079 -0.714520
H8    H     H_    0.040903 0.864655 0.676823 0.338242
O11   O     O_3   0.937384 0.602671 0.850907 -0.706934
H9    H     H_    0.018517 0.627972 0.929789 0.352825
O12   O     O_3   0.062616 0.397327 0.149093 -0.706929
H10   H     H_    0.981484 0.372058 0.070207 0.352835

loop_
_geom_bond_atom_site_label_1
_geom_bond_atom_site_label_2
_ccdc_geom_bond_type
H3    N1    S    
N1    N2    D    
C1    O1    A    
Cu1   O5    S    
O11   H9    S    
C7    O9    S    
O10   H8    S    
C14   H6    S    
C12   O12   S    
O9    H7    S    
C13   H5    S    
Cu1   O8    S    
C2    O2    A    
C3    C10   S    
C13   C14   D    
Cu2   O7    S    
C3    O7    A    
C9    C11   S    
C3    O5    A    
Cu1   O4    S    
C4    O8    A    
C10   C12   S    
Cu2   O3    S    
C8    C11   S    
C2    C14   S    
C6    C8    S    
C6    C12   S    
C8    C10   S    
Cu1   N2    S    
C5    C11   S    
Cu2   N1    S    
C5    C7    S    
Cu2   O2    S    
C7    C12   S    
C6    H2    S    
Cu1   O1    S    
C1    C13   S    
Cu2   O6    S    
Cu1   Cu2   S    
C7    C9    S    
C5    C10   S    
C6    C9    S    
C5    H1    S    
C1    O3    A    
O12   H10   S    
C11   O11   S    
C2    O4    A    
C4    C9    S    
C4    O6    A    
H4    N2    S    
C8    O10   S    
