data_mof_unit_15154.cif
_audit_creation_date              2012-12-11T15:56:39-0500
_audit_creation_method            fapswitch 2.2
_symmetry_space_group_name_H-M    P1
_symmetry_Int_Tables_number       1
_space_group_crystal_system       triclinic
_cell_length_a                    14.66901
_cell_length_b                    7.168586
_cell_length_c                    13.596527
_cell_angle_alpha                 89.999896
_cell_angle_beta                  99.946416
_cell_angle_gamma                 90.000035
_cell_volume                      1408.26755562

loop_
_atom_site_label
_atom_site_type_symbol
_atom_type_description
_atom_site_fract_x
_atom_site_fract_y
_atom_site_fract_z
_atom_type_partial_charge
O1    O     O_R   0.336930 0.638190 0.166330 -0.547509
O2    O     O_R   0.663070 0.361810 0.833670 -0.547510
O3    O     O_R   0.163070 0.138190 0.333670 -0.547509
O4    O     O_R   0.836930 0.861810 0.666330 -0.547510
O5    O     O_R   0.147900 0.305430 0.139630 -0.533868
O6    O     O_R   0.852100 0.694570 0.860370 -0.533868
O7    O     O_R   0.352100 0.805430 0.360370 -0.533868
O8    O     O_R   0.647900 0.194570 0.639630 -0.533868
C1    C     C_R   0.115085 0.477587 0.113132 0.709989
C2    C     C_R   0.884915 0.522413 0.886868 0.709989
C3    C     C_R   0.384915 0.977587 0.386868 0.709989
C4    C     C_R   0.615085 0.022413 0.613132 0.709989
O9    O     O_R   0.335280 0.308290 0.154310 -0.515877
O10   O     O_R   0.664720 0.691710 0.845690 -0.515876
O11   O     O_R   0.164720 0.808290 0.345690 -0.515876
O12   O     O_R   0.835280 0.191710 0.654310 -0.515876
O13   O     O_R   0.351790 0.140890 0.348460 -0.534375
O14   O     O_R   0.648210 0.859110 0.651540 -0.534376
O15   O     O_R   0.148210 0.640890 0.151540 -0.534376
O16   O     O_R   0.851790 0.359110 0.848460 -0.534376
C5    C     C_R   0.363267 0.477001 0.132090 0.714904
C6    C     C_R   0.636733 0.522999 0.867910 0.714904
C7    C     C_R   0.136733 0.977000 0.367910 0.714904
C8    C     C_R   0.863267 0.022999 0.632090 0.714905
O17   O     O_3   0.255200 0.472570 0.313680 -0.370365
O18   O     O_3   0.744800 0.527430 0.686320 -0.370365
O19   O     O_3   0.244800 0.972570 0.186320 -0.370365
O20   O     O_3   0.755200 0.027430 0.813680 -0.370365
V1    V     V_3+5 0.249040 0.196590 0.238190 1.452927
V2    V     V_3+5 0.750960 0.803410 0.761810 1.452927
V3    V     V_3+5 0.250960 0.696590 0.261810 1.452928
V4    V     V_3+5 0.749040 0.303410 0.738190 1.452927
C9    C     C_R   0.058343 0.843060 0.505448 0.201757
C10   C     C_R   0.941657 0.156940 0.494552 0.201758
C11   C     C_R   0.441658 0.343058 0.994553 0.201758
C12   C     C_R   0.558342 0.656941 0.005447 0.201760
C13   C     C_R   0.990961 0.856965 0.567155 -0.273265
C14   C     C_R   0.009039 0.143035 0.432845 -0.273265
C15   C     C_R   0.509041 0.356963 0.932847 -0.273266
C16   C     C_R   0.490959 0.643037 0.067153 -0.273267
H1    H     H_    0.985948 0.745601 0.619855 0.137447
H2    H     H_    0.014052 0.254399 0.380144 0.137447
H3    H     H_    0.514054 0.245597 0.880147 0.137447
H4    H     H_    0.485946 0.754403 0.119853 0.137446
C17   C     C_R   0.932290 0.013038 0.563277 -0.059547
C18   C     C_R   0.067710 0.986962 0.436723 -0.059547
C19   C     C_R   0.567710 0.513037 0.936723 -0.059548
C20   C     C_R   0.432290 0.486963 0.063277 -0.059547
C21   C     C_1   0.533916 0.008212 0.533131 -0.175306
C22   C     C_1   0.466084 0.991788 0.466868 -0.175307
C23   C     C_1   0.966084 0.508212 0.966868 -0.175306
C24   C     C_1   0.033916 0.491788 0.033132 -0.175306
N1    N     N_3   0.118855 0.684720 0.515392 -0.648957
H5    H     H_    0.078426 0.564498 0.501167 0.222072
H6    H     H_    0.153264 0.678535 0.589378 0.219974
N2    N     N_3   0.881145 0.315280 0.484607 -0.648956
H7    H     H_    0.921574 0.435502 0.498834 0.222072
H8    H     H_    0.846736 0.321466 0.410621 0.219973
N3    N     N_3   0.381148 0.184716 0.984610 -0.648957
H9    H     H_    0.421577 0.064497 0.998845 0.222071
H10   H     H_    0.346743 0.178518 0.910623 0.219974
N4    N     N_3   0.618853 0.815283 0.015390 -0.648954
H11   H     H_    0.578424 0.935504 0.001160 0.222070
H12   H     H_    0.653260 0.821475 0.089378 0.219973

loop_
_geom_bond_atom_site_label_1
_geom_bond_atom_site_label_2
_ccdc_geom_bond_type
O2    C6    A    
C11   C15   A    
O1    C5    A    
N4    H11   S    
O14   V2    S    
O12   V4    S    
O19   V1    S    
C9    N1    S    
O13   V1    S    
O3    C7    A    
O1    V3    S    
C10   N2    S    
O8    C4    A    
C5    C20   S    
O15   V3    S    
O10   C6    A    
O20   V2    S    
C4    C21   S    
O9    C5    A    
N3    H9    S    
O12   C8    A    
C10   C17   A    
N1    H5    S    
O7    C3    A    
C9    C18   A    
O3    V1    S    
O5    C1    A    
C1    C24   S    
O10   V2    S    
C12   N4    S    
C11   C20   A    
O11   C7    A    
O6    V2    S    
N2    H8    S    
C6    C19   S    
O5    V1    S    
N1    H6    S    
C13   H1    S    
O4    C8    A    
C11   N3    S    
C9    C13   A    
C14   C18   A    
O7    V3    S    
O6    C2    A    
C2    C23   S    
C13   C17   A    
C23   C24   T    
O8    V4    S    
C14   H2    S    
C8    C17   S    
C16   H4    S    
C7    C18   S    
N2    H7    S    
C15   H3    S    
C12   C19   A    
O2    V4    S    
C21   C22   T    
O16   V4    S    
N3    H10   S    
C4    O14   A    
C16   C20   A    
C3    C22   S    
O18   V4    S    
C3    O13   A    
C12   C16   A    
N4    H12   S    
C10   C14   A    
C15   C19   A    
O11   V3    S    
C1    O15   A    
O4    V2    S    
O17   V3    S    
O9    V1    S    
C2    O16   A    
