data_mof_unit_12518.cif
_audit_creation_date              2012-12-10T17:47:44-0500
_audit_creation_method            fapswitch 2.2
_symmetry_space_group_name_H-M    P1
_symmetry_Int_Tables_number       1
_space_group_crystal_system       triclinic
_cell_length_a                    10.649041
_cell_length_b                    10.469058
_cell_length_c                    9.90277
_cell_angle_alpha                 91.177789
_cell_angle_beta                  90.375563
_cell_angle_gamma                 92.032715
_cell_volume                      1103.05742174

loop_
_atom_site_label
_atom_site_type_symbol
_atom_type_description
_atom_site_fract_x
_atom_site_fract_y
_atom_site_fract_z
_atom_type_partial_charge
C1    C     C_R   0.530171 0.266155 0.498668 0.985811
C2    C     C_R   0.615433 0.076578 0.612193 0.064744
C3    C     C_R   0.576335 0.137325 0.493937 -0.272338
C4    C     C_R   0.257855 0.503398 0.499320 0.964689
C5    C     C_R   0.571308 0.066655 0.371777 0.421236
C6    C     C_R   0.546163 0.937459 0.377679 -0.222375
C7    C     C_R   0.551796 0.875738 0.501253 -0.209587
C8    C     C_R   0.329807 0.337607 0.135569 -0.059215
C9    C     C_R   0.245783 0.257341 0.063061 -0.109287
C10   C     C_R   0.245773 0.256978 0.923354 -0.187391
C11   C     C_R   0.330079 0.336519 0.855297 -0.133682
C12   C     C_3   0.878355 0.503485 0.499577 0.045930
C13   C     C_R   0.415391 0.420464 0.925368 0.168896
C14   C     C_R   0.415306 0.420764 0.070020 0.198363
C15   C     C_R   0.582539 0.574184 0.073970 -0.045802
C16   C     C_R   0.514451 0.741096 0.501240 0.929271
C17   C     C_R   0.583034 0.573405 0.930957 -0.094990
C18   C     C_R   0.742179 0.502669 0.500143 0.822369
C19   C     C_3   0.066432 0.377023 0.558869 0.254205
C20   C     C_3   0.922350 0.381220 0.566865 -0.435879
C21   C     C_3   0.076310 0.617317 0.587612 -0.402670
C22   C     C_3   0.069594 0.523460 0.349443 0.300256
C23   C     C_3   0.932179 0.622046 0.580032 -0.402809
C24   C     C_3   0.121168 0.504991 0.496846 -0.139694
C25   C     C_3   0.926873 0.505409 0.351382 -0.401327
C26   C     C_R   0.671348 0.145502 0.722532 -0.162181
C27   C     C_R   0.720802 0.081483 0.831519 -0.003610
C28   C     C_R   0.718109 0.948508 0.831012 -0.075690
C29   C     C_R   0.663660 0.879153 0.722746 -0.187410
C30   C     C_R   0.607725 0.941872 0.614114 0.117543
H1    H     H_    0.102618 0.370998 0.664189 0.108666
H2    H     H_    0.650075 0.634724 0.129623 0.134801
H3    H     H_    0.328187 0.328873 0.242281 0.227791
H4    H     H_    0.182118 0.192971 0.115392 0.217644
H5    H     H_    0.181325 0.193283 0.867129 0.191608
H6    H     H_    0.326697 0.327647 0.748193 0.228690
H7    H     H_    0.652395 0.631687 0.879840 0.124886
H8    H     H_    0.875242 0.295693 0.517303 0.222817
H9    H     H_    0.893603 0.380529 0.674808 0.160969
H10   H     H_    0.105273 0.603560 0.694435 0.193171
H11   H     H_    0.893989 0.624455 0.684417 0.180695
H12   H     H_    0.881498 0.581219 0.293386 0.205642
H13   H     H_    0.899288 0.413570 0.298748 0.218061
H14   H     H_    0.797237 0.024521 0.217179 0.370001
H15   H     H_    0.076506 0.029562 0.515366 0.410745
H16   H     H_    0.959711 0.801420 0.229708 0.369981
H17   H     H_    0.106682 0.448350 0.281244 0.140246
H18   H     H_    0.119527 0.710397 0.557069 0.248156
H19   H     H_    0.903928 0.711214 0.530888 0.222532
H20   H     H_    0.685179 0.248238 0.721961 0.156457
H21   H     H_    0.766209 0.135378 0.913689 0.193863
H22   H     H_    0.761988 0.898723 0.912531 0.167745
H23   H     H_    0.674748 0.777497 0.720659 0.145198
H24   H     H_    0.527370 0.884919 0.283839 0.222893
N1    N     N_R   0.498810 0.498800 0.142780 -0.110190
N2    N     N_R   0.498760 0.498720 0.857170 -0.127840
O1    O     O_R   0.500000 0.316780 0.614690 -0.639505
O2    O     O_2   0.688447 0.255420 0.228679 -0.312867
O3    O     O_3   0.726618 0.022484 0.151449 -0.594895
O4    O     O_2   0.053615 0.219163 0.336189 -0.348924
O5    O     O_2   0.250119 0.222642 0.467458 -0.342553
O6    O     O_3   0.054046 0.107382 0.567085 -0.554672
O7    O     O_2   0.240702 0.726067 0.316551 -0.251202
O8    O     O_2   0.113116 0.655929 0.121938 -0.323425
O9    O     O_3   0.008849 0.788012 0.313183 -0.573334
O10   O     O_R   0.499990 0.316750 0.385360 -0.563868
O11   O     O_R   0.314800 0.499990 0.614670 -0.649057
O12   O     O_R   0.314790 0.499970 0.385330 -0.600934
O13   O     O_R   0.500010 0.683250 0.614640 -0.618675
O14   O     O_R   0.500000 0.683220 0.385310 -0.594213
O15   O     O_R   0.685210 0.500030 0.614670 -0.663139
O16   O     O_R   0.685200 0.500010 0.385330 -0.615805
O17   O     O_2   0.514869 0.131075 0.118773 -0.271125
S1    S     S_3+6 0.623956 0.125753 0.214956 0.011884
S2    S     S_3+6 0.110003 0.230140 0.475553 -0.033636
S3    S     S_3+6 0.112706 0.675910 0.272768 0.008359
Zn1   Zn    Zn3+2 0.500010 0.500020 0.653130 0.941890
Zn2   Zn    Zn3+2 0.499990 0.499980 0.346870 1.037087

loop_
_geom_bond_atom_site_label_1
_geom_bond_atom_site_label_2
_ccdc_geom_bond_type
O14   Zn2   S    
C28   H22   S    
O17   S1    D    
O13   Zn1   S    
C19   C20   S    
O11   Zn1   S    
C22   S3    S    
C19   H1    S    
C25   H13   S    
C15   H2    S    
O5    S2    D    
C12   C23   S    
C26   C27   A    
O9    S3    S    
C11   H6    S    
C26   H20   S    
C5    C6    A    
C4    C24   S    
C23   H19   S    
O7    S3    D    
H14   O3    S    
H15   O6    S    
C5    S1    S    
O16   Zn2   S    
C8    C9    A    
C22   C25   S    
C10   H5    S    
C9    C10   A    
C21   H18   S    
C22   H17   S    
C7    C30   A    
C13   C14   A    
C18   O16   A    
C6    H24   S    
C27   H21   S    
O12   Zn2   S    
O10   Zn2   S    
O1    Zn1   S    
C16   O14   A    
H16   O9    S    
C4    O12   A    
C20   H9    S    
N2    Zn1   S    
C1    C3    S    
C15   N1    A    
C29   C30   A    
C1    O1    A    
C20   H8    S    
O3    S1    S    
C12   C20   S    
C1    O10   A    
O8    S3    D    
C2    C26   A    
C17   H7    S    
C17   N2    A    
C7    C16   S    
C21   C23   S    
C9    H4    S    
C22   C24   S    
O6    S2    S    
O15   Zn1   S    
O2    S1    D    
C18   O15   A    
C15   C17   A    
C28   C29   A    
C8    C14   A    
C19   C24   S    
C16   O13   A    
C3    C5    A    
C25   H12   S    
C4    O11   A    
C6    C7    A    
O4    S2    D    
C23   H11   S    
C12   C25   S    
C2    C30   A    
C13   N2    A    
C19   S2    S    
C2    C3    A    
C11   C13   A    
C21   H10   S    
C29   H23   S    
C14   N1    A    
C8    H3    S    
C10   C11   A    
N1    Zn2   S    
C21   C24   S    
C12   C18   S    
C27   C28   A    
