data_mof_unit_18395.cif
_audit_creation_date              2012-12-11T16:44:14-0500
_audit_creation_method            fapswitch 2.2
_symmetry_space_group_name_H-M    P1
_symmetry_Int_Tables_number       1
_space_group_crystal_system       triclinic
_cell_length_a                    27.125034
_cell_length_b                    7.209496
_cell_length_c                    22.761153
_cell_angle_alpha                 89.770012
_cell_angle_beta                  101.567748
_cell_angle_gamma                 89.559961
_cell_volume                      4360.51294259

loop_
_atom_site_label
_atom_site_type_symbol
_atom_type_description
_atom_site_fract_x
_atom_site_fract_y
_atom_site_fract_z
_atom_type_partial_charge
O1    O     O_R   0.707300 0.594030 0.176840 -0.523156
O2    O     O_R   0.292700 0.405970 0.823160 -0.523159
O3    O     O_R   0.792700 0.094030 0.323160 -0.525000
O4    O     O_R   0.207300 0.905970 0.676840 -0.525000
O5    O     O_R   0.697330 0.262360 0.295660 -0.542070
O6    O     O_R   0.302670 0.737640 0.704340 -0.542069
O7    O     O_R   0.802670 0.762360 0.204340 -0.537271
O8    O     O_R   0.197330 0.237640 0.795660 -0.537273
C1    C     C_R   0.684589 0.432615 0.311516 0.715486
C2    C     C_R   0.315411 0.567385 0.688484 0.715485
C3    C     C_R   0.815201 0.932006 0.188174 0.706411
C4    C     C_R   0.184799 0.067994 0.811825 0.706411
O9    O     O_R   0.701410 0.264250 0.175600 -0.532176
O10   O     O_R   0.298590 0.735750 0.824400 -0.532173
O11   O     O_R   0.798590 0.764250 0.324400 -0.524384
O12   O     O_R   0.201410 0.235750 0.675600 -0.524384
O13   O     O_R   0.796800 0.094950 0.202240 -0.537370
O14   O     O_R   0.203200 0.905050 0.797760 -0.537369
O15   O     O_R   0.703200 0.594950 0.297760 -0.532697
O16   O     O_R   0.296800 0.405050 0.702240 -0.532698
C5    C     C_R   0.689762 0.433514 0.153359 0.761253
C6    C     C_R   0.310238 0.566486 0.846640 0.761250
C7    C     C_R   0.810269 0.931625 0.346847 0.756665
C8    C     C_R   0.189731 0.068375 0.653153 0.756665
O17   O     O_3   0.781290 0.427390 0.258880 -0.370406
O18   O     O_3   0.218710 0.572610 0.741120 -0.370406
O19   O     O_3   0.718710 0.927390 0.241120 -0.374133
O20   O     O_3   0.281290 0.072610 0.758880 -0.374133
V1    V     V_3+5 0.744190 0.152150 0.248350 1.530826
V2    V     V_3+5 0.255810 0.847850 0.751650 1.530829
V3    V     V_3+5 0.755810 0.652150 0.251650 1.551213
V4    V     V_3+5 0.244190 0.347850 0.748350 1.551210
C9    C     C_R   0.155203 0.067452 0.593659 -0.158442
C10   C     C_R   0.844797 0.932548 0.406341 -0.158442
C11   C     C_R   0.344404 0.556171 0.906015 -0.162989
C12   C     C_R   0.655595 0.443829 0.093985 -0.162989
C13   C     C_R   0.135989 0.175224 0.490005 0.284794
C14   C     C_R   0.864011 0.824776 0.509995 0.284794
C15   C     C_R   0.358117 0.571903 0.014720 0.283531
C16   C     C_R   0.641881 0.428121 0.985281 0.283533
C17   C     C_R   0.171178 0.140308 0.543350 0.236575
C18   C     C_R   0.828821 0.859692 0.456650 0.236575
C19   C     C_R   0.325040 0.565487 0.958618 0.225577
C20   C     C_R   0.674959 0.434537 0.041382 0.225577
C21   C     C_R   0.104814 0.013465 0.588326 -0.164190
C22   C     C_R   0.895186 0.986535 0.411674 -0.164190
C23   C     C_R   0.396501 0.537171 0.910016 -0.177772
C24   C     C_R   0.603499 0.462812 0.089985 -0.177775
C25   C     C_R   0.069554 0.030050 0.533193 0.081476
C26   C     C_R   0.930446 0.969950 0.466807 0.081476
C27   C     C_R   0.430235 0.520508 0.966119 0.075128
C28   C     C_R   0.569764 0.479480 0.033882 0.075125
C29   C     C_R   0.084702 0.130391 0.486247 -0.042139
C30   C     C_R   0.915298 0.869609 0.513752 -0.042139
C31   C     C_R   0.410811 0.558348 0.018195 -0.052777
C32   C     C_R   0.589188 0.441655 0.981806 -0.052774
C33   C     C_R   0.018556 0.965669 0.524926 0.000987
C34   C     C_R   0.981444 0.034330 0.475074 0.000987
C35   C     C_R   0.483119 0.481887 0.971979 -0.003580
C36   C     C_R   0.516880 0.518094 0.028023 -0.003580
C37   C     C_R   0.996894 0.167353 0.436412 0.247992
C38   C     C_R   0.003106 0.832647 0.563587 0.247992
C39   C     C_R   0.496232 0.595203 0.075265 0.247902
C40   C     C_R   0.503767 0.404779 0.924737 0.247898
C41   C     C_R   0.047803 0.199114 0.439009 -0.108717
C42   C     C_R   0.952197 0.800886 0.560991 -0.108717
C43   C     C_R   0.444425 0.597579 0.071729 -0.108883
C44   C     C_R   0.555574 0.402418 0.928272 -0.108883
H1    H     H_    0.057636 0.295044 0.406682 0.206416
H2    H     H_    0.942364 0.704956 0.593318 0.206416
H3    H     H_    0.430761 0.649021 0.110093 0.210528
H4    H     H_    0.569238 0.350979 0.889909 0.210526
H5    H     H_    0.907226 0.026282 0.371071 0.168310
H6    H     H_    0.092774 0.973718 0.628929 0.168310
H7    H     H_    0.589762 0.453913 0.131165 0.171593
H8    H     H_    0.410238 0.546053 0.868835 0.171592
C45   C     C_R   0.859959 0.104857 0.118422 -0.095868
C46   C     C_R   0.140040 0.895143 0.881577 -0.095863
C47   C     C_R   0.636697 0.609960 0.377417 -0.075002
C48   C     C_R   0.363303 0.390040 0.622583 -0.075003
C49   C     C_R   0.895169 0.113581 0.081298 -0.111374
C50   C     C_R   0.104830 0.886418 0.918701 -0.111372
C51   C     C_R   0.601015 0.619725 0.413933 -0.117470
C52   C     C_R   0.398985 0.380275 0.586067 -0.117471
H9    H     H_    0.898350 0.240832 0.056986 0.188025
H10   H     H_    0.101648 0.759168 0.943013 0.188025
H11   H     H_    0.596507 0.748188 0.436789 0.182396
H12   H     H_    0.403493 0.251812 0.563211 0.182396
C53   C     C_R   0.926420 0.961195 0.075906 0.009944
C54   C     C_R   0.073579 0.038805 0.924093 0.009943
C55   C     C_R   0.571876 0.465171 0.421783 0.015534
C56   C     C_R   0.428123 0.534829 0.578217 0.015534
C57   C     C_R   0.920814 0.796370 0.107651 0.296396
C58   C     C_R   0.079186 0.203630 0.892348 0.296397
C59   C     C_R   0.578927 0.299268 0.391681 0.302116
C60   C     C_R   0.421073 0.700732 0.608318 0.302116
C61   C     C_R   0.884519 0.786920 0.143793 -0.143497
C62   C     C_R   0.115481 0.213080 0.856206 -0.143501
C63   C     C_R   0.615770 0.288489 0.356323 -0.151212
C64   C     C_R   0.384230 0.711511 0.643677 -0.151213
C65   C     C_R   0.853829 0.941181 0.149923 -0.103709
C66   C     C_R   0.146170 0.058819 0.850076 -0.103711
C67   C     C_R   0.645283 0.443380 0.348880 -0.098881
C68   C     C_R   0.354716 0.556620 0.651120 -0.098883
C69   C     C_R   0.015736 0.952485 0.060505 -0.037370
C70   C     C_R   0.984263 0.047516 0.939494 -0.037370
C71   C     C_R   0.538272 0.365882 0.512113 -0.057773
C72   C     C_R   0.461728 0.634118 0.487887 -0.057773
H13   H     H_    0.028594 0.918084 0.107455 0.162048
H14   H     H_    0.971405 0.081917 0.892544 0.162048
H15   H     H_    0.568055 0.262817 0.522468 0.163249
H16   H     H_    0.431945 0.737183 0.477531 0.163250
C73   C     C_R   0.051174 0.972622 0.023848 -0.099682
C74   C     C_R   0.948825 0.027378 0.976150 -0.099682
C75   C     C_R   0.503862 0.384361 0.550187 -0.088495
C76   C     C_R   0.496138 0.615639 0.449813 -0.088495
H17   H     H_    0.090703 0.951527 0.043027 0.151284
H18   H     H_    0.909296 0.048474 0.956972 0.151283
H19   H     H_    0.507570 0.294911 0.589158 0.181340
H20   H     H_    0.492430 0.705089 0.410842 0.181341
C77   C     C_R   0.035839 0.021738 0.963086 0.096916
C78   C     C_R   0.964160 0.978263 0.036913 0.096916
C79   C     C_R   0.465395 0.519123 0.538597 0.084190
C80   C     C_R   0.534605 0.480877 0.461403 0.084189
Br1   Br    Br    0.758902 0.799954 0.451353 -0.471715
Br2   Br    Br    0.241098 0.200046 0.548647 -0.471715
Br3   Br    Br    0.746797 0.422692 0.046745 -0.477079
Br4   Br    Br    0.253202 0.577361 0.953255 -0.477082
Br5   Br    Br    0.158722 0.287177 0.422909 -0.366464
Br6   Br    Br    0.841278 0.712823 0.577091 -0.366465
Br7   Br    Br    0.330422 0.598492 0.086163 -0.359211
Br8   Br    Br    0.669576 0.401568 0.913837 -0.359214
Br9   Br    Br    0.952611 0.346449 0.388758 -0.531733
Br10  Br    Br    0.047389 0.653551 0.611242 -0.531733
Br11  Br    Br    0.533257 0.741973 0.139877 -0.518151
Br12  Br    Br    0.466744 0.257992 0.860128 -0.518147
H21   H     H_    0.837154 0.226508 0.121908 0.177168
H22   H     H_    0.162844 0.773490 0.878090 0.177171
H23   H     H_    0.657975 0.733159 0.372221 0.171418
H24   H     H_    0.342025 0.266840 0.627779 0.171418
Br13  Br    Br    0.960057 0.577665 0.101027 -0.528669
Br14  Br    Br    0.039942 0.422335 0.898972 -0.528671
Br15  Br    Br    0.536739 0.088493 0.394014 -0.558950
Br16  Br    Br    0.463261 0.911507 0.605985 -0.558951
H25   H     H_    0.880595 0.658660 0.167292 0.163347
H26   H     H_    0.119405 0.341341 0.832707 0.163347
H27   H     H_    0.620557 0.159483 0.333823 0.162432
H28   H     H_    0.379443 0.840517 0.666177 0.162432

loop_
_geom_bond_atom_site_label_1
_geom_bond_atom_site_label_2
_ccdc_geom_bond_type
O17   V3    S    
C51   H11   S    
C40   Br12  S    
C20   Br3   S    
O1    C5    A    
O19   V1    S    
C9    C21   A    
C47   H23   S    
C10   C18   A    
C56   C60   A    
C48   C52   A    
C57   Br13  S    
O15   V3    S    
C37   Br9   S    
C33   C38   A    
C5    C12   S    
O18   V4    S    
C6    C11   S    
C35   C40   A    
C26   C30   A    
C48   C68   A    
C36   C39   A    
C40   C44   A    
O9    V1    S    
C45   H21   S    
C23   H8    S    
C14   C18   A    
C70   H14   S    
O4    C8    A    
C59   C63   A    
C44   H4    S    
C46   C66   A    
C53   C78   S    
C58   C62   A    
O1    V3    S    
O13   V1    S    
O2    V4    S    
C32   C44   A    
O3    V1    S    
C63   H27   S    
C28   C36   A    
C18   Br1   S    
C45   C65   A    
C1    O15   A    
C64   C68   A    
C15   C31   A    
C2    O16   A    
C16   C32   A    
O2    C6    A    
C10   C22   A    
C45   C49   A    
C11   C19   A    
C16   C20   A    
C43   H3    S    
C1    C67   S    
C13   C29   A    
C34   C37   A    
O11   C7    A    
C16   Br8   S    
C11   C23   A    
C35   C36   A    
O12   C8    A    
O10   C6    A    
C24   H7    S    
C47   C67   A    
C71   H15   S    
C71   C80   A    
O10   V2    S    
C46   H22   S    
C54   C58   A    
O5    V1    S    
C39   C43   A    
O7    V3    S    
C38   C42   A    
C58   Br14  S    
C75   C79   A    
C63   C67   A    
C56   C79   S    
C15   C19   A    
C62   H26   S    
O3    C7    A    
C50   H10   S    
C53   C57   A    
O4    V2    S    
C76   H20   S    
C21   H6    S    
C26   C34   A    
O7    C3    A    
C4    C66   S    
C37   C41   A    
C60   Br16  S    
C46   C50   A    
C31   C43   A    
C14   C30   A    
C21   C25   A    
O8    C4    A    
C7    C10   S    
O9    C5    A    
C3    C65   S    
C71   C75   A    
C74   H18   S    
C73   H17   S    
O6    V2    S    
C70   C74   A    
C75   H19   S    
C55   C80   S    
O14   V2    S    
C54   C77   S    
C12   C20   A    
C27   C35   A    
C72   C79   A    
C57   C61   A    
C29   C41   A    
O16   V4    S    
C69   C73   A    
C69   H13   S    
C3    O13   A    
C76   C80   A    
C61   H25   S    
C17   Br2   S    
C59   Br15  S    
C52   H12   S    
O5    C1    A    
C19   Br4   S    
O6    C2    A    
C25   C33   A    
C23   C27   A    
O11   V3    S    
C30   C42   A    
O12   V4    S    
C51   C55   A    
C22   C26   A    
C8    C9    S    
C50   C54   A    
C9    C17   A    
C38   Br10  S    
C2    C68   S    
C49   C53   A    
C62   C66   A    
C47   C51   A    
C72   C76   A    
C33   C34   A    
C42   H2    S    
O8    V4    S    
C15   Br7   S    
C64   H28   S    
C41   H1    S    
C60   C64   A    
C70   C77   A    
O20   V2    S    
C13   Br5   S    
C69   C78   A    
C12   C24   A    
C27   C31   A    
C13   C17   A    
C49   H9    S    
C25   C29   A    
C55   C59   A    
C74   C78   A    
C72   H16   S    
C24   C28   A    
C73   C77   A    
C4    O14   A    
C48   H24   S    
C52   C56   A    
C14   Br6   S    
C22   H5    S    
C61   C65   A    
C28   C32   A    
C39   Br11  S    
