data_mof_unit_19550.cif
_audit_creation_date              2013-03-05T15:58:06-0500
_audit_creation_method            fapswitch 2.2
_symmetry_space_group_name_H-M    P1
_symmetry_Int_Tables_number       1
_space_group_crystal_system       triclinic
_cell_length_a                    15.049154
_cell_length_b                    14.969794
_cell_length_c                    15.034331
_cell_angle_alpha                 110.553574
_cell_angle_beta                  108.828386
_cell_angle_gamma                 108.716207
_cell_volume                      2616.75911309

loop_
_atom_site_label
_atom_site_type_symbol
_atom_site_description
_atom_site_fract_x
_atom_site_fract_y
_atom_site_fract_z
_atom_type_partial_charge
C1    C     C_R   0.976764 0.254403 0.066810 -0.101667
H1    H     H_    0.942034 0.243168 0.116838 0.093480
N1    N     N_R   0.947080 0.293830 0.002870 -0.042028
C2    C     C_R   0.313224 0.752356 0.224436 -0.100435
H2    H     H_    0.379004 0.771336 0.207005 0.114393
N2    N     N_R   0.208950 0.706170 0.152110 -0.048337
C3    C     C_R   0.208569 0.408006 0.902645 -0.142293
H3    H     H_    0.179703 0.323175 0.846822 0.092957
N3    N     N_R   0.153670 0.443180 0.946090 -0.036022
C4    C     C_R   0.990478 0.592410 0.295807 -0.138518
H4    H     H_    0.009518 0.676109 0.343243 0.111885
N4    N     N_R   0.002360 0.556820 0.208890 -0.041505
C5    C     C_R   0.298462 0.589885 0.994545 -0.137845
H5    H     H_    0.353441 0.674448 0.025901 0.123205
N5    N     N_R   0.210070 0.556820 0.002870 -0.031815
C6    C     C_R   0.908376 0.411025 0.210515 -0.129430
H6    H     H_    0.859759 0.326683 0.183606 0.116051
N6    N     N_R   0.945960 0.443180 0.152110 -0.042215
C7    C     C_R   0.217251 0.739441 0.311063 -0.094169
H7    H     H_    0.193609 0.743482 0.372297 0.113198
N7    N     N_R   0.151710 0.706170 0.208890 -0.052063
C8    C     C_R   0.071916 0.257962 0.979414 -0.137993
H8    H     H_    0.129450 0.256241 0.952924 0.122274
N8    N     N_R   0.004320 0.293830 0.946090 -0.043253
C9    C     C_R   0.057257 0.232265 0.056154 0.059453
C10   C     C_R   0.319851 0.775080 0.325341 0.133627
C11   C     C_R   0.299033 0.498197 0.930398 0.019872
C12   C     C_R   0.931578 0.503168 0.299468 0.073404
C13   C     C_R   0.686516 0.407860 0.937529 -0.152989
H9    H     H_    0.624995 0.323236 0.892300 0.084349
N9    N     N_R   0.789930 0.443180 0.997130 -0.037130
C14   C     C_R   0.024693 0.591819 0.780234 -0.105928
H10   H     H_    0.048250 0.675933 0.804280 0.117761
N10   N     N_R   0.054040 0.556820 0.847890 -0.046884
C15   C     C_R   0.789920 0.198578 0.696879 -0.132683
H11   H     H_    0.816282 0.172225 0.638548 0.089724
N11   N     N_R   0.848290 0.293830 0.791110 -0.040605
C16   C     C_R   0.995558 0.800695 0.092919 -0.158919
H12   H     H_    0.973876 0.826817 0.155305 0.121890
N12   N     N_R   0.995680 0.706170 0.053910 -0.046387
C17   C     C_R   0.087015 0.803490 0.002720 -0.126368
H13   H     H_    0.145001 0.832530 0.978137 0.107556
N13   N     N_R   0.052920 0.706170 0.997130 -0.045277
C18   C     C_R   0.701644 0.198566 0.791023 -0.139216
H14   H     H_    0.648251 0.170607 0.820858 0.102035
N14   N     N_R   0.791050 0.293830 0.847890 -0.039717
C19   C     C_R   0.776308 0.591576 0.026949 -0.014764
H15   H     H_    0.795875 0.676349 0.063035 0.110729
N15   N     N_R   0.846330 0.556820 0.053910 -0.046831
C20   C     C_R   0.942523 0.408677 0.684940 -0.142819
H16   H     H_    0.896578 0.324423 0.619478 0.095735
N16   N     N_R   0.997640 0.443180 0.791110 -0.042097
Ni1   Ni    Ni4+2 0.869690 0.369690 0.000000 0.222880
Ni2   Ni    Ni4+2 0.130310 0.630310 0.000000 0.228782
Ni3   Ni    Ni4+2 0.000970 0.369690 0.869780 0.212792
Ni4   Ni    Ni4+2 0.999030 0.630310 0.130220 0.229123
C21   C     C_R   0.674663 0.499271 0.953885 0.000003
C22   C     C_R   0.960186 0.501736 0.676508 0.066131
C23   C     C_R   0.698259 0.137983 0.695924 0.068293
C24   C     C_R   0.051370 0.864627 0.061946 0.064729
C25   C     C_R   0.629601 0.244806 0.083429 -0.294591
H17   H     H_    0.591121 0.257586 0.018468 0.106109
C26   C     C_R   0.685739 0.331159 0.190969 -0.192253
H18   H     H_    0.690371 0.409351 0.206722 0.135606
C27   C     C_R   0.746320 0.320815 0.276135 0.149955
C28   C     C_R   0.741496 0.219343 0.253163 -0.299178
H19   H     H_    0.789110 0.209940 0.317141 0.145111
C29   C     C_R   0.684222 0.132688 0.145443 -0.173648
H20   H     H_    0.685963 0.056974 0.128348 0.179029
C30   C     C_R   0.629359 0.145170 0.059666 0.649020
C31   C     C_R   0.844950 0.422156 0.479099 -0.250612
H21   H     H_    0.788520 0.353334 0.476615 0.136921
C32   C     C_R   0.936094 0.508468 0.578248 0.033455
C33   C     C_R   0.009038 0.598671 0.581613 0.145172
C34   C     C_R   0.987191 0.603594 0.488631 -0.157288
H22   H     H_    0.046957 0.673077 0.495066 0.129925
C35   C     C_R   0.909049 0.510266 0.388162 0.011309
C36   C     C_R   0.831963 0.420269 0.382034 0.051266
C37   C     C_R   0.154199 0.785697 0.737847 0.332950
C38   C     C_R   0.256445 0.852261 0.833941 0.333538
C39   C     C_R   0.326933 0.810079 0.854701 -0.136495
C40   C     C_R   0.296906 0.704115 0.779034 -0.269709
H23   H     H_    0.351608 0.672322 0.791713 0.163211
C41   C     C_R   0.193629 0.635937 0.690126 -0.221687
H24   H     H_    0.169631 0.551848 0.636296 0.149701
C42   C     C_R   0.120722 0.675100 0.671907 -0.012873
H25   H     H_    0.058179 0.980047 0.435580 0.109265
C43   C     C_R   0.178911 0.989254 0.385979 -0.118335
H26   H     H_    0.144249 0.005703 0.322853 0.116624
C44   C     C_R   0.272230 0.981610 0.403302 -0.130231
H27   H     H_    0.308116 0.991913 0.353199 0.121362
C45   C     C_R   0.317314 0.957846 0.483273 0.111675
C46   C     C_R   0.270668 0.946049 0.548581 -0.180689
H28   H     H_    0.305564 0.928785 0.611430 0.129069
C47   C     C_R   0.177213 0.953940 0.530999 -0.127283
H29   H     H_    0.140320 0.943193 0.580162 0.119455
C48   C     C_R   0.130963 0.974908 0.449306 -0.097798
C49   C     C_R   0.508452 0.034624 0.586297 -0.221627
H30   H     H_    0.506371 0.106800 0.634705 0.128931
C50   C     C_R   0.605256 0.035457 0.607542 0.062779
C51   C     C_R   0.609502 0.941865 0.547834 -0.076064
C52   C     C_R   0.511925 0.846848 0.458999 -0.144862
C53   C     C_R   0.415792 0.854221 0.430927 -0.020170
C54   C     C_R   0.414235 0.946142 0.500013 0.019186
C55   C     C_R   0.772378 0.963383 0.527748 -0.077811
H31   H     H_    0.741107 0.977975 0.461728 0.115829
C56   C     C_R   0.871641 0.965842 0.560065 -0.079665
H32   H     H_    0.916183 0.980362 0.518159 0.099130
C57   C     C_R   0.913923 0.950015 0.647046 -0.082521
H33   H     H_    0.990398 0.951447 0.671042 0.117926
C58   C     C_R   0.857724 0.932881 0.702870 -0.090383
H34   H     H_    0.891185 0.921609 0.770932 0.120497
C59   C     C_R   0.758188 0.930086 0.670598 -0.115485
H35   H     H_    0.715043 0.916677 0.714133 0.118652
C60   C     C_R   0.714570 0.944264 0.582066 0.164642
C61   C     C_3   0.473227 0.395374 0.833780 -0.492555
H36   H     H_    0.471367 0.318147 0.824903 0.152112
H37   H     H_    0.475514 0.399320 0.761944 0.192294
C62   C     C_3   0.368612 0.389820 0.832021 -0.421124
H38   H     H_    0.313629 0.376786 0.752796 0.167024
H39   H     H_    0.326771 0.318549 0.838432 0.164659
H40   H     H_    0.553673 0.420763 0.036017 0.020152
H41   H     H_    0.416263 0.446910 0.050821 0.143286
C63   C     C_3   0.563220 0.499365 0.041154 0.397339
C64   C     C_3   0.572018 0.600351 0.937737 -0.400439
C65   C     C_3   0.573071 0.498651 0.940952 0.308018
H42   H     H_    0.634309 0.673708 0.017870 0.191405
H43   H     H_    0.590244 0.609056 0.874194 0.156741
C66   C     C_3   0.395789 0.497378 0.927934 0.323713
C67   C     C_3   0.464546 0.509656 0.037771 -0.474714
C68   C     C_3   0.461926 0.592331 0.916619 -0.400578
H44   H     H_    0.417948 0.574724 0.832269 0.162681
H45   H     H_    0.474694 0.672100 0.973118 0.210580
H46   H     H_    0.490360 0.590788 0.105860 0.205847
H47   H     H_    0.425548 0.231682 0.916386 0.068566
C69   C     C_R   0.262082 0.142360 0.876364 -0.089777
H48   H     H_    0.232449 0.100946 0.789351 0.093151
C70   C     C_R   0.192119 0.118548 0.917200 -0.226591
H49   H     H_    0.108550 0.056611 0.861860 0.118315
C71   C     C_R   0.230793 0.171936 0.030095 0.125546
C72   C     C_R   0.339571 0.249214 0.101786 -0.113080
H50   H     H_    0.370789 0.288879 0.189155 0.114701
C73   C     C_R   0.409671 0.270811 0.060907 -0.104233
H51   H     H_    0.493591 0.329691 0.117185 0.107486
C74   C     C_R   0.371306 0.216480 0.948397 -0.027367
C75   C     C_R   0.159058 0.039086 0.079518 -0.224731
H52   H     H_    0.210119 0.008741 0.059868 0.156168
C76   C     C_R   0.081417 0.980522 0.098439 0.039071
C77   C     C_R   0.031951 0.034230 0.145122 0.013625
C78   C     C_R   0.054810 0.137481 0.159870 -0.218225
H53   H     H_    0.018174 0.177645 0.197855 0.127663
C79   C     C_R   0.100830 0.174386 0.103757 0.054457
C80   C     C_R   0.163394 0.130751 0.073250 0.021158
C81   C     C_R   0.836992 0.916120 0.069265 -0.150474
H54   H     H_    0.825033 0.895511 0.988135 0.130233
C82   C     C_R   0.747819 0.880079 0.083675 -0.215838
H55   H     H_    0.668428 0.831037 0.012948 0.191878
C83   C     C_R   0.761760 0.904285 0.187910 0.036705
C84   C     C_R   0.865310 0.972960 0.278442 -0.171930
H56   H     H_    0.877135 0.996774 0.359859 0.116527
C85   C     C_R   0.953731 0.015453 0.264679 -0.208007
H57   H     H_    0.031788 0.075558 0.335850 0.118318
C86   C     C_R   0.940819 0.982328 0.159696 0.120540
O1    O     O_3   0.579529 0.060551 0.953948 -0.755732
H58   H     H_    0.543345 0.081753 0.903596 0.298431
O2    O     O_3   0.083921 0.824107 0.709447 -0.780255
H59   H     H_    0.126753 0.903385 0.738617 0.307499
O3    O     O_3   0.287684 0.956406 0.909799 -0.725458
H60   H     H_    0.221945 0.956882 0.908495 0.318070
C87   C     C_2   0.428390 0.872553 0.959110 1.165573
O4    O     O_2   0.505462 0.859954 0.962686 -0.656700
O5    O     O_R   0.434956 0.943564 0.054212 -0.764854
H61   H     H_    0.506228 0.977623 0.121758 0.333628
C88   C     C_2   0.507417 0.739197 0.401053 0.971957
O6    O     O_2   0.589738 0.734081 0.414279 -0.633576
O7    O     O_R   0.408561 0.642031 0.334393 -0.803624
H62   H     H_    0.416168 0.575222 0.300138 0.321647
O8    O     O_3   0.655803 0.586012 0.140020 -0.741761
H63   H     H_    0.653239 0.569423 0.197851 0.330529
C89   C     C_2   0.669404 0.856846 0.202799 0.936033
O9    O     O_2   0.583801 0.850055 0.151062 -0.689525
O10   O     O_R   0.679625 0.817840 0.275166 -0.768635
H64   H     H_    0.609563 0.784073 0.275141 0.332307

loop_
_geom_bond_atom_site_label_1
_geom_bond_atom_site_label_2
_geom_bond_distance
_ccdc_geom_bond_type
C25   C30   1.404937 A    
C6    C12   1.381044 A    
C28   C29   1.398130 A    
C26   C27   1.403911 A    
C46   H28   1.083368 S    
C56   C57   1.395817 A    
C17   H13   1.079179 S    
C43   C44   1.393248 A    
C47   H29   1.082366 S    
C14   C22   1.378001 A    
C85   H57   1.081090 S    
C3    H3    1.080741 S    
C19   N15   1.330288 A    
C68   H45   1.104334 S    
C35   C36   1.417791 A    
O5    H61   1.011968 S    
N8    Ni3   1.876859 S    
C66   C68   1.552790 S    
C55   C56   1.397353 A    
C51   C52   1.422325 A    
C9    C79   1.479872 S    
O1    H58   0.991901 S    
C7    N7    1.322915 A    
N2    Ni2   1.867362 S    
C66   C67   1.547009 S    
C57   C58   1.398425 A    
C16   H12   1.077493 S    
C49   C54   1.359656 A    
N9    Ni1   1.870902 S    
C87   O4    1.221072 D    
C18   C23   1.371917 A    
C73   H51   1.077029 S    
C3    C11   1.381510 A    
C61   H36   1.106148 S    
C15   C23   1.378722 A    
C1    H1    1.073921 S    
C32   C33   1.412759 A    
C25   C26   1.395972 A    
C7    C10   1.375420 A    
C83   C89   1.471460 S    
C88   O6    1.221777 D    
C50   C51   1.408614 A    
C59   H35   1.083131 S    
N6    Ni1   1.867168 S    
O10   H64   1.012312 S    
C41   H24   1.083602 S    
N12   N13   1.394772 A    
C15   H11   1.078982 S    
C18   N14   1.320978 A    
C6    H6    1.072635 S    
N12   Ni4   1.876862 S    
C8    C9    1.396128 A    
C64   H43   1.112860 S    
C20   N16   1.339479 A    
C56   H32   1.081088 S    
C84   C85   1.394653 A    
C77   C86   1.470460 S    
C57   H33   1.079764 S    
C81   C82   1.394273 A    
C43   C48   1.400291 A    
N16   Ni3   1.876823 S    
C71   C80   1.460888 S    
C25   H17   1.078433 S    
C28   H19   1.083222 S    
C46   C47   1.396573 A    
C61   C65   1.562506 S    
C5    H5    1.079957 S    
C1    C9    1.395873 A    
C23   C50   1.438455 S    
C17   N13   1.341353 A    
N1    N8    1.394774 A    
C67   H46   1.114193 S    
N9    N15   1.388919 A    
C85   C86   1.401946 A    
C89   O10   1.394283 S    
O8    H63   0.993074 S    
C75   C76   1.395348 A    
C62   H39   1.106477 S    
C33   C34   1.363424 A    
C20   C22   1.391221 A    
N5    Ni2   1.870901 S    
C81   C86   1.400343 A    
C76   C77   1.420654 A    
C69   C70   1.393777 A    
C70   H49   1.080813 S    
C21   C65   1.474134 S    
C31   C32   1.401202 A    
C29   H20   1.081780 S    
H47   C74   1.077505 S    
N2    N7    1.394774 A    
C40   H23   1.074433 S    
C39   C40   1.398441 A    
C26   H18   1.083223 S    
C1    N1    1.327569 A    
C14   N10   1.317914 A    
C34   H22   1.083067 S    
C13   H9    1.077239 S    
C78   C79   1.398352 A    
C10   C53   1.452728 S    
C19   C21   1.396073 A    
C64   C68   1.538249 S    
N13   Ni2   1.870467 S    
C44   C45   1.400403 A    
C84   H56   1.081346 S    
C20   H16   1.080264 S    
C63   C67   1.528083 S    
C58   C59   1.399056 A    
C39   C87   1.475025 S    
C71   C72   1.396455 A    
C12   C35   1.455951 S    
C34   C35   1.390562 A    
C81   H54   1.083414 S    
N4    Ni4   1.876822 S    
C4    N4    1.321558 A    
N3    Ni3   1.896559 S    
C2    N2    1.340649 A    
O7    H62   1.014127 S    
C13   C21   1.383294 A    
C27   C28   1.405925 A    
C40   C41   1.388199 A    
C5    N5    1.326124 A    
H41   C67   1.110029 S    
C64   C65   1.545003 S    
C51   C60   1.480411 S    
C16   C24   1.373952 A    
C52   C88   1.505476 S    
H40   C63   1.109804 S    
C68   H44   1.107835 S    
C18   H14   1.081961 S    
C63   C65   1.557376 S    
C75   H52   1.077232 S    
C4    C12   1.377174 A    
C73   C74   1.399394 A    
O3    H60   0.985536 S    
C27   C36   1.480606 S    
C58   H34   1.082722 S    
C15   N11   1.336535 A    
C78   H53   1.080028 S    
C63   O8    1.408099 S    
C55   C60   1.403048 A    
C5    C11   1.377497 A    
C69   C74   1.393764 A    
C17   C24   1.403344 A    
C41   C42   1.397917 A    
C38   C39   1.405679 A    
C19   H15   1.079408 S    
C30   O1    1.378584 S    
N7    Ni4   1.896357 S    
C2    C10   1.394736 A    
C62   H38   1.112885 S    
C47   C48   1.396616 A    
N10   Ni2   1.867170 S    
C70   C71   1.403445 A    
C33   C42   1.476263 S    
N15   Ni4   1.896556 S    
C75   C80   1.390458 A    
C55   H31   1.082170 S    
N10   N16   1.388920 A    
C61   C62   1.540724 S    
C14   H10   1.073801 S    
C7    H7    1.078847 S    
C72   C73   1.390792 A    
N3    N5    1.388918 A    
C31   H21   1.083986 S    
C13   N9    1.320478 A    
C72   H50   1.083350 S    
C16   N12   1.328876 A    
N1    Ni1   1.870468 S    
C44   H27   1.083308 S    
C83   C84   1.399334 A    
O2    H59   0.988649 S    
C87   O5    1.399383 S    
C11   C66   1.472315 S    
N14   Ni1   1.867364 S    
C82   C83   1.404066 A    
C45   C46   1.405385 A    
C62   C66   1.550985 S    
C61   H37   1.112906 S    
C8    N8    1.335893 A    
C31   C36   1.397136 A    
C37   O2    1.379363 S    
C52   C53   1.422806 A    
C49   C50   1.381917 A    
C88   O7    1.399526 S    
C4    H4    1.082064 S    
C45   C54   1.476323 S    
C37   C38   1.420590 A    
N11   Ni3   1.896356 S    
C3    N3    1.331342 A    
C2    H2    1.081019 S    
C82   H55   1.079836 S    
C43   H26   1.077224 S    
C6    N6    1.328641 A    
C49   H30   1.087347 S    
N4    N6    1.388918 A    
C53   C54   1.416216 A    
C64   H42   1.103417 S    
C29   C30   1.400217 A    
C8    H8    1.067063 S    
C69   H48   1.082172 S    
C79   C80   1.409458 A    
C24   C76   1.477667 S    
C59   C60   1.404061 A    
N11   N14   1.394774 A    
C77   C78   1.387606 A    
C38   O3    1.373803 S    
C37   C42   1.402683 A    
C89   O9    1.220073 D    
C22   C32   1.451268 S    
H25   C48   1.080557 S    
