data_mof_unit_50254.cif
_audit_creation_date              2012-12-11T15:53:45-0500
_audit_creation_method            fapswitch 2.2
_symmetry_space_group_name_H-M    P1
_symmetry_Int_Tables_number       1
_space_group_crystal_system       triclinic
_cell_length_a                    10.607863
_cell_length_b                    10.706117
_cell_length_c                    17.016414
_cell_angle_alpha                 80.605805
_cell_angle_beta                  99.427401
_cell_angle_gamma                 118.810068
_cell_volume                      1662.50036006

loop_
_atom_site_label
_atom_site_type_symbol
_atom_type_description
_atom_site_fract_x
_atom_site_fract_y
_atom_site_fract_z
_atom_type_partial_charge
C1    C     C_R   0.384939 0.284907 0.632073 0.556820
C2    C     C_1   0.334069 0.186862 0.781593 -0.055552
C3    C     C_1   0.318287 0.681485 0.280154 -0.062013
C4    C     C_R   0.369181 0.654760 0.586094 0.536658
C5    C     C_1   0.297064 0.705157 0.209586 -0.072050
C6    C     C_R   0.809246 0.658541 0.151869 0.012192
C7    C     C_R   0.777362 0.529481 0.199853 0.033092
C8    C     C_R   0.766527 0.521061 0.279577 0.023076
C9    C     C_R   0.794211 0.760438 0.264656 -0.154879
C10   C     C_R   0.802499 0.768968 0.182809 -0.149121
C11   C     C_3   0.850143 0.435386 0.215622 -0.128359
C12   C     C_R   0.393481 0.830247 0.674397 -0.135793
C13   C     C_3   0.832799 0.423465 0.303524 -0.267788
C14   C     C_R   0.789976 0.640291 0.314622 0.011419
C15   C     C_R   0.297810 0.110834 0.170933 0.025811
C16   C     C_R   0.781392 0.621030 0.626195 0.545593
C17   C     C_R   0.252194 0.205467 0.186542 0.041177
C18   C     C_R   0.268936 0.238426 0.262292 0.033704
C19   C     C_R   0.401609 0.104943 0.308014 -0.168316
C20   C     C_R   0.383366 0.069636 0.230338 -0.157079
C21   C     C_3   0.109948 0.207065 0.167868 -0.255085
C22   C     C_3   0.128606 0.243526 0.252649 -0.260400
C23   C     C_R   0.376746 0.852200 0.750103 -0.151287
C24   C     C_R   0.331698 0.178530 0.324791 0.019703
C25   C     C_R   0.947559 0.724892 0.851695 0.538439
C26   C     C_R   0.281571 0.750808 0.882684 0.550635
C27   C     C_R   0.286901 0.118803 0.858388 0.546551
C28   C     C_R   0.350298 0.224234 0.401200 0.556590
C29   C     C_R   0.883420 0.689523 0.082112 0.546677
C30   C     C_R   0.284531 0.738088 0.125651 0.541525
C31   C     C_R   0.255005 0.053482 0.095706 0.533182
C32   C     C_R   0.362158 0.656712 0.361616 0.550924
C33   C     C_R   0.766148 0.619267 0.397484 0.548618
C34   C     C_3   0.127017 0.458480 0.792853 -0.244553
C35   C     C_R   0.279863 0.737401 0.798409 -0.003138
C36   C     C_R   0.180112 0.612788 0.762554 0.009071
C37   C     C_R   0.197161 0.590558 0.688049 0.012623
C38   C     C_1   0.763709 0.299385 0.179358 0.215370
C39   C     C_3   0.146120 0.434273 0.711107 -0.251614
C40   C     C_R   0.314163 0.692774 0.646904 0.014013
C41   C     C_1   0.850899 0.669237 0.702672 -0.033264
C42   C     C_1   0.897890 0.703741 0.769350 -0.037115
C43   C     C_1   0.365342 0.233807 0.714400 -0.054877
Cr1   Cr    Cr6+3 0.608440 0.389080 0.519680 1.017784
Cr2   Cr    Cr6+3 0.288640 0.400090 0.490760 1.009203
Cr3   Cr    Cr6+3 0.602940 0.710800 0.489510 1.019756
Cr4   Cr    Cr6+3 0.052530 0.947560 0.964210 1.015207
Cr5   Cr    Cr6+3 0.059970 0.626800 0.992920 1.012245
Cr6   Cr    Cr6+3 0.373320 0.938440 0.995370 1.043972
H1    H     H_    0.479178 0.916273 0.641833 0.147363
H2    H     H_    0.447719 0.954708 0.773226 0.142493
H3    H     H_    0.012008 0.405767 0.805488 0.153822
H4    H     H_    0.202010 0.440551 0.841625 0.165091
H5    H     H_    0.232520 0.403405 0.712912 0.149111
H6    H     H_    0.042273 0.367109 0.676727 0.150454
H7    H     H_    0.797061 0.849298 0.288951 0.140804
H8    H     H_    0.818631 0.867033 0.146025 0.141344
H9    H     H_    0.965492 0.490616 0.203396 0.132093
H10   H     H_    0.753766 0.315653 0.328438 0.152650
H11   H     H_    0.937711 0.473712 0.341023 0.127223
H12   H     H_    0.463085 0.069552 0.354867 0.131965
H13   H     H_    0.428172 0.003870 0.217958 0.152949
H14   H     H_    0.017667 0.100094 0.157137 0.142344
H15   H     H_    0.115078 0.295743 0.121970 0.166457
H16   H     H_    0.144248 0.353121 0.255656 0.153642
H17   H     H_    0.047373 0.157133 0.290758 0.142842
N1    N     N_1   0.696458 0.192506 0.150629 -0.291591
O1    O     O_R   0.754020 0.497590 0.609930 -0.514362
O2    O     O_R   0.406180 0.826930 0.920660 -0.492117
O3    O     O_R   0.358620 0.062870 0.901950 -0.509156
O4    O     O_R   0.481420 0.271390 0.600630 -0.491881
O5    O     O_R   0.163910 0.085460 0.050210 -0.512239
O6    O     O_R   0.935200 0.815170 0.045770 -0.513399
O7    O     O_R   0.916120 0.596690 0.069430 -0.519828
O8    O     O_R   0.192310 0.631200 0.086170 -0.494596
O9    O     O_R   0.406770 0.819480 0.096420 -0.482421
O10   O     O_R   0.359170 0.055960 0.064880 -0.484884
O11   O     O_3   0.161940 0.837600 0.984160 -0.330539
O12   O     O_R   0.295080 0.533620 0.397890 -0.503245
O13   O     O_R   0.263810 0.254550 0.589590 -0.510319
O14   O     O_R   0.300820 0.531200 0.560890 -0.515461
O15   O     O_R   0.491480 0.744020 0.564270 -0.519748
O16   O     O_R   0.726290 0.693800 0.583010 -0.492968
O17   O     O_R   0.747830 0.500190 0.434090 -0.516701
O18   O     O_R   0.475680 0.273800 0.437630 -0.498464
O19   O     O_R   0.257620 0.257160 0.413750 -0.517250
O20   O     O_R   0.485280 0.746620 0.388440 -0.510302
O21   O     O_R   0.720550 0.696220 0.420010 -0.501798
O22   O     O_3   0.500010 0.499990 0.499980 -0.261553
O23   O     O_R   0.163320 0.092900 0.874450 -0.506999
O24   O     O_R   0.934650 0.822080 0.882840 -0.476040
O25   O     O_R   0.915520 0.604140 0.893670 -0.503022
O26   O     O_R   0.191760 0.638110 0.923230 -0.501115

loop_
_geom_bond_atom_site_label_1
_geom_bond_atom_site_label_2
_ccdc_geom_bond_type
C8    C13   S    
C41   C42   T    
C19   C20   A    
C14   C33   S    
C7    C8    A    
C13   H11   S    
C7    C11   S    
C12   C23   A    
C1    O4    A    
C27   O23   A    
C18   C24   A    
C36   C37   A    
C33   O21   A    
C5    C30   S    
C37   C40   A    
C39   H5    S    
C29   O6    A    
Cr6   O11   S    
Cr1   O4    S    
Cr5   O11   S    
C22   H17   S    
C21   H15   S    
Cr3   O15   S    
C1    C43   S    
C39   H6    S    
C4    O14   A    
C4    C40   S    
C2    C27   S    
C16   O1    A    
C11   H9    S    
Cr2   O22   S    
C9    C10   A    
C26   O26   A    
Cr6   O2    S    
C21   C22   S    
Cr5   O8    S    
C31   O10   A    
Cr3   O21   S    
C15   C20   A    
C25   O24   A    
Cr5   O26   S    
C34   C39   S    
Cr5   O7    S    
C10   H8    S    
Cr4   O6    S    
Cr3   O22   S    
C29   O7    A    
C3    C5    T    
C32   O20   A    
C16   O16   A    
C17   C21   S    
C35   C36   A    
C12   C40   A    
C11   C38   S    
C9    C14   A    
C22   H16   S    
C30   O9    A    
C23   H2    S    
C2    C43   T    
C17   C18   A    
Cr6   O9    S    
Cr2   O12   S    
C9    H7    S    
C27   O3    A    
C31   O5    A    
C23   C35   A    
Cr6   O3    S    
C28   O19   A    
Cr4   O23   S    
Cr1   O1    S    
Cr1   O18   S    
Cr3   O20   S    
C15   C17   A    
C25   O25   A    
C8    C14   A    
C18   C22   S    
Cr4   O24   S    
Cr2   O14   S    
C24   C28   S    
Cr1   O17   S    
C25   C42   S    
C6    C10   A    
C12   H1    S    
C15   C31   S    
C6    C7    A    
C13   H10   S    
C34   H3    S    
Cr2   O19   S    
C37   C39   S    
C32   O12   A    
C30   O8    A    
C11   C13   S    
C19   H12   S    
Cr6   O10   S    
C19   C24   A    
Cr2   O13   S    
C34   C36   S    
C20   H13   S    
C3    C32   S    
C33   O17   A    
Cr4   O5    S    
C21   H14   S    
Cr3   O16   S    
C26   C35   S    
C6    C29   S    
C4    O15   A    
C38   N1    T    
C34   H4    S    
Cr5   O25   S    
C28   O18   A    
C26   O2    A    
C1    O13   A    
Cr4   O11   S    
C16   C41   S    
Cr1   O22   S    
