data_mof_unit_13253.cif
_audit_creation_date              2012-12-10T17:23:09-0500
_audit_creation_method            fapswitch 2.2
_symmetry_space_group_name_H-M    P1
_symmetry_Int_Tables_number       1
_space_group_crystal_system       triclinic
_cell_length_a                    15.849855
_cell_length_b                    10.763484
_cell_length_c                    9.614218
_cell_angle_alpha                 90.014574
_cell_angle_beta                  90.081332
_cell_angle_gamma                 92.717808
_cell_volume                      1638.33569243

loop_
_atom_site_label
_atom_site_type_symbol
_atom_type_description
_atom_site_fract_x
_atom_site_fract_y
_atom_site_fract_z
_atom_type_partial_charge
C1    C     C_R   0.497425 0.262637 0.499990 0.786473
C2    C     C_3   0.083226 0.504769 0.502283 0.118737
C3    C     C_3   0.979117 0.621613 0.544665 0.057991
C4    C     C_3   0.917290 0.512917 0.504863 0.127617
C5    C     C_3   0.032897 0.595246 0.414750 -0.230108
C6    C     C_3   0.970089 0.485800 0.374628 -0.167619
C7    C     C_1   0.174798 0.501728 0.500907 -0.076498
C8    C     C_1   0.825492 0.508693 0.502532 -0.077074
C9    C     C_R   0.358272 0.119772 0.632648 -0.186212
C10   C     C_R   0.292776 0.050157 0.696511 -0.146864
C11   C     C_R   0.292873 0.920914 0.696709 -0.141240
C12   C     C_R   0.339987 0.499296 0.499931 0.801942
C13   C     C_R   0.358476 0.860472 0.633049 -0.168737
C14   C     C_R   0.425976 0.929142 0.568677 0.099851
C15   C     C_R   0.425867 0.060500 0.568528 0.096134
C16   C     C_R   0.492037 0.128452 0.499786 -0.097868
C17   C     C_R   0.554497 0.067943 0.427815 -0.193982
C18   C     C_R   0.554609 0.939785 0.427909 -0.211578
C19   C     C_R   0.492249 0.870480 0.499966 -0.084391
C20   C     C_R   0.612269 0.665825 0.144043 -0.135463
C21   C     C_R   0.667141 0.746859 0.072039 -0.208226
C22   C     C_R   0.667218 0.746768 0.928692 -0.201970
C23   C     C_R   0.497776 0.737070 0.500011 0.760992
C24   C     C_R   0.612327 0.665767 0.856410 -0.132635
C25   C     C_R   0.555125 0.581549 0.925365 0.207928
C26   C     C_R   0.555105 0.581527 0.074851 0.210121
C27   C     C_R   0.447590 0.422367 0.073677 -0.055108
C28   C     C_R   0.447606 0.422400 0.925898 -0.055296
C29   C     C_R   0.660019 0.500876 0.500159 0.806378
C30   C     C_3   0.968029 0.422419 0.592510 -0.178917
C31   C     C_3   0.021624 0.396644 0.462798 0.216685
C32   C     C_1   0.250310 0.500178 0.500088 -0.185545
C33   C     C_1   0.749817 0.504608 0.500852 -0.186696
C34   C     C_3   0.030921 0.531891 0.632399 -0.228146
Cu1   Cu    Cu3+1 0.499990 0.499990 0.640660 0.928584
Cu2   Cu    Cu3+1 0.500010 0.500010 0.359340 0.936864
H1    H     H_    0.241440 0.867194 0.745123 0.131511
H2    H     H_    0.354735 0.759984 0.632730 0.150110
H3    H     H_    0.604651 0.894386 0.373892 0.133717
H4    H     H_    0.404600 0.358642 0.128570 0.137952
H5    H     H_    0.617695 0.673467 0.253700 0.190165
H6    H     H_    0.710038 0.810154 0.128235 0.146347
H7    H     H_    0.710215 0.809924 0.872739 0.146029
H8    H     H_    0.617744 0.673402 0.746750 0.193386
H9    H     H_    0.404637 0.358675 0.870700 0.134900
H10   H     H_    0.940787 0.351134 0.665165 0.129424
H11   H     H_    0.944480 0.466762 0.268813 0.136867
H12   H     H_    0.060477 0.666141 0.341945 0.143905
H13   H     H_    0.056865 0.550885 0.738021 0.141709
H14   H     H_    0.604444 0.120452 0.373716 0.150014
H15   H     H_    0.354370 0.219783 0.631884 0.133781
H16   H     H_    0.241274 0.096681 0.744751 0.124577
N1    N     N_R   0.500800 0.501210 0.147910 -0.198400
N2    N     N_R   0.500830 0.501290 0.852040 -0.198084
O1    O     O_R   0.499990 0.319640 0.618810 -0.576191
O2    O     O_R   0.500000 0.319660 0.381240 -0.574025
O3    O     O_R   0.379070 0.499980 0.618770 -0.586550
O4    O     O_R   0.379080 0.500000 0.381190 -0.568482
O5    O     O_R   0.500000 0.680340 0.618760 -0.601190
O6    O     O_R   0.500010 0.680360 0.381190 -0.589076
O7    O     O_R   0.620920 0.500000 0.618810 -0.588341
O8    O     O_R   0.620930 0.500020 0.381230 -0.590454
C35   C     C_3   0.047966 0.268087 0.417519 -0.423610
C36   C     C_3   0.971583 0.184426 0.376578 -0.822983
H17   H     H_    0.925544 0.176888 0.463420 0.253045
H18   H     H_    0.940079 0.222535 0.283706 0.244842
H19   H     H_    0.992380 0.089978 0.351315 0.251334
H20   H     H_    0.091548 0.278243 0.327442 0.204942
H21   H     H_    0.081973 0.224614 0.504655 0.199221
C37   C     C_R   0.964479 0.752114 0.593153 0.114525
C38   C     C_R   0.034629 0.834839 0.614532 -0.159482
C39   C     C_R   0.023601 0.956111 0.660816 -0.130502
C40   C     C_R   0.942487 0.995801 0.686676 -0.107929
C41   C     C_R   0.872320 0.914399 0.665743 -0.148259
C42   C     C_R   0.883080 0.792968 0.619379 -0.150812
H22   H     H_    0.097961 0.805270 0.595390 0.128083
H23   H     H_    0.077957 0.019243 0.676752 0.120854
H24   H     H_    0.934002 0.089694 0.722621 0.117633
H25   H     H_    0.809481 0.945308 0.685792 0.122758
H26   H     H_    0.827740 0.732094 0.605488 0.126612

loop_
_geom_bond_atom_site_label_1
_geom_bond_atom_site_label_2
_ccdc_geom_bond_type
C40   C41   A    
C2    C7    S    
C9    H15   S    
C4    C8    S    
C10   H16   S    
C20   H5    S    
C23   O5    A    
C1    O2    A    
Cu2   O4    S    
C38   H22   S    
C15   C16   A    
C29   C33   S    
Cu1   O5    S    
C18   C19   A    
C11   H1    S    
Cu2   N1    S    
C35   H20   S    
C35   H21   S    
C16   C17   A    
C40   H24   S    
C37   C38   A    
C42   H26   S    
C12   O4    A    
C2    C34   S    
C6    C31   S    
C21   C22   A    
C12   C32   S    
Cu1   N2    S    
Cu2   O8    S    
C23   O6    A    
C5    H12   S    
C29   O7    A    
C28   H9    S    
C6    H11   S    
C30   C34   S    
Cu1   O1    S    
C36   H19   S    
C31   C35   S    
C3    C37   S    
C25   N2    A    
C4    C6    S    
C41   C42   A    
C28   N2    A    
C3    C34   S    
C3    C5    S    
C25   C26   A    
C35   C36   S    
C2    C31   S    
Cu1   Cu2   S    
C36   H18   S    
C19   C23   S    
C18   H3    S    
C39   H23   S    
Cu2   O2    S    
C22   H7    S    
C27   H4    S    
C17   C18   A    
Cu1   O7    S    
C1    C16   S    
C24   C25   A    
C13   H2    S    
C12   O3    A    
C41   H25   S    
C24   H8    S    
C22   C24   A    
C2    C5    S    
C3    C4    S    
C26   N1    A    
C37   C42   A    
C9    C10   A    
C29   O8    A    
C34   H13   S    
C7    C32   T    
C14   C19   A    
C30   H10   S    
C39   C40   A    
Cu2   O6    S    
C17   H14   S    
C27   N1    A    
Cu1   O3    S    
C36   H17   S    
C1    O1    A    
C38   C39   A    
C11   C13   A    
C30   C31   S    
C5    C6    S    
C20   C26   A    
C8    C33   T    
C9    C15   A    
C10   C11   A    
C21   H6    S    
C20   C21   A    
C27   C28   A    
C14   C15   A    
C13   C14   A    
C4    C30   S    
