data_mof_unit_32191.cif
_audit_creation_date              2012-12-10T17:26:23-0500
_audit_creation_method            fapswitch 2.2
_symmetry_space_group_name_H-M    P1
_symmetry_Int_Tables_number       1
_space_group_crystal_system       triclinic
_cell_length_a                    10.110693
_cell_length_b                    10.938381
_cell_length_c                    27.310177
_cell_angle_alpha                 90.569904
_cell_angle_beta                  79.917238
_cell_angle_gamma                 96.784118
_cell_volume                      2952.71264823

loop_
_atom_site_label
_atom_site_type_symbol
_atom_type_description
_atom_site_fract_x
_atom_site_fract_y
_atom_site_fract_z
_atom_type_partial_charge
C1    C     C_R   0.558030 0.732423 0.494638 0.798651
C2    C     C_R   0.594713 0.659387 0.116152 -0.116737
C3    C     C_R   0.499264 0.510118 0.647728 -0.280418
C4    C     C_R   0.514776 0.541333 0.351984 -0.282191
C5    C     C_R   0.634597 0.617121 0.012563 -0.003272
C6    C     C_R   0.503025 0.399873 0.975951 -0.003493
C7    C     C_R   0.471159 0.429592 0.026975 -0.100915
C8    C     C_R   0.666739 0.586153 0.961583 -0.095945
C9    C     C_R   0.544250 0.533429 0.045495 0.015916
C10   C     C_R   0.589258 0.485776 0.943206 0.014431
C11   C     C_R   0.679030 0.733264 0.031442 -0.124170
C12   C     C_R   0.441413 0.266893 0.501737 0.799478
C13   C     C_R   0.459614 0.284302 0.956244 -0.125159
C14   C     C_R   0.671528 0.749452 0.082855 0.424725
C15   C     C_R   0.458264 0.273331 0.904988 0.434312
C16   C     C_R   0.499413 0.501847 0.594242 0.973360
C17   C     C_R   0.504242 0.510215 0.405488 0.905920
C18   C     C_R   0.780832 0.644663 0.928552 0.315533
C19   C     C_R   0.358870 0.367111 0.059433 0.317312
C20   C     C_2   0.592526 0.863235 0.481608 0.187722
C21   C     C_2   0.404325 0.132801 0.499945 0.132735
C22   C     C_2   0.498928 0.938261 0.500622 0.333102
C23   C     C_R   0.600610 0.469464 0.891555 -0.203001
C24   C     C_2   0.504729 0.064304 0.481723 0.318067
C25   C     C_2   0.935018 0.523669 0.495829 -0.047564
C26   C     C_2   0.075741 0.492354 0.493705 -0.042908
C27   C     C_R   0.684701 0.540725 0.807576 0.591959
C28   C     C_R   0.429973 0.486302 0.181365 0.600786
C29   C     C_R   0.520894 0.370166 0.821348 0.615255
C30   C     C_R   0.584037 0.670486 0.168068 0.603386
C31   C     C_R   0.416325 0.431625 0.731280 0.401441
C32   C     C_R   0.410737 0.617086 0.285419 0.412360
C33   C     C_R   0.416723 0.422276 0.680023 0.426199
C34   C     C_R   0.523652 0.555556 0.097212 -0.194451
C35   C     C_R   0.410590 0.599881 0.336412 0.310230
C36   C     C_R   0.573798 0.609799 0.667482 -0.157958
C37   C     C_R   0.630410 0.521773 0.316277 -0.128392
C38   C     C_R   0.579321 0.610771 0.718541 -0.017931
C39   C     C_R   0.627289 0.535177 0.265505 -0.080347
C40   C     C_R   0.525309 0.504360 0.747866 -0.049484
C41   C     C_R   0.516875 0.581153 0.250483 0.116348
C42   C     C_1   0.641822 0.712518 0.636245 0.208555
C43   C     C_1   0.756803 0.498823 0.330582 0.220703
C44   C     C_3   0.187462 0.134497 0.549208 0.150042
C45   C     C_R   0.692446 0.549387 0.858367 -0.179271
C46   C     C_3   0.071145 0.042661 0.574243 -0.770451
C47   C     C_3   0.758656 0.822512 0.413199 0.156516
C48   C     C_3   0.844449 0.888450 0.367696 -0.841789
C49   C     C_1   0.122966 0.397455 0.460239 0.295022
C50   C     C_1   0.906082 0.643876 0.513448 0.249409
C51   C     C_1   0.613507 0.727413 0.741732 0.247945
C52   C     C_1   0.735291 0.498296 0.228085 0.196481
C53   C     C_3   0.876341 0.822123 0.843545 0.175829
C54   C     C_3   0.968313 0.883061 0.798121 -0.787211
C55   C     C_3   0.271840 0.189283 0.144894 0.190816
C56   C     C_R   0.433259 0.472731 0.130084 -0.179771
C57   C     C_3   0.178335 0.124845 0.189218 -0.779736
C58   C     C_3   0.344928 0.765506 0.381081 0.093957
C59   C     C_3   0.233680 0.810916 0.419351 -0.733933
C60   C     C_3   0.374984 0.212643 0.671377 0.113772
C61   C     C_3   0.517080 0.195356 0.643677 -0.931973
C62   C     C_3   0.184466 0.613297 0.280843 0.166143
C63   C     C_3   0.102559 0.640935 0.241474 -0.788246
C64   C     C_3   0.236967 0.465824 0.791476 0.115973
C65   C     C_3   0.093968 0.410608 0.813599 -0.756838
C66   C     C_3   0.869458 0.856637 0.095026 0.136390
C67   C     C_R   0.788194 0.633074 0.876882 0.401875
C68   C     C_3   0.932000 0.972333 0.117444 -0.759033
C69   C     C_3   0.257463 0.159824 0.899168 0.145288
C70   C     C_3   0.192229 0.068236 0.865719 -0.772558
C71   C     C_1   0.709826 0.842935 0.000178 0.312562
C72   C     C_1   0.438605 0.172297 0.985941 0.296723
C73   C     C_3   0.970680 0.625834 0.960790 0.110580
C74   C     C_3   0.106163 0.695385 0.966896 -0.824684
C75   C     C_3   0.170877 0.377948 0.024845 0.115052
C76   C     C_3   0.036418 0.305364 0.019422 -0.819400
C77   C     C_3   0.600429 0.132041 0.403610 0.143790
C78   C     C_R   0.348385 0.379786 0.110941 0.411971
C79   C     C_3   0.726858 0.200390 0.373161 -0.739285
C80   C     C_3   0.418912 0.927166 0.584504 0.080361
C81   C     C_3   0.343710 0.832083 0.622865 -0.790457
C82   C     C_R   0.524511 0.369760 0.872588 -0.128806
H1    H     H_    0.122080 0.617548 0.544162 0.179342
H2    H     H_    0.924860 0.955347 0.378960 0.268286
H3    H     H_    0.892897 0.820199 0.342326 0.214095
H4    H     H_    0.779915 0.936866 0.347322 0.247493
H5    H     H_    0.903849 0.869055 0.877252 0.176873
H6    H     H_    0.770018 0.835395 0.841045 0.138689
H7    H     H_    0.941180 0.840008 0.763669 0.285384
H8    H     H_    0.956883 0.982710 0.797239 0.206533
H9    H     H_    0.075457 0.872277 0.799501 0.248993
H10   H     H_    0.378233 0.184320 0.150015 0.137205
H11   H     H_    0.253892 0.139026 0.110640 0.169551
H12   H     H_    0.867147 0.363335 0.468293 0.184287
H13   H     H_    0.071225 0.131847 0.186494 0.256614
H14   H     H_    0.194038 0.026146 0.190055 0.202136
H15   H     H_    0.200003 0.168283 0.224329 0.282168
H16   H     H_    0.358152 0.823622 0.346915 0.163918
H17   H     H_    0.440259 0.777352 0.396613 0.111359
H18   H     H_    0.220635 0.757373 0.454515 0.279293
H19   H     H_    0.261096 0.909633 0.427128 0.226100
H20   H     H_    0.136668 0.800332 0.405058 0.234310
H21   H     H_    0.301361 0.140428 0.659321 0.147121
H22   H     H_    0.368466 0.195909 0.711827 0.219962
H23   H     H_    0.142025 0.205824 0.531261 0.176047
H24   H     H_    0.594938 0.260460 0.657377 0.268059
H25   H     H_    0.539375 0.100648 0.650385 0.230462
H26   H     H_    0.523800 0.210750 0.603148 0.250636
H27   H     H_    0.132615 0.644965 0.317185 0.186568
H28   H     H_    0.185495 0.511532 0.282587 0.179297
H29   H     H_    0.149133 0.606879 0.204767 0.268687
H30   H     H_    0.997880 0.594717 0.251630 0.226572
H31   H     H_    0.098926 0.741716 0.238800 0.249119
H32   H     H_    0.228784 0.546758 0.768049 0.141761
H33   H     H_    0.290433 0.497722 0.822404 0.128016
H34   H     H_    0.242200 0.176270 0.578405 0.144864
H35   H     H_    0.096710 0.328678 0.836844 0.234110
H36   H     H_    0.041247 0.479742 0.837079 0.228777
H37   H     H_    0.036546 0.382630 0.783361 0.271513
H38   H     H_    0.916716 0.854485 0.055103 0.133560
H39   H     H_    0.893390 0.775311 0.114686 0.146669
H40   H     H_    0.889285 0.976126 0.157689 0.271773
H41   H     H_    0.043192 0.971617 0.112872 0.196926
H42   H     H_    0.910845 0.055221 0.098388 0.256578
H43   H     H_    0.220631 0.250586 0.894674 0.116779
H44   H     H_    0.223699 0.127370 0.938267 0.146367
H45   H     H_    0.110475 0.968961 0.593046 0.257209
H46   H     H_    0.222897 0.098457 0.826238 0.284766
H47   H     H_    0.223597 0.975607 0.870173 0.254046
H48   H     H_    0.080434 0.062553 0.875937 0.193091
H49   H     H_    0.990834 0.552348 0.932747 0.136419
H50   H     H_    0.921212 0.582795 0.997148 0.137352
H51   H     H_    0.090885 0.768342 0.995158 0.247233
H52   H     H_    0.157962 0.738523 0.930897 0.265409
H53   H     H_    0.171423 0.631214 0.979105 0.190347
H54   H     H_    0.220249 0.417297 0.987851 0.128127
H55   H     H_    0.149114 0.454361 0.051342 0.147120
H56   H     H_    0.002497 0.090217 0.602375 0.208077
H57   H     H_    0.971921 0.366096 0.004578 0.191520
H58   H     H_    0.983011 0.268283 0.056230 0.269535
H59   H     H_    0.053225 0.227769 0.993488 0.242431
H60   H     H_    0.515402 0.187743 0.402683 0.107995
H61   H     H_    0.577744 0.041043 0.386347 0.133943
H62   H     H_    0.813576 0.146258 0.371033 0.256367
H63   H     H_    0.709563 0.218670 0.334999 0.201836
H64   H     H_    0.752218 0.288420 0.391645 0.273195
H65   H     H_    0.382351 0.016816 0.594382 0.162473
H66   H     H_    0.528704 0.934396 0.586436 0.134366
H67   H     H_    0.012896 0.000635 0.546151 0.276665
H68   H     H_    0.377961 0.740773 0.613749 0.262933
H69   H     H_    0.364267 0.858869 0.660389 0.201304
H70   H     H_    0.233184 0.825084 0.623313 0.251491
H71   H     H_    0.675287 0.762285 0.400180 0.094101
H72   H     H_    0.825114 0.765785 0.429119 0.182713
N1    N     N_R   0.574672 0.473510 0.793183 -0.336459
N2    N     N_1   0.820815 0.468547 0.198040 -0.206122
N3    N     N_1   0.733959 0.930799 0.975422 -0.215670
N4    N     N_1   0.422231 0.082667 0.009514 -0.212791
N5    N     N_R   0.507317 0.581780 0.198842 -0.323232
N6    N     N_2   0.842700 0.448890 0.480020 -0.212135
N7    N     N_2   0.157300 0.551110 0.519980 -0.216604
N8    N     N_1   0.696450 0.795621 0.611966 -0.210739
N9    N     N_1   0.858970 0.482817 0.341564 -0.242773
N10   N     N_1   0.159537 0.321195 0.433269 -0.211631
N11   N     N_1   0.887480 0.741754 0.527198 -0.187732
N12   N     N_1   0.639898 0.820968 0.759999 -0.209079
O1    O     O_R   0.431060 0.692470 0.504020 -0.568343
O2    O     O_2   0.354110 0.402745 0.213774 -0.554569
O3    O     O_2   0.651739 0.766633 0.187983 -0.520625
O4    O     O_2   0.471632 0.267521 0.799794 -0.486799
O5    O     O_3   0.272177 0.073231 0.512811 -0.596074
O6    O     O_3   0.710075 0.909545 0.448681 -0.581371
O7    O     O_3   0.894956 0.696239 0.844714 -0.565643
O8    O     O_3   0.243118 0.312194 0.142258 -0.552220
O9    O     O_3   0.308035 0.640459 0.370864 -0.598782
O10   O     O_3   0.336071 0.328817 0.660930 -0.612053
O11   O     O_3   0.315015 0.678987 0.268592 -0.616975
O12   O     O_R   0.568940 0.307530 0.495980 -0.564005
O13   O     O_3   0.305000 0.375162 0.763526 -0.578802
O14   O     O_3   0.728181 0.859043 0.100464 -0.564640
O15   O     O_3   0.399792 0.165973 0.886217 -0.563389
O16   O     O_3   0.889292 0.709623 0.945687 -0.616153
O17   O     O_3   0.253407 0.297973 0.041911 -0.613825
O18   O     O_3   0.623829 0.116641 0.452517 -0.565367
O19   O     O_3   0.389999 0.894024 0.537140 -0.571352
O20   O     O_R   0.651120 0.659650 0.491200 -0.629971
O21   O     O_R   0.348880 0.340350 0.508800 -0.626690
O22   O     O_R   0.389980 0.516390 0.577660 -0.594464
O23   O     O_R   0.610020 0.483610 0.422340 -0.626156
O24   O     O_R   0.610040 0.483570 0.564830 -0.603176
O25   O     O_R   0.389960 0.516430 0.435170 -0.553532
O26   O     O_2   0.787555 0.592981 0.773254 -0.514919
Zn1   Zn    Zn3+2 0.353060 0.521910 0.508560 0.986365
Zn2   Zn    Zn3+2 0.646940 0.478090 0.491440 0.966374

loop_
_geom_bond_atom_site_label_1
_geom_bond_atom_site_label_2
_ccdc_geom_bond_type
C66   C68   S    
C73   H49   S    
C55   O8    S    
C34   C56   A    
C23   C45   A    
C23   C82   A    
C24   O18   S    
C73   C74   S    
C36   C42   S    
C58   O9    S    
C58   H16   S    
C55   H11   S    
C75   O17   S    
C68   H42   S    
C62   O11   S    
O25   Zn1   S    
C47   O6    S    
C28   C56   A    
C53   O7    S    
C39   C41   A    
C3    C33   A    
C1    O20   A    
C17   O25   A    
O12   Zn2   S    
C55   H10   S    
C54   H8    S    
C11   C14   A    
C11   C71   S    
C18   O16   S    
C81   H68   S    
C74   H51   S    
C74   H52   S    
C70   H48   S    
C77   O18   S    
C56   C78   A    
C31   C40   A    
C63   H30   S    
C61   H26   S    
C33   O10   S    
C77   H60   S    
C49   N10   T    
C25   C50   S    
C41   N5    S    
O23   Zn2   S    
C80   H65   S    
C47   C48   S    
C57   H14   S    
C45   C67   A    
C65   H36   S    
C31   C33   A    
C40   N1    S    
C29   O4    S    
C15   C82   A    
C60   H21   S    
C46   H56   S    
C76   H59   S    
C2    C34   A    
C76   H58   S    
C39   C52   S    
H1    N7    S    
C73   H50   S    
C69   H43   S    
C64   H33   S    
C66   H38   S    
O21   Zn1   S    
C59   H18   S    
O1    Zn1   S    
C25   N6    D    
C65   H35   S    
C68   H41   S    
C44   C46   S    
C79   H64   S    
C77   C79   S    
C27   N1    A    
C30   N5    A    
C71   N3    T    
C64   H32   S    
C59   H19   S    
C32   C35   A    
C46   H45   S    
C54   H7    S    
C79   H63   S    
C75   H55   S    
C26   C49   S    
C68   H40   S    
C64   O13   S    
O24   Zn2   S    
C75   H54   S    
C2    C14   A    
C38   C51   S    
C47   H71   S    
C17   O23   A    
C18   C67   A    
C53   C54   S    
C12   O21   A    
C66   O14   S    
C12   C21   S    
C70   H47   S    
C8    C18   A    
C48   H2    S    
C31   O13   S    
C60   C61   S    
C37   C43   S    
C19   C78   A    
C75   C76   S    
C77   H61   S    
C30   O3    S    
C5    C9    A    
C62   C63   S    
C79   H62   S    
C62   H28   S    
C80   H66   S    
C32   C41   A    
C57   H15   S    
C74   H53   S    
C50   N11   T    
C65   H37   S    
C66   H39   S    
N7    Zn1   S    
C53   H5    S    
C61   H24   S    
C16   O24   A    
C4    C17   S    
C20   O6    S    
C13   C72   S    
C20   C22   D    
C69   H44   S    
C7    C19   A    
C13   C15   A    
C16   O22   A    
C9    C34   A    
C60   O10   S    
C48   H4    S    
C32   O11   S    
C58   C59   S    
C27   O26   S    
C19   O17   S    
C44   H23   S    
N6    Zn2   S    
C76   H57   S    
C70   H46   S    
C7    C9    A    
C1    C20   S    
H12   N6    S    
C72   N4    T    
C59   H20   S    
O20   Zn2   S    
C58   H17   S    
C80   C81   S    
C6    C10   A    
C5    C8    A    
C42   N8    T    
C5    C11   A    
C6    C7    A    
C47   H72   S    
C10   C23   A    
C52   N2    T    
C81   H70   S    
C26   N7    D    
C29   N1    A    
C2    C30   A    
C80   O19   S    
C35   O9    S    
C64   C65   S    
C22   O19   S    
C55   C57   S    
C25   C26   S    
C44   O5    S    
C54   H9    S    
C37   C39   A    
C21   O5    S    
C6    C13   A    
C38   C40   A    
C73   O16   S    
C27   C45   A    
C62   H27   S    
C3    C36   A    
C67   O7    S    
C15   O15   S    
C36   C38   A    
C53   H6    S    
C22   C24   S    
C28   N5    A    
C63   H29   S    
C69   C70   S    
C61   H25   S    
C4    C35   A    
C28   O2    S    
C63   H31   S    
C29   C82   A    
C46   H67   S    
C81   H69   S    
C4    C37   A    
C44   H34   S    
C8    C10   A    
O22   Zn1   S    
C57   H13   S    
C21   C24   D    
C78   O8    S    
C1    O1    A    
C48   H3    S    
C51   N12   T    
C12   O12   A    
C60   H22   S    
C14   O14   S    
C3    C16   S    
C69   O15   S    
C43   N9    T    
