data_mof_unit_36656.cif
_audit_creation_date              2012-12-10T16:58:24-0500
_audit_creation_method            fapswitch 2.2
_symmetry_space_group_name_H-M    P1
_symmetry_Int_Tables_number       1
_space_group_crystal_system       triclinic
_cell_length_a                    7.740523
_cell_length_b                    8.559452
_cell_length_c                    23.422477
_cell_angle_alpha                 91.106093
_cell_angle_beta                  85.885906
_cell_angle_gamma                 93.76184
_cell_volume                      1544.3476788

loop_
_atom_site_label
_atom_site_type_symbol
_atom_type_description
_atom_site_fract_x
_atom_site_fract_y
_atom_site_fract_z
_atom_type_partial_charge
C1    C     C_R   0.545952 0.794867 0.498513 0.973762
C2    C     C_R   0.454048 0.205133 0.501487 0.973762
C3    C     C_R   0.668203 0.481199 0.756811 -0.169406
C4    C     C_R   0.331797 0.518800 0.243189 -0.169406
C5    C     C_R   0.664237 0.481018 0.697647 -0.203959
C6    C     C_R   0.335763 0.518981 0.302353 -0.203959
C7    C     C_R   0.507741 0.501648 0.672737 -0.131328
C8    C     C_R   0.492259 0.498352 0.327263 -0.131328
C9    C     C_R   0.355912 0.523744 0.707635 -0.294456
C10   C     C_R   0.644088 0.476256 0.292365 -0.294456
C11   C     C_R   0.360274 0.524283 0.766710 0.701012
C12   C     C_R   0.639726 0.475717 0.233290 0.701012
C13   C     C_R   0.516231 0.502153 0.791216 0.186596
C14   C     C_R   0.483770 0.497847 0.208784 0.186596
C15   C     C_2   0.570220 0.958357 0.497648 -0.368226
C16   C     C_2   0.429780 0.041642 0.502352 -0.368226
C17   C     C_R   0.502393 0.500493 0.610644 0.913768
C18   C     C_R   0.497607 0.499507 0.389356 0.913768
C19   C     C_R   0.406661 0.374127 0.120438 0.548925
C20   C     C_R   0.593338 0.625873 0.879562 0.548925
C21   C     C_R   0.558159 0.626661 0.119795 0.587463
C22   C     C_R   0.441841 0.373339 0.880205 0.587462
C23   C     C_R   0.569769 0.627408 0.060233 -0.069532
C24   C     C_R   0.430231 0.372592 0.939767 -0.069532
C25   C     C_R   0.493464 0.499890 0.030150 -0.040613
C26   C     C_R   0.506536 0.500110 0.969850 -0.040613
C27   C     C_R   0.404763 0.372440 0.060293 -0.085230
C28   C     C_R   0.595236 0.627560 0.939707 -0.085231
C29   C     C_R   0.660049 0.751313 0.030642 -0.189713
C30   C     C_R   0.339951 0.248687 0.969358 -0.189713
C31   C     C_R   0.676275 0.752498 0.971088 0.208647
C32   C     C_R   0.323725 0.247502 0.028912 0.208648
H1    H     H_    0.723150 0.847302 0.053780 0.205746
H2    H     H_    0.276850 0.152698 0.946220 0.205746
H3    H     H_    0.788643 0.464185 0.776014 0.200180
H4    H     H_    0.211357 0.535813 0.223986 0.200180
H5    H     H_    0.783015 0.464076 0.671559 0.181292
H6    H     H_    0.216985 0.535923 0.328441 0.181292
H7    H     H_    0.233961 0.540626 0.689364 0.187004
H8    H     H_    0.766040 0.459375 0.310636 0.187004
H9    H     H_    0.702774 0.009620 0.493156 0.181393
H10   H     H_    0.297226 0.990380 0.506844 0.181393
H11   H     H_    0.014040 0.382715 0.456826 0.193489
H12   H     H_    0.985960 0.617285 0.543174 0.193489
N1    N     N_R   0.480420 0.500526 0.148182 -0.334586
N2    N     N_R   0.519580 0.499474 0.851818 -0.334586
N3    N     N_2   0.950330 0.457950 0.484560 -0.174951
N4    N     N_2   0.049670 0.542050 0.515440 -0.174951
O1    O     O_R   0.389250 0.738570 0.503790 -0.612415
O2    O     O_R   0.610750 0.261430 0.496210 -0.612415
O3    O     O_R   0.678390 0.711620 0.493890 -0.628905
O4    O     O_R   0.321610 0.288380 0.506110 -0.628905
O5    O     O_R   0.355400 0.513520 0.588790 -0.620112
O6    O     O_R   0.644600 0.486480 0.411210 -0.620111
O7    O     O_R   0.644550 0.486570 0.578900 -0.630715
O8    O     O_R   0.355450 0.513430 0.421100 -0.630715
O9    O     O_2   0.341648 0.249792 0.151328 -0.544681
O10   O     O_2   0.658352 0.750208 0.848672 -0.544681
O11   O     O_2   0.625815 0.750108 0.149450 -0.540030
O12   O     O_2   0.374184 0.249892 0.850550 -0.540030
Zn1   Zn    Zn3+2 0.306930 0.518000 0.506610 0.952392
Zn2   Zn    Zn3+2 0.693070 0.482000 0.493390 0.952392
N5    N     N_2   0.784511 0.875770 0.944860 -0.292355
H13   H     H_    0.866312 0.846013 0.910305 0.289134
C33   C     C_3   0.704670 0.022871 0.940738 -0.668296
H14   H     H_    0.593683 0.008895 0.913125 0.275404
H15   H     H_    0.801426 0.112310 0.921859 0.246321
H16   H     H_    0.658323 0.065146 0.983932 0.226574
N6    N     N_2   0.215489 0.124230 0.055140 -0.292355
H17   H     H_    0.133688 0.153987 0.089695 0.289134
C34   C     C_3   0.295329 0.977129 0.059262 -0.668296
H18   H     H_    0.406316 0.991104 0.086875 0.275404
H19   H     H_    0.341678 0.934854 0.016068 0.226574
H20   H     H_    0.198573 0.887689 0.078141 0.246320
F1    F     F_    0.213209 0.546228 0.800251 -0.659592
F2    F     F_    0.786791 0.453773 0.199749 -0.659592

loop_
_geom_bond_atom_site_label_1
_geom_bond_atom_site_label_2
_ccdc_geom_bond_type
N5    C33   S    
C5    H5    S    
N3    Zn2   S    
C4    H4    S    
C19   O9    S    
C23   C29   A    
C24   C26   A    
C21   O11   S    
O4    Zn1   S    
C22   O12   S    
C13   N2    S    
C15   C16   D    
O7    Zn2   S    
C29   H1    S    
C9    H7    S    
C10   H8    S    
N6    C34   S    
C2    O2    A    
O5    Zn1   S    
C7    C17   S    
C6    H6    S    
C1    C15   S    
C2    C16   S    
C17   O7    A    
C3    C13   A    
C18   O8    A    
O3    Zn2   S    
C10   C12   A    
C14   N1    S    
C21   N1    A    
O1    Zn1   S    
C30   H2    S    
C31   N5    S    
C15   H9    S    
C4    C6    A    
C5    C7    A    
C6    C8    A    
C20   C28   A    
C33   H15   S    
C25   C26   A    
C8    C18   S    
C9    C11   A    
N3    N4    D    
C3    H3    S    
C33   H16   S    
C1    O3    A    
C2    O4    A    
C22   N2    A    
C12   C14   A    
C12   F2    S    
O2    Zn2   S    
C22   C24   A    
C20   O10   S    
C17   O5    A    
C19   C27   A    
C34   H19   S    
C7    C9    A    
C27   C32   A    
C16   H10   S    
C28   C31   A    
C3    C5    A    
C34   H20   S    
C19   N1    A    
C32   N6    S    
C25   C27   A    
O6    Zn2   S    
C26   C28   A    
C21   C23   A    
C34   H18   S    
C29   C31   A    
C11   F1    S    
C30   C32   A    
C11   C13   A    
N4    Zn1   S    
C1    O1    A    
C23   C25   A    
C4    C14   A    
N6    H17   S    
C24   C30   A    
C18   O6    A    
N5    H13   S    
C8    C10   A    
C33   H14   S    
O8    Zn1   S    
H11   N3    S    
C20   N2    A    
H12   N4    S    
