data_mof_unit_32938.cif
_audit_creation_date              2012-12-10T19:09:30-0500
_audit_creation_method            fapswitch 2.2
_symmetry_space_group_name_H-M    P1
_symmetry_Int_Tables_number       1
_space_group_crystal_system       triclinic
_cell_length_a                    15.784429
_cell_length_b                    15.206927
_cell_length_c                    9.895469
_cell_angle_alpha                 92.237711
_cell_angle_beta                  92.095794
_cell_angle_gamma                 88.675358
_cell_volume                      2371.27728081

loop_
_atom_site_label
_atom_site_type_symbol
_atom_type_description
_atom_site_fract_x
_atom_site_fract_y
_atom_site_fract_z
_atom_type_partial_charge
C1    C     C_R   0.122510 0.381894 0.500815 0.908376
C2    C     C_R   0.885845 0.628756 0.500523 0.905052
C3    C     C_R   0.379811 0.876643 0.497192 0.937294
C4    C     C_R   0.385846 0.128757 0.500523 0.905073
C5    C     C_3   0.841709 0.223538 0.581179 0.848505
C6    C     C_3   0.786719 0.267420 0.346626 0.791473
C7    C     C_3   0.831063 0.770845 0.379800 0.891516
C8    C     C_3   0.824169 0.763583 0.638157 0.795188
C9    C     C_3   0.341709 0.723537 0.581189 0.848526
C10   C     C_3   0.286726 0.767413 0.346629 0.791470
C11   C     C_3   0.331064 0.270845 0.379798 0.891519
C12   C     C_R   0.121149 0.620599 0.501670 0.890266
C13   C     C_3   0.324170 0.263583 0.638155 0.795194
C14   C     C_3   0.274644 0.648216 0.555565 -0.538654
C15   C     C_3   0.201805 0.720200 0.355195 -0.467466
C16   C     C_3   0.251757 0.335331 0.385187 -0.527463
C17   C     C_3   0.245091 0.326137 0.638372 -0.511862
C18   C     C_3   0.774645 0.148217 0.555551 -0.538637
C19   C     C_3   0.701799 0.220206 0.355194 -0.467466
C20   C     C_3   0.751756 0.835330 0.385189 -0.527457
C21   C     C_3   0.745090 0.826137 0.638374 -0.511849
C22   C     C_3   0.726813 0.348381 0.562418 0.965282
C23   C     C_R   0.622510 0.881893 0.500815 0.908365
C24   C     C_3   0.728974 0.657596 0.471460 0.852719
C25   C     C_3   0.226815 0.848380 0.562414 0.965290
C26   C     C_3   0.228976 0.157596 0.471457 0.852719
C27   C     C_3   0.810977 0.306109 0.495244 -0.178190
C28   C     C_3   0.820040 0.703257 0.499588 -0.197457
C29   C     C_3   0.310980 0.806105 0.495245 -0.178210
C30   C     C_3   0.320041 0.203258 0.499586 -0.197458
C31   C     C_3   0.189980 0.687491 0.500640 -0.057765
C32   C     C_3   0.193247 0.317996 0.503153 -0.092154
C33   C     C_3   0.689979 0.187492 0.500637 -0.057761
C34   C     C_R   0.621149 0.120599 0.501670 0.890268
C35   C     C_3   0.693246 0.817995 0.503154 -0.092147
C36   C     C_3   0.167657 0.768812 0.588498 -0.622027
C37   C     C_3   0.156503 0.226116 0.492492 -0.479777
C38   C     C_3   0.667659 0.268811 0.588505 -0.621996
C39   C     C_3   0.656503 0.726116 0.492495 -0.479789
C40   C     C_3   0.049036 0.423374 0.077842 0.385927
C41   C     C_3   0.033837 0.414810 0.915450 0.341956
C42   C     C_3   0.056681 0.566380 0.932371 0.444040
C43   C     C_3   0.036017 0.580934 0.087535 0.340172
C44   C     C_3   0.549035 0.923373 0.077842 0.385929
C45   C     C_3   0.911995 0.494434 0.073896 -0.300955
C46   C     C_3   0.533836 0.914809 0.915450 0.341948
C47   C     C_3   0.556683 0.066378 0.932372 0.444039
C48   C     C_3   0.536018 0.080933 0.087535 0.340175
C49   C     C_3   0.951557 0.113823 0.593110 -0.389218
C50   C     C_3   0.915016 0.227020 0.237906 -0.115680
C51   C     C_3   0.913003 0.891687 0.313867 -0.409143
C52   C     C_3   0.963299 0.795286 0.727468 -0.172302
C53   C     C_3   0.451548 0.613823 0.593170 -0.389209
C54   C     C_3   0.415026 0.727010 0.237920 -0.115680
C55   C     C_3   0.413007 0.391681 0.313849 -0.409116
C56   C     C_3   0.912511 0.512023 0.916673 -0.310973
C57   C     C_3   0.463295 0.295294 0.727485 -0.172333
C58   C     C_3   0.713332 0.390485 0.803146 -0.379557
C59   C     C_3   0.603927 0.434204 0.500937 -0.270376
C60   C     C_3   0.723548 0.547443 0.286211 -0.027058
C61   C     C_3   0.705754 0.592359 0.687867 -0.203113
C62   C     C_3   0.213330 0.890486 0.803142 -0.379559
C63   C     C_3   0.103935 0.934207 0.500928 -0.270390
C64   C     C_3   0.223550 0.047445 0.286205 -0.027074
C65   C     C_3   0.205754 0.092359 0.687863 -0.203102
C66   C     C_3   0.089914 0.276266 0.109383 -0.326361
C67   C     C_3   0.411995 0.994435 0.073896 -0.300957
C68   C     C_3   0.019370 0.275077 0.808297 -0.108811
C69   C     C_3   0.133820 0.688749 0.902315 -0.380702
C70   C     C_3   0.011345 0.728066 0.162245 -0.121567
C71   C     C_3   0.589911 0.776265 0.109386 -0.326362
C72   C     C_3   0.519369 0.775075 0.808300 -0.108738
C73   C     C_3   0.633826 0.188745 0.902315 -0.380682
C74   C     C_3   0.511348 0.228067 0.162237 -0.121569
C75   C     C_3   0.412511 0.012024 0.916673 -0.310970
C76   C     C_R   0.879809 0.376645 0.497192 0.937302
H1    H     H_    0.297056 0.597509 0.480303 0.213114
H2    H     H_    0.148724 0.766024 0.328876 0.178041
H3    H     H_    0.087555 0.265089 0.835614 0.045142
H4    H     H_    0.012205 0.285982 0.699187 0.237431
H5    H     H_    0.989095 0.212659 0.830633 0.156067
H6    H     H_    0.183681 0.660092 0.837241 0.180790
H7    H     H_    0.161307 0.677981 0.005151 0.115031
H8    H     H_    0.123396 0.760155 0.895494 0.164886
H9    H     H_    0.076051 0.741878 0.134116 0.080758
H10   H     H_    0.009409 0.723828 0.273342 0.226801
H11   H     H_    0.972544 0.784202 0.126062 0.167792
H12   H     H_    0.613609 0.747400 0.203200 0.207667
H13   H     H_    0.215882 0.331837 0.287345 0.183218
H14   H     H_    0.646025 0.796036 0.053503 0.119479
H15   H     H_    0.557604 0.721743 0.052914 0.164572
H16   H     H_    0.587553 0.765087 0.835619 0.045123
H17   H     H_    0.512206 0.785978 0.699189 0.237425
H18   H     H_    0.489092 0.712660 0.830640 0.156091
H19   H     H_    0.683687 0.160085 0.837242 0.180814
H20   H     H_    0.661313 0.177976 0.005151 0.115031
H21   H     H_    0.623404 0.260151 0.895493 0.164885
H22   H     H_    0.576055 0.241875 0.134112 0.080756
H23   H     H_    0.509408 0.223834 0.273334 0.226803
H24   H     H_    0.204304 0.312347 0.723736 0.154225
H25   H     H_    0.472548 0.284202 0.126044 0.167786
H26   H     H_    0.764668 0.112163 0.648984 0.138341
H27   H     H_    0.648717 0.266032 0.328883 0.178041
H28   H     H_    0.715881 0.831833 0.287346 0.183222
H29   H     H_    0.704304 0.812347 0.723738 0.154227
H30   H     H_    0.176598 0.750544 0.690965 0.203891
H31   H     H_    0.099702 0.782820 0.573918 0.172955
H32   H     H_    0.107356 0.220695 0.410071 0.192248
H33   H     H_    0.200203 0.665260 0.277728 0.191335
H34   H     H_    0.117719 0.216228 0.580104 0.139397
H35   H     H_    0.676612 0.250539 0.690969 0.203911
H36   H     H_    0.599703 0.282817 0.573946 0.172944
H37   H     H_    0.607354 0.720694 0.410076 0.192240
H38   H     H_    0.617720 0.716230 0.580111 0.139386
H39   H     H_    0.117566 0.436961 0.100926 -0.027325
H40   H     H_    0.097725 0.403168 0.872229 0.019655
H41   H     H_    0.123269 0.538327 0.928695 -0.084122
H42   H     H_    0.096551 0.592733 0.145052 0.037588
H43   H     H_    0.617565 0.936959 0.100926 -0.027324
H44   H     H_    0.269675 0.405204 0.399652 0.173880
H45   H     H_    0.597725 0.903167 0.872228 0.019654
H46   H     H_    0.623270 0.038324 0.928697 -0.084126
H47   H     H_    0.596552 0.092732 0.145052 0.037590
H48   H     H_    0.884717 0.429012 0.089802 0.215472
H49   H     H_    0.868378 0.467113 0.861093 0.243591
H50   H     H_    0.888431 0.579874 0.898475 0.235913
H51   H     H_    0.869605 0.543353 0.123789 0.229487
H52   H     H_    0.384717 0.929013 0.089802 0.215480
H53   H     H_    0.368378 0.967114 0.861093 0.243592
H54   H     H_    0.388432 0.079875 0.898475 0.235913
H55   H     H_    0.264184 0.395894 0.656493 0.198716
H56   H     H_    0.369606 0.043355 0.123789 0.229486
H57   H     H_    0.841410 0.200556 0.777235 0.298278
H58   H     H_    0.755377 0.307748 0.165366 0.307783
H59   H     H_    0.817642 0.762413 0.178956 0.309733
H60   H     H_    0.813954 0.750580 0.834749 0.312381
H61   H     H_    0.341339 0.700586 0.777260 0.298239
H62   H     H_    0.255387 0.807735 0.165364 0.307782
H63   H     H_    0.317634 0.262407 0.178954 0.309733
H64   H     H_    0.313949 0.250577 0.834746 0.312376
H65   H     H_    0.020070 0.115983 0.618975 0.169243
H66   H     H_    0.797061 0.097510 0.480291 0.213135
H67   H     H_    0.942852 0.061550 0.513752 0.193083
H68   H     H_    0.919712 0.094989 0.685490 0.147901
H69   H     H_    0.957683 0.262792 0.310853 0.228191
H70   H     H_    0.897202 0.264462 0.146790 0.214884
H71   H     H_    0.950964 0.167582 0.202276 0.135873
H72   H     H_    0.900516 0.952568 0.375072 0.190419
H73   H     H_    0.868992 0.890914 0.223799 0.139613
H74   H     H_    0.977435 0.896942 0.275243 0.157731
H75   H     H_    0.989807 0.731358 0.690391 0.240079
H76   H     H_    0.946718 0.794554 0.835437 0.187805
H77   H     H_    0.700195 0.165269 0.277723 0.191337
H78   H     H_    0.011976 0.845691 0.724236 0.118155
H79   H     H_    0.520099 0.615925 0.618773 0.169336
H80   H     H_    0.442682 0.561494 0.513935 0.193051
H81   H     H_    0.419817 0.595107 0.685723 0.147891
H82   H     H_    0.457688 0.762790 0.310865 0.228176
H83   H     H_    0.397212 0.764445 0.146796 0.214882
H84   H     H_    0.450978 0.667571 0.202303 0.135880
H85   H     H_    0.400516 0.452567 0.375037 0.190405
H86   H     H_    0.369001 0.390900 0.223776 0.139612
H87   H     H_    0.477443 0.396934 0.275238 0.157737
H88   H     H_    0.769671 0.905203 0.399652 0.173879
H89   H     H_    0.489805 0.231363 0.690426 0.240105
H90   H     H_    0.446705 0.294573 0.835451 0.187777
H91   H     H_    0.511972 0.345698 0.724249 0.118156
H92   H     H_    0.743104 0.334479 0.856603 0.213383
H93   H     H_    0.643960 0.385356 0.792274 0.122281
H94   H     H_    0.724352 0.448984 0.871040 0.150931
H95   H     H_    0.593510 0.440174 0.609969 0.159329
H96   H     H_    0.557749 0.388598 0.454111 0.189963
H97   H     H_    0.588558 0.499605 0.460987 0.191508
H98   H     H_    0.773139 0.509286 0.341678 0.247288
H99   H     H_    0.764183 0.895894 0.656494 0.198714
H100  H     H_    0.738061 0.544280 0.177774 0.111795
H101  H     H_    0.660286 0.518682 0.287279 0.160410
H102  H     H_    0.691350 0.659318 0.726787 0.126294
H103  H     H_    0.762194 0.566891 0.744212 0.247017
H104  H     H_    0.651000 0.554075 0.715524 0.140826
H105  H     H_    0.243099 0.834479 0.856599 0.213356
H106  H     H_    0.143958 0.885360 0.792269 0.122282
H107  H     H_    0.224352 0.948983 0.871037 0.150936
H108  H     H_    0.093513 0.940170 0.609958 0.159335
H109  H     H_    0.057756 0.888609 0.454090 0.189946
H110  H     H_    0.264668 0.612159 0.648996 0.138349
H111  H     H_    0.088574 0.999614 0.460990 0.191512
H112  H     H_    0.273140 0.009286 0.341672 0.247295
H113  H     H_    0.238063 0.044283 0.177769 0.111794
H114  H     H_    0.160288 0.018684 0.287269 0.160396
H115  H     H_    0.191349 0.159318 0.726782 0.126282
H116  H     H_    0.262192 0.066891 0.744212 0.247013
H117  H     H_    0.150998 0.054075 0.715515 0.140825
H118  H     H_    0.113613 0.247400 0.203195 0.207666
H119  H     H_    0.146026 0.296038 0.053499 0.119473
H120  H     H_    0.057606 0.221744 0.052911 0.164579
N1    N     N_3   0.998760 0.500000 0.138610 -0.149565
N2    N     N_3   0.998760 0.500000 0.861390 -0.146726
N3    N     N_3   0.498760 0.000000 0.138610 -0.149566
N4    N     N_3   0.498760 1.000000 0.861390 -0.146723
O1    O     O_R   0.092530 0.407440 0.616040 -0.667842
O2    O     O_R   0.907330 0.407420 0.383960 -0.606445
O3    O     O_R   0.907330 0.592580 0.383960 -0.576859
O4    O     O_R   0.907330 0.592580 0.616040 -0.570830
O5    O     O_R   0.407330 0.907420 0.616040 -0.531246
O6    O     O_R   0.407330 0.907420 0.383960 -0.606437
O7    O     O_R   0.407330 0.092580 0.383960 -0.576861
O8    O     O_R   0.407330 0.092580 0.616040 -0.570825
O9    O     O_3   0.845876 0.251495 0.718767 -0.759409
O10   O     O_3   0.776612 0.334911 0.252724 -0.809563
O11   O     O_3   0.833644 0.723454 0.254035 -0.712290
O12   O     O_R   0.092530 0.407440 0.383960 -0.597646
O13   O     O_3   0.825543 0.711926 0.753924 -0.828951
O14   O     O_3   0.345879 0.751506 0.718774 -0.759386
O15   O     O_3   0.276620 0.834900 0.252722 -0.809550
O16   O     O_3   0.333646 0.223454 0.254033 -0.712293
O17   O     O_3   0.325543 0.211925 0.753921 -0.828948
O18   O     O_3   0.924257 0.195709 0.541045 -0.629022
O19   O     O_3   0.843725 0.198765 0.301998 -0.664216
O20   O     O_3   0.908593 0.817470 0.397194 -0.599335
O21   O     O_3   0.894587 0.821207 0.642823 -0.620583
O22   O     O_3   0.424256 0.695699 0.541060 -0.628995
O23   O     O_R   0.092530 0.592560 0.383960 -0.669227
O24   O     O_3   0.343733 0.698756 0.302009 -0.664211
O25   O     O_3   0.408593 0.317471 0.397192 -0.599336
O26   O     O_3   0.394588 0.321207 0.642819 -0.620579
O27   O     O_3   0.752753 0.402079 0.679103 -0.554792
O28   O     O_3   0.686975 0.405349 0.466972 -0.613422
O29   O     O_3   0.719413 0.636548 0.329179 -0.658513
O30   O     O_3   0.718562 0.580289 0.547205 -0.604095
O31   O     O_3   0.252753 0.902078 0.679100 -0.554785
O32   O     O_3   0.186982 0.905348 0.466965 -0.613417
O33   O     O_3   0.219415 0.136549 0.329176 -0.658519
O34   O     O_R   0.092530 0.592560 0.616040 -0.597685
O35   O     O_3   0.218566 0.080289 0.547202 -0.604089
O36   O     O_3   0.030051 0.344722 0.139862 -0.573164
O37   O     O_3   0.978188 0.344616 0.880820 -0.545344
O38   O     O_3   0.055682 0.647285 0.869671 -0.549083
O39   O     O_3   0.976635 0.652258 0.099868 -0.560289
O40   O     O_3   0.530048 0.844722 0.139862 -0.573162
O41   O     O_3   0.478186 0.844617 0.880819 -0.545343
O42   O     O_3   0.555686 0.147283 0.869671 -0.549093
O43   O     O_3   0.476636 0.152257 0.099867 -0.560288
O44   O     O_R   0.592530 0.907440 0.616040 -0.667843
O45   O     O_R   0.592530 0.907440 0.383960 -0.597651
O46   O     O_R   0.592530 0.092560 0.383960 -0.669224
O47   O     O_R   0.592530 0.092560 0.616040 -0.597684
O48   O     O_R   0.907330 0.407420 0.616040 -0.531253
Zn1   Zn    Zn3+2 0.999890 0.500000 0.654960 1.010779
Zn2   Zn    Zn3+2 0.999890 0.500000 0.345040 0.987893
Zn3   Zn    Zn3+2 0.499890 0.000000 0.654960 1.010782
Zn4   Zn    Zn3+2 0.499890 0.000000 0.345040 0.987896

loop_
_geom_bond_atom_site_label_1
_geom_bond_atom_site_label_2
_ccdc_geom_bond_type
C50   H71   S    
C68   H4    S    
H59   O11   S    
C25   O32   S    
H58   O10   S    
O44   Zn3   S    
H61   O14   S    
C17   H55   S    
H57   O9    S    
C15   H33   S    
C67   H56   S    
C10   C29   S    
C14   C31   S    
C40   O36   S    
C1    O1    A    
C48   H47   S    
C64   H113  S    
C42   O38   S    
C14   H110  S    
C74   H22   S    
C26   C37   S    
O46   Zn4   S    
C75   N4    S    
C73   H21   S    
C6    C19   S    
O5    Zn3   S    
C68   H5    S    
C51   H72   S    
C58   H94   S    
C24   O30   S    
C68   O37   S    
C16   H44   S    
N4    Zn3   S    
C72   H16   S    
C76   O2    A    
C10   O15   S    
C40   H39   S    
C22   O28   S    
C40   N1    S    
C52   H78   S    
C22   C38   S    
C49   H68   S    
C50   O19   S    
C24   C39   S    
C60   H98   S    
C18   H26   S    
C14   H1    S    
C3    C29   S    
C69   H6    S    
C7    O20   S    
C54   H83   S    
C5    C27   S    
C20   C35   S    
C19   H27   S    
C9    O22   S    
C57   H90   S    
C73   O42   S    
C6    C27   S    
C45   C56   S    
C63   H109  S    
C49   H65   S    
C34   O46   A    
C46   H45   S    
C56   H50   S    
C18   C33   S    
C61   H104  S    
C58   H92   S    
O7    Zn4   S    
C65   H117  S    
C51   O20   S    
C75   H54   S    
C10   O24   S    
C11   O16   S    
C72   H18   S    
C50   H70   S    
C68   H3    S    
O4    Zn1   S    
C62   H107  S    
C52   O21   S    
C51   H74   S    
C36   H31   S    
C76   O48   A    
C12   O34   A    
C48   O43   S    
C59   H95   S    
C70   H11   S    
C44   O40   S    
O34   Zn1   S    
C66   H118  S    
C44   C46   S    
C4    O8    A    
C5    O18   S    
C56   N2    S    
C45   H48   S    
C25   C29   S    
H62   O15   S    
C48   N3    S    
C36   H30   S    
C60   O29   S    
C3    O5    A    
C65   H115  S    
C13   C30   S    
C18   H66   S    
C58   H93   S    
C2    O4    A    
C66   H120  S    
C11   C30   S    
C37   H32   S    
C24   O29   S    
C19   C33   S    
C13   O26   S    
C22   O27   S    
C47   H46   S    
C41   O37   S    
C5    C18   S    
C43   H42   S    
C44   H43   S    
C39   H37   S    
C60   H101  S    
C56   H49   S    
C62   O31   S    
C1    C32   S    
C7    C28   S    
C6    O19   S    
C66   O36   S    
C16   H13   S    
O8    Zn3   S    
C23   O45   A    
C35   C39   S    
C9    C14   S    
C12   O23   A    
C69   H7    S    
C26   O33   S    
C62   H106  S    
O3    Zn2   S    
C11   C16   S    
H64   O17   S    
C57   O26   S    
C54   O24   S    
C47   C48   S    
C65   H116  S    
C42   N2    S    
H63   O16   S    
C11   O25   S    
C39   H38   S    
C61   O30   S    
C43   N1    S    
C32   C37   S    
C15   C31   S    
C59   O28   S    
C55   H85   S    
C37   H34   S    
C64   H112  S    
C43   O39   S    
C53   H80   S    
C74   H25   S    
C57   H91   S    
C74   O43   S    
O23   Zn2   S    
C40   C41   S    
O2    Zn2   S    
O45   Zn4   S    
C21   H99   S    
C61   H103  S    
C63   H111  S    
C22   C27   S    
C12   C31   S    
C19   H77   S    
C47   N4    S    
C67   C75   S    
C42   C43   S    
C72   H17   S    
C41   H40   S    
O12   Zn2   S    
C59   H96   S    
C70   H10   S    
O6    Zn4   S    
O48   Zn1   S    
C50   H69   S    
C4    O7    A    
H60   O13   S    
C69   O38   S    
C66   H119  S    
C25   O31   S    
C63   H108  S    
C3    O6    A    
C53   H81   S    
C72   O41   S    
C65   O35   S    
C2    O3    A    
C24   C28   S    
C55   H86   S    
C41   N2    S    
C59   H97   S    
C8    C21   S    
C17   H24   S    
C47   O42   S    
C7    O11   S    
C42   H41   S    
C53   H79   S    
C74   H23   S    
C6    O10   S    
O47   Zn3   S    
C9    O14   S    
C16   C32   S    
C5    O9    S    
C67   N3    S    
C33   C38   S    
C46   O41   S    
C13   C17   S    
C49   O18   S    
C10   C15   S    
C71   O40   S    
C55   O25   S    
C21   C35   S    
C53   O22   S    
C55   H87   S    
C64   O33   S    
C69   H8    S    
C60   H100  S    
C67   H52   S    
C62   H105  S    
C38   H35   S    
C9    C29   S    
C8    O13   S    
N2    Zn1   S    
C71   H14   S    
N1    Zn2   S    
C45   H51   S    
C52   H75   S    
C8    C28   S    
C46   N4    S    
C49   H67   S    
O1    Zn1   S    
C33   C34   S    
C70   H9    S    
C54   H82   S    
C23   C35   S    
C21   H29   S    
C20   H28   S    
C58   O27   S    
C25   C36   S    
C54   H84   S    
C71   H12   S    
C15   H2    S    
C75   H53   S    
N3    Zn4   S    
C61   H102  S    
C38   H36   S    
C71   H15   S    
C64   H114  S    
C51   H73   S    
C44   N3    S    
C7    C20   S    
C70   O39   S    
C34   O47   A    
C17   C32   S    
C73   H19   S    
C31   C36   S    
C57   H89   S    
C2    C28   S    
C73   H20   S    
C13   O17   S    
C23   O44   A    
C52   H76   S    
C45   N1    S    
C26   O35   S    
C4    C30   S    
C8    O21   S    
C27   C76   S    
C63   O32   S    
C1    O12   A    
C26   C30   S    
C20   H88   S    
