data_mof_unit_11625.cif
_audit_creation_date              2012-10-26T19:35:14-0400
_audit_creation_method            fapswitch 2.2
_symmetry_space_group_name_H-M    P1
_symmetry_Int_Tables_number       1
_space_group_crystal_system       triclinic
_cell_length_a                    10.827884
_cell_length_b                    10.813822
_cell_length_c                    9.606088
_cell_angle_alpha                 88.831401
_cell_angle_beta                  92.412456
_cell_angle_gamma                 92.440729
_cell_volume                      1122.57327265

loop_
_atom_site_label
_atom_site_type_symbol
_atom_type_description
_atom_site_fract_x
_atom_site_fract_y
_atom_site_fract_z
_atom_type_partial_charge
C1    C     C_R   0.498067 0.262616 0.500791 0.549146
C2    C     C_R   0.447228 0.935794 0.380270 -0.168055
C3    C     C_R   0.490065 0.870363 0.499216 0.003582
C4    C     C_R   0.262724 0.508004 0.496300 0.530821
C5    C     C_R   0.517124 0.934718 0.622000 0.011125
C6    C     C_3   0.624973 0.927320 0.723484 -0.242945
C7    C     C_3   0.631076 0.068233 0.721626 -0.112159
C8    C     C_R   0.558857 0.593615 0.074139 0.146033
C9    C     C_R   0.434445 0.413199 0.076372 0.026032
C10   C     C_R   0.437303 0.407824 0.928454 0.107960
C11   C     C_R   0.558119 0.594446 0.927018 0.141162
C12   C     C_R   0.073958 0.602001 0.584198 0.005355
C13   C     C_3   0.693468 0.628038 0.929910 -0.280998
C14   C     C_3   0.693164 0.627969 0.087111 -0.264348
C15   C     C_R   0.499036 0.737439 0.499080 0.532974
C16   C     C_R   0.737658 0.505415 0.502379 0.535208
C17   C     C_R   0.144669 0.689285 0.665587 -0.114419
C18   C     C_R   0.087371 0.770816 0.750246 -0.129360
C19   C     C_R   0.959206 0.769096 0.753410 -0.130027
C20   C     C_R   0.887764 0.685124 0.672724 -0.119118
C21   C     C_R   0.943377 0.598765 0.590063 0.021739
C22   C     C_R   0.092161 0.454090 0.234822 0.058117
C23   C     C_R   0.129242 0.526822 0.486853 -0.025663
C24   C     C_R   0.046606 0.351719 0.156820 -0.119754
C25   C     C_R   0.052999 0.353253 0.011754 -0.141603
C26   C     C_R   0.112182 0.452855 0.943582 -0.098796
C27   C     C_R   0.161327 0.553170 0.019877 -0.107121
C28   C     C_R   0.148402 0.555513 0.163862 -0.058694
C29   C     C_3   0.750924 0.132117 0.666867 -0.266588
C30   C     C_3   0.795161 0.086387 0.527957 -0.423743
C31   C     C_3   0.383170 0.290568 0.860516 -0.249368
C32   C     C_3   0.320139 0.191018 0.952449 -0.515444
C33   C     C_R   0.053762 0.469393 0.380507 -0.040796
C34   C     C_R   0.928163 0.453112 0.400693 -0.164895
C35   C     C_R   0.872277 0.515128 0.504883 -0.024238
C36   C     C_R   0.519998 0.061848 0.622134 0.021343
C37   C     C_R   0.488800 0.129180 0.501703 0.005754
C38   C     C_R   0.445615 0.064925 0.381916 -0.168308
Cu1   Cu    Cu3+1 0.499990 0.499980 0.640670 0.899126
Cu2   Cu    Cu3+1 0.500010 0.500020 0.359330 0.920434
H1    H     H_    0.704626 0.883054 0.680076 0.126775
H2    H     H_    0.914946 0.835126 0.815973 0.102125
H3    H     H_    0.788922 0.692034 0.670751 0.127001
H4    H     H_    0.870434 0.401496 0.325286 0.130955
H5    H     H_    0.415265 0.114302 0.288308 0.124142
H6    H     H_    0.418460 0.887953 0.285596 0.127990
H7    H     H_    0.595866 0.887735 0.825146 0.112977
H8    H     H_    0.000641 0.273231 0.207537 0.095834
H9    H     H_    0.014453 0.275731 0.952365 0.102888
H10   H     H_    0.120209 0.451883 0.831804 0.136941
H11   H     H_    0.207144 0.630502 0.967284 0.113355
H12   H     H_    0.608877 0.104092 0.824688 0.111599
H13   H     H_    0.178871 0.638299 0.219303 0.113765
H14   H     H_    0.828160 0.990861 0.538617 0.147125
H15   H     H_    0.721693 0.089978 0.444429 0.164855
H16   H     H_    0.874313 0.147220 0.494979 0.129139
H17   H     H_    0.736704 0.233026 0.656265 0.171840
H18   H     H_    0.826444 0.120310 0.747379 0.131161
H19   H     H_    0.388584 0.150484 0.027815 0.131104
H20   H     H_    0.244600 0.227872 0.010040 0.163289
H21   H     H_    0.280619 0.115127 0.885852 0.141890
H22   H     H_    0.317708 0.314136 0.773277 0.191673
H23   H     H_    0.384926 0.344170 0.137178 0.139507
H24   H     H_    0.462367 0.241517 0.825727 0.178250
H25   H     H_    0.749287 0.553797 0.889238 0.161579
H26   H     H_    0.713439 0.721767 0.886232 0.105356
H27   H     H_    0.749270 0.553725 0.135756 0.162922
H28   H     H_    0.710965 0.721355 0.131835 0.123142
H29   H     H_    0.243898 0.700409 0.659683 0.147237
H30   H     H_    0.142626 0.837872 0.810714 0.102710
N1    N     N_R   0.500790 0.500930 0.147930 -0.250712
N2    N     N_R   0.500790 0.500890 0.852020 -0.233044
O1    O     O_R   0.500000 0.319640 0.618810 -0.526136
O2    O     O_R   0.500010 0.319680 0.381230 -0.510230
O3    O     O_R   0.319640 0.499980 0.618820 -0.522550
O4    O     O_R   0.319650 0.500020 0.381230 -0.498433
O5    O     O_R   0.499990 0.680320 0.618770 -0.508424
O6    O     O_R   0.500000 0.680360 0.381190 -0.504010
O7    O     O_R   0.680350 0.499980 0.618770 -0.511039
O8    O     O_R   0.680360 0.500020 0.381180 -0.504016

loop_
_geom_bond_atom_site_label_1
_geom_bond_atom_site_label_2
_ccdc_geom_bond_type
C18   H30   S    
C17   H29   S    
C7    C29   S    
Cu2   N1    S    
C7    C36   S    
C19   C20   A    
C13   H25   S    
C2    H6    S    
C30   H14   S    
C12   C23   A    
C26   C27   A    
C37   C38   A    
C1    O2    A    
Cu1   O5    S    
C36   C37   A    
C7    H12   S    
C18   C19   A    
C26   H10   S    
C16   C35   S    
C5    C6    S    
C15   O6    A    
C5    C36   A    
C34   C35   A    
C38   H5    S    
C10   C31   S    
C23   C33   A    
C6    H1    S    
C12   C17   A    
C14   H27   S    
Cu2   O8    S    
Cu1   O3    S    
C9    C10   A    
C19   H2    S    
C1    C37   S    
C22   C28   A    
C13   C14   S    
C31   H22   S    
C27   H11   S    
C17   C18   A    
C13   H26   S    
C6    H7    S    
C24   H8    S    
C34   H4    S    
C24   C25   A    
Cu1   Cu2   S    
C4    C23   S    
C11   N2    A    
C25   C26   A    
C30   H16   S    
C12   C21   A    
Cu2   O4    S    
C16   O8    A    
Cu1   O7    S    
C29   C30   S    
C2    C38   A    
C31   C32   S    
Cu1   N2    S    
C33   C34   A    
C29   H18   S    
C29   H17   S    
Cu2   O6    S    
C32   H20   S    
C20   H3    S    
C3    C15   S    
C22   C33   S    
C8    N1    A    
C8    C14   S    
C9    H23   S    
C31   H24   S    
C9    N1    A    
C3    C5    A    
C32   H21   S    
C28   H13   S    
C6    C7    S    
C21   C35   A    
C30   H15   S    
C16   O7    A    
C1    O1    A    
C2    C3    A    
C11   C13   S    
C15   O5    A    
C8    C11   A    
Cu2   O2    S    
C22   C24   A    
Cu1   O1    S    
C25   H9    S    
C4    O4    A    
C4    O3    A    
C20   C21   A    
C27   C28   A    
C14   H28   S    
C32   H19   S    
C10   N2    A    
