data_mof_unit_56568.cif
_audit_creation_date              2012-12-11T16:05:08-0500
_audit_creation_method            fapswitch 2.2
_symmetry_space_group_name_H-M    P1
_symmetry_Int_Tables_number       1
_space_group_crystal_system       triclinic
_cell_length_a                    10.678324
_cell_length_b                    10.653318
_cell_length_c                    16.900292
_cell_angle_alpha                 98.814764
_cell_angle_beta                  98.852159
_cell_angle_gamma                 61.283588
_cell_volume                      1659.03575516

loop_
_atom_site_label
_atom_site_type_symbol
_atom_type_description
_atom_site_fract_x
_atom_site_fract_y
_atom_site_fract_z
_atom_type_partial_charge
C1    C     C_R   0.382543 0.706411 0.387011 0.559112
C2    C     C_3   0.311183 0.690090 0.232462 -0.132918
C3    C     C_3   0.371185 0.749039 0.308126 0.043949
C4    C     C_R   0.369471 0.345825 0.359173 0.530534
C5    C     C_3   0.491942 0.738286 0.264742 -0.118787
C6    C     C_3   0.394256 0.894089 0.242883 -0.119406
C7    C     C_3   0.275089 0.903661 0.288444 -0.118341
C8    C     C_3   0.213916 0.845654 0.211942 -0.099525
C9    C     C_3   0.334467 0.834284 0.166740 0.056306
C10   C     C_3   0.437095 0.241266 0.770861 -0.142320
C11   C     C_3   0.366719 0.387712 0.736385 0.074380
C12   C     C_3   0.744244 0.390091 0.255785 -0.085771
C13   C     C_3   0.328148 0.321356 0.655420 0.032527
C14   C     C_3   0.397533 0.173179 0.689158 -0.118734
C15   C     C_3   0.250465 0.214426 0.716584 0.075549
C16   C     C_R   0.785216 0.372054 0.405411 0.526496
C17   C     C_3   0.183003 0.360683 0.682331 0.102025
C18   C     C_3   0.221399 0.427255 0.763235 0.144012
C19   C     C_3   0.288861 0.280805 0.797998 0.043111
C20   C     C_1   0.838160 0.332962 0.706999 -0.020111
C21   C     C_1   0.882975 0.299552 0.774123 -0.039010
C22   C     C_1   0.343613 0.800936 0.711755 0.025911
C23   C     C_3   0.850264 0.331423 0.329848 0.040226
C24   C     C_1   0.318320 0.829485 0.780528 -0.011602
C25   C     C_R   0.961485 0.283743 0.102640 0.561768
C26   C     C_R   0.318966 0.299287 0.120420 0.545303
C27   C     C_R   0.295048 0.890347 0.088571 0.541699
C28   C     C_R   0.359611 0.764389 0.628704 0.590071
C29   C     C_R   0.937746 0.277695 0.855738 0.535146
C30   C     C_R   0.277599 0.252396 0.877323 0.548158
C31   C     C_R   0.282054 0.881142 0.860169 0.526550
C32   C     C_R   0.366066 0.344039 0.583220 0.552506
C33   C     C_R   0.775913 0.378812 0.629326 0.557465
C34   C     C_3   0.931976 0.184801 0.283033 -0.144222
C35   C     C_1   0.342254 0.334493 0.275483 -0.065332
C36   C     C_1   0.330786 0.324597 0.204209 -0.067794
C37   C     C_3   0.826894 0.243577 0.207827 -0.122384
C38   C     C_3   0.030965 0.239650 0.258367 -0.173791
C39   C     C_3   0.948422 0.386321 0.307416 -0.090363
C40   C     C_3   0.843963 0.441784 0.233245 0.115395
C41   C     C_3   0.924470 0.298731 0.184503 0.050153
C42   C     C_3   0.431393 0.679487 0.186795 -0.142758
Cr1   Cr    Cr6+3 0.608340 0.611040 0.520430 1.028440
Cr2   Cr    Cr6+3 0.287650 0.601120 0.489350 1.015687
Cr3   Cr    Cr6+3 0.604040 0.287870 0.490280 1.021670
Cr4   Cr    Cr6+3 0.054020 0.052700 0.970850 1.018805
Cr5   Cr    Cr6+3 0.059230 0.375120 0.993390 1.027704
Cr6   Cr    Cr6+3 0.374950 0.061200 0.992340 1.020342
H1    H     H_    0.626450 0.445582 0.257252 0.102280
H2    H     H_    0.216877 0.989785 0.334991 0.125842
H3    H     H_    0.449768 0.506012 0.807949 0.227254
H4    H     H_    0.530174 0.426894 0.723267 0.238637
H5    H     H_    0.109685 0.146191 0.656602 0.245414
H6    H     H_    0.148506 0.119294 0.755479 0.206451
H7    H     H_    0.059275 0.360572 0.578478 0.215150
H8    H     H_    0.032945 0.524382 0.618982 0.245027
H9    H     H_    0.101586 0.643805 0.763949 0.245229
H10   H     H_    0.185758 0.586821 0.853531 0.244466
H11   H     H_    0.776768 0.185559 0.166174 0.138299
H12   H     H_    0.428248 0.978149 0.245129 0.132665
H13   H     H_    0.148781 0.182969 0.256197 0.101179
H14   H     H_    0.889262 0.588251 0.196330 0.252993
H15   H     H_    0.730250 0.597176 0.155535 0.255768
H16   H     H_    0.601648 0.698827 0.295175 0.179634
H17   H     H_    0.098351 0.890472 0.190250 0.136275
H18   H     H_    0.542788 0.194787 0.806867 0.152247
H19   H     H_    0.467794 0.068335 0.657421 0.150128
H20   H     H_    0.964428 0.080290 0.305962 0.124697
H21   H     H_    0.997458 0.445274 0.349165 0.128776
H22   H     H_    0.274714 0.608291 0.230275 0.120363
H23   H     H_    0.494037 0.589866 0.142871 0.117541
N1    N     N_3   0.430243 0.483858 0.746235 -0.625132
N2    N     N_3   0.191767 0.114324 0.703296 -0.640382
N3    N     N_3   0.047809 0.425498 0.632712 -0.588006
N4    N     N_3   0.126674 0.565884 0.802839 -0.567516
N5    N     N_3   0.798476 0.583849 0.208491 -0.642889
O1    O     O_R   0.751220 0.499230 0.435170 -0.529496
O2    O     O_R   0.412990 0.180750 0.091610 -0.503352
O3    O     O_R   0.366620 0.943130 0.065760 -0.501354
O4    O     O_R   0.477220 0.727600 0.436870 -0.500716
O5    O     O_R   0.160510 0.906330 0.879210 -0.516959
O6    O     O_R   0.930190 0.179050 0.889450 -0.485981
O7    O     O_R   0.909140 0.398170 0.896710 -0.483942
O8    O     O_R   0.186190 0.363460 0.918830 -0.489165
O9    O     O_R   0.401670 0.173200 0.913310 -0.510776
O10   O     O_R   0.356120 0.936130 0.900470 -0.505860
O11   O     O_3   0.162740 0.163010 0.985530 -0.316967
O12   O     O_R   0.297880 0.469080 0.560050 -0.496450
O13   O     O_R   0.258650 0.745120 0.411470 -0.514513
O14   O     O_R   0.297070 0.467240 0.395960 -0.524119
O15   O     O_R   0.488830 0.252610 0.387790 -0.505099
O16   O     O_R   0.724400 0.302390 0.420980 -0.499818
O17   O     O_R   0.752100 0.501210 0.612190 -0.480118
O18   O     O_R   0.478040 0.729440 0.600970 -0.494172
O19   O     O_R   0.259530 0.747110 0.588490 -0.502955
O20   O     O_R   0.489720 0.254590 0.564810 -0.517982
O21   O     O_R   0.725220 0.304230 0.585080 -0.506774
O22   O     O_3   0.500010 0.500010 0.500020 -0.279220
O23   O     O_R   0.171830 0.913880 0.057510 -0.526613
O24   O     O_R   0.940690 0.186050 0.054730 -0.493563
O25   O     O_R   0.920470 0.405720 0.075010 -0.521347
O26   O     O_R   0.196690 0.370460 0.084120 -0.512904

loop_
_geom_bond_atom_site_label_1
_geom_bond_atom_site_label_2
_ccdc_geom_bond_type
C5    C42   S    
C11   C18   S    
C18   N4    S    
Cr5   O25   S    
C34   C37   S    
C13   C32   S    
C35   C36   T    
Cr1   O22   S    
Cr4   O23   S    
C25   O25   A    
C6    C9    S    
C12   H1    S    
C7    C8    S    
C15   C19   S    
C12   C23   S    
C27   O23   A    
C9    C42   S    
C26   O2    A    
C28   O19   A    
Cr6   O3    S    
C29   O7    A    
C3    C7    S    
Cr3   O22   S    
C38   C39   S    
H15   N5    S    
C32   O12   A    
Cr1   O18   S    
C28   O18   A    
C16   O1    A    
Cr6   O2    S    
C12   C37   S    
Cr3   O16   S    
Cr4   O6    S    
H7    N3    S    
Cr2   O22   S    
C8    C9    S    
C14   H19   S    
Cr3   O20   S    
Cr5   O7    S    
C33   O21   A    
C38   H13   S    
C4    C35   S    
C8    H17   S    
C31   O10   A    
C22   C28   S    
C13   C14   S    
C37   C41   S    
H14   N5    S    
H10   N4    S    
C4    O14   A    
C10   H18   S    
H5    N2    S    
H8    N3    S    
C6    H12   S    
C38   C41   S    
C10   C14   S    
C25   C41   S    
C39   C40   S    
C11   N1    S    
C18   C19   S    
Cr1   O4    S    
C21   C29   S    
C40   N5    S    
C5    H16   S    
C1    C3    S    
Cr5   O11   S    
C12   C40   S    
H4    N1    S    
H6    N2    S    
C25   O24   A    
C10   C19   S    
C23   C34   S    
C17   C18   S    
C39   H21   S    
Cr6   O11   S    
Cr5   O8    S    
C30   O9    A    
C37   H11   S    
C20   C33   S    
C26   C36   S    
C40   C41   S    
C32   O20   A    
C16   O16   A    
C16   C23   S    
C17   N3    S    
C22   C24   T    
H3    N1    S    
C34   H20   S    
Cr2   O14   S    
C9    C27   S    
Cr4   O11   S    
Cr4   O5    S    
C15   C17   S    
Cr4   O24   S    
C1    O13   A    
C15   N2    S    
C34   C38   S    
Cr6   O9    S    
C2    C8    S    
C7    H2    S    
C3    C5    S    
C33   O17   A    
C6    C7    S    
Cr1   O1    S    
C27   O3    A    
C31   O5    A    
C13   C17   S    
C4    O15   A    
C2    C3    S    
C24   C31   S    
C29   O6    A    
Cr2   O19   S    
Cr3   O21   S    
C26   O26   A    
C11   C13   S    
H9    N4    S    
C5    C6    S    
C2    C42   S    
C23   C39   S    
C42   H23   S    
Cr1   O17   S    
Cr6   O10   S    
C30   O8    A    
Cr3   O15   S    
Cr2   O12   S    
C10   C11   S    
C20   C21   T    
Cr5   O26   S    
C1    O4    A    
C14   C15   S    
C2    H22   S    
C19   C30   S    
Cr2   O13   S    
