data_mof_unit_13063.cif
_audit_creation_date              2012-12-10T17:58:17-0500
_audit_creation_method            fapswitch 2.2
_symmetry_space_group_name_H-M    P1
_symmetry_Int_Tables_number       1
_space_group_crystal_system       triclinic
_cell_length_a                    9.68544
_cell_length_b                    10.697323
_cell_length_c                    15.809519
_cell_angle_alpha                 88.54415
_cell_angle_beta                  72.393856
_cell_angle_gamma                 89.311189
_cell_volume                      1560.75025764

loop_
_atom_site_label
_atom_site_type_symbol
_atom_type_description
_atom_site_fract_x
_atom_site_fract_y
_atom_site_fract_z
_atom_type_partial_charge
C1    C     C_R   0.000696 0.262807 0.500233 0.759207
C2    C     C_R   0.999752 0.737162 0.499391 0.735205
C3    C     C_R   0.565972 0.618445 0.080099 -0.180016
C4    C     C_R   0.405925 0.545549 0.904647 -0.143658
C5    C     C_R   0.709382 0.639226 0.030130 -0.224927
C6    C     C_R   0.261772 0.531577 0.953090 -0.220879
C7    C     C_R   0.931535 0.062262 0.578041 -0.192609
C8    C     C_R   0.074518 0.937428 0.422098 -0.163727
C9    C     C_R   0.927827 0.932809 0.577239 -0.156337
C10   C     C_R   0.075691 0.067084 0.422470 -0.201601
C11   C     C_R   0.999112 0.871093 0.499222 0.043684
C12   C     C_R   0.002847 0.128809 0.500257 0.015045
C13   C     C_R   0.558621 0.402488 0.537976 0.427590
C14   C     C_R   0.441054 0.601007 0.467626 0.433415
C15   C     C_R   0.415406 0.396746 0.528077 0.390753
C16   C     C_R   0.589364 0.600071 0.466046 0.394723
C17   C     C_R   0.916386 0.498785 0.671601 0.823799
C18   C     C_R   0.083829 0.494882 0.328486 0.798931
C19   C     C_R   0.867356 0.512207 0.768909 -0.269712
C20   C     C_R   0.132123 0.491968 0.230222 -0.246671
C21   C     C_R   0.909486 0.597567 0.899400 -0.304358
C22   C     C_R   0.077477 0.484933 0.090538 -0.321566
C23   C     C_R   0.964298 0.548447 0.814686 0.431693
C24   C     C_R   0.031387 0.471055 0.183598 0.443275
C25   C     C_R   0.719074 0.500366 0.815481 0.364677
C26   C     C_R   0.280257 0.508637 0.182845 0.345406
C27   C     C_R   0.662797 0.551302 0.901029 -0.034383
C28   C     C_R   0.322783 0.535098 0.090682 -0.020604
C29   C     C_R   0.760733 0.597616 0.943142 0.037979
C30   C     C_R   0.219808 0.519220 0.045023 0.023119
C31   C     C_R   0.512678 0.552318 0.947866 0.070772
C32   C     C_R   0.467485 0.566537 0.041107 0.095882
Cu1   Cu    Cu3+1 0.140660 0.500020 0.500000 1.023969
Cu2   Cu    Cu3+1 0.859340 0.499980 0.500000 1.033973
H1    H     H_    0.782172 0.682634 0.060727 0.132823
H2    H     H_    0.183244 0.525787 0.918393 0.186261
H3    H     H_    0.983088 0.634030 0.932130 0.159882
H4    H     H_    0.004436 0.465113 0.052605 0.155414
H5    H     H_    0.531960 0.648666 0.147993 0.165789
H6    H     H_    0.431030 0.556073 0.833490 0.212993
H7    H     H_    0.880083 0.110496 0.639021 0.112478
H8    H     H_    0.130651 0.888990 0.361959 0.101912
H9    H     H_    0.871950 0.880784 0.637334 0.125043
H10   H     H_    0.132225 0.119189 0.362551 0.112960
N1    N     N_R   0.352080 0.500030 0.499980 -0.269571
N2    N     N_R   0.647920 0.499970 0.500020 -0.274753
O1    O     O_R   0.118740 0.319660 0.500000 -0.540800
O2    O     O_R   0.881260 0.680340 0.500000 -0.535975
O3    O     O_R   0.881170 0.319630 0.500010 -0.555855
O4    O     O_R   0.118830 0.680370 0.499990 -0.521835
O5    O     O_R   0.055570 0.500030 0.629830 -0.534693
O6    O     O_R   0.944430 0.499970 0.370170 -0.550108
O7    O     O_R   0.818000 0.500000 0.629840 -0.495403
O8    O     O_R   0.182000 0.500000 0.370160 -0.553970
O9    O     O_3   0.384015 0.480777 0.224435 -0.592090
C33   C     C_3   0.413926 0.351214 0.216724 -0.324558
H11   H     H_    0.471141 0.327445 0.146675 0.165846
H12   H     H_    0.314032 0.293937 0.242770 0.151515
H13   H     H_    0.485696 0.324892 0.257067 0.159345
O10   O     O_3   0.632409 0.430829 0.779193 -0.544022
C34   C     C_3   0.636295 0.305073 0.807505 -0.264382
H14   H     H_    0.603969 0.295214 0.881215 0.138146
H15   H     H_    0.745488 0.263409 0.777470 0.135627
H16   H     H_    0.557267 0.251209 0.785076 0.194066
O11   O     O_3   0.897941 0.418864 0.230166 -0.564424
C35   C     C_3   0.786030 0.454918 0.194776 -0.331860
H17   H     H_    0.793809 0.554940 0.173870 0.141784
H18   H     H_    0.681861 0.444066 0.247965 0.187346
H19   H     H_    0.783938 0.393442 0.139614 0.181049
O12   O     O_3   0.112816 0.539221 0.777081 -0.558987
C36   C     C_3   0.154185 0.411977 0.780160 -0.273915
H20   H     H_    0.274177 0.406409 0.760383 0.209927
H21   H     H_    0.118010 0.354477 0.733444 0.186435
H22   H     H_    0.111377 0.369325 0.847989 0.121233
O13   O     O_3   0.595569 0.331653 0.603020 -0.517252
C37   C     C_3   0.593997 0.201877 0.590546 -0.222636
H23   H     H_    0.654853 0.175776 0.521734 0.161802
H24   H     H_    0.482786 0.163763 0.613279 0.195231
H25   H     H_    0.649607 0.155640 0.634495 0.149967
O14   O     O_3   0.385784 0.709800 0.441528 -0.521205
C38   C     C_3   0.411928 0.713347 0.348539 -0.208837
H26   H     H_    0.489782 0.641479 0.311588 0.132113
H27   H     H_    0.454990 0.806819 0.322396 0.135162
H28   H     H_    0.308267 0.703814 0.333412 0.183454
O15   O     O_3   0.343747 0.284400 0.543029 -0.553252
C39   C     C_3   0.391064 0.215954 0.463498 -0.307877
H29   H     H_    0.510201 0.202963 0.439252 0.113609
H30   H     H_    0.357812 0.262395 0.409044 0.179999
H31   H     H_    0.341183 0.121822 0.476031 0.206377
O16   O     O_3   0.665909 0.710528 0.443897 -0.517961
C40   C     C_3   0.745135 0.714936 0.352794 -0.219641
H32   H     H_    0.858574 0.741646 0.345261 0.167537
H33   H     H_    0.699873 0.789170 0.318670 0.134939
H34   H     H_    0.747914 0.625719 0.318331 0.145748

loop_
_geom_bond_atom_site_label_1
_geom_bond_atom_site_label_2
_ccdc_geom_bond_type
C35   H18   S    
O9    C33   S    
C16   O16   S    
C27   C29   A    
Cu1   N1    S    
C37   H25   S    
C26   O9    S    
C17   O5    A    
C38   H26   S    
C18   O6    A    
O15   C39   S    
C22   C24   A    
C8    H8    S    
C13   N2    A    
C39   H30   S    
C35   H19   S    
C22   H4    S    
C33   H11   S    
C34   H15   S    
C2    O4    A    
C4    H6    S    
C33   H12   S    
C13   O13   S    
O12   C36   S    
Cu2   N2    S    
C25   O10   S    
C14   O14   S    
C15   O15   S    
C35   H17   S    
C3    H5    S    
C23   O12   S    
C3    C32   A    
C1    C12   S    
C2    C11   S    
C38   H27   S    
C14   N1    A    
C5    C29   A    
C7    C12   A    
C9    H9    S    
C10   H10   S    
C20   C24   A    
C28   C32   A    
C37   H23   S    
C4    C6    A    
C16   N2    A    
C40   H32   S    
C36   H21   S    
C39   H29   S    
C1    O1    A    
C2    O2    A    
Cu1   O4    S    
C21   C29   A    
O10   C34   S    
C34   H16   S    
C19   C23   A    
O13   C37   S    
C40   H33   S    
C31   C32   A    
Cu1   Cu2   S    
C9    C11   A    
C10   C12   A    
C24   O11   S    
C6    C30   A    
C13   C15   A    
C27   C31   A    
C25   C27   A    
Cu1   O1    S    
C14   C16   A    
Cu2   O2    S    
C15   N1    A    
C17   O7    A    
C38   H28   S    
Cu1   O8    S    
C7    C9    A    
Cu2   O3    S    
C22   C30   A    
Cu2   O6    S    
C37   H24   S    
O14   C38   S    
C3    C5    A    
C39   H31   S    
C36   H22   S    
Cu1   O5    S    
C26   C28   A    
C33   H13   S    
C21   C23   A    
C36   H20   S    
C40   H34   S    
O16   C40   S    
C20   C26   A    
C8    C11   A    
C5    H1    S    
C28   C30   A    
C17   C19   S    
C6    H2    S    
C18   C20   S    
C7    H7    S    
C34   H14   S    
C19   C25   A    
C4    C31   A    
C18   O8    A    
C21   H3    S    
Cu2   O7    S    
C8    C10   A    
O11   C35   S    
C1    O3    A    
