data_mof_unit_19696.cif
_audit_creation_date              2012-12-11T16:30:26-0500
_audit_creation_method            fapswitch 2.2
_symmetry_space_group_name_H-M    P1
_symmetry_Int_Tables_number       1
_space_group_crystal_system       triclinic
_cell_length_a                    6.930367
_cell_length_b                    14.219002
_cell_length_c                    16.311027
_cell_angle_alpha                 90.000028
_cell_angle_beta                  89.796523
_cell_angle_gamma                 90.00019
_cell_volume                      1607.3258031

loop_
_atom_site_label
_atom_site_type_symbol
_atom_type_description
_atom_site_fract_x
_atom_site_fract_y
_atom_site_fract_z
_atom_type_partial_charge
O1    O     O_R   0.611670 0.415650 0.164070 -0.514990
O2    O     O_R   0.388330 0.915650 0.835930 -0.514999
O3    O     O_R   0.940950 0.405490 0.337780 -0.544974
O4    O     O_R   0.059050 0.905490 0.662220 -0.544976
O5    O     O_R   0.111350 0.584350 0.338470 -0.543644
O6    O     O_R   0.888650 0.084350 0.661530 -0.543644
C1    C     C_R   0.771975 0.383534 0.367701 0.659369
C2    C     C_R   0.228024 0.883535 0.632298 0.659411
O7    O     O_R   0.941380 0.404630 0.164680 -0.544011
O8    O     O_R   0.058620 0.904630 0.835320 -0.544012
O9    O     O_R   0.111780 0.583470 0.164130 -0.539432
O10   O     O_R   0.888220 0.083470 0.835870 -0.539434
C3    C     C_R   0.772392 0.381676 0.136333 0.761402
C4    C     C_R   0.227606 0.881678 0.863668 0.761431
O11   O     O_R   0.611240 0.416530 0.338400 -0.528331
O12   O     O_R   0.388760 0.916530 0.661600 -0.528328
O13   O     O_3   0.778020 0.558680 0.251290 -0.371107
O14   O     O_3   0.221980 0.058680 0.748710 -0.371108
V1    V     V_3+5 0.052840 0.489110 0.251260 1.403226
V2    V     V_3+5 0.947160 0.989110 0.748740 1.403219
O15   O     O_R   0.441500 0.594510 0.164760 -0.540020
O16   O     O_R   0.558500 0.094510 0.835240 -0.540019
C5    C     C_R   0.272606 0.617878 0.137343 0.695634
C6    C     C_R   0.727395 0.117876 0.862659 0.695632
O17   O     O_R   0.441080 0.595370 0.337860 -0.546191
O18   O     O_R   0.558920 0.095370 0.662140 -0.546192
C7    C     C_R   0.271883 0.619295 0.365807 0.633094
C8    C     C_R   0.728117 0.119296 0.634193 0.633095
V3    V     V_3+5 0.552850 0.510890 0.251270 1.421535
V4    V     V_3+5 0.447150 0.010890 0.748730 1.421538
O19   O     O_3   0.277800 0.441320 0.251250 -0.355271
O20   O     O_3   0.722200 0.941320 0.748750 -0.355280
C9    C     C_3   0.143511 0.649063 0.508588 -0.314526
C10   C     C_3   0.856384 0.149038 0.491391 -0.314525
H1    H     H_    0.993867 0.632524 0.488624 0.137050
H2    H     H_    0.006031 0.132462 0.511330 0.137030
H3    H     H_    0.210154 0.581782 0.528929 0.111617
H4    H     H_    0.789650 0.081773 0.471059 0.111616
C11   C     C_3   0.135113 0.719062 0.581485 -0.329314
C12   C     C_3   0.864784 0.219037 0.418495 -0.329328
H5    H     H_    0.204065 0.684380 0.634354 0.122278
H6    H     H_    0.795743 0.184370 0.365638 0.122277
H7    H     H_    0.012507 0.767362 0.385312 0.133612
H8    H     H_    0.987625 0.267306 0.614643 0.133635
H9    H     H_    0.988204 0.868947 0.494639 0.132705
H10   H     H_    0.011898 0.368899 0.505323 0.132717
C13   C     C_3   0.159326 0.783105 0.409067 -0.323760
C14   C     C_3   0.840791 0.283083 0.590918 -0.323762
C15   C     C_3   0.464802 0.716812 0.467928 -0.315862
C16   C     C_3   0.535189 0.216861 0.532108 -0.315836
C17   C     C_3   0.260614 0.690526 0.435931 0.126021
C18   C     C_3   0.739386 0.190526 0.564070 0.126022
H11   H     H_    0.553721 0.746326 0.417115 0.135348
H12   H     H_    0.446357 0.246404 0.582937 0.135328
H13   H     H_    0.539632 0.652556 0.490412 0.127006
H14   H     H_    0.460261 0.152621 0.509643 0.127020
C19   C     C_3   0.239303 0.813186 0.560641 0.114961
C20   C     C_3   0.760696 0.313184 0.439358 0.114969
C21   C     C_3   0.143052 0.853642 0.482192 -0.321887
C22   C     C_3   0.857049 0.353620 0.517794 -0.321870
C23   C     C_3   0.452717 0.789812 0.538140 -0.302071
C24   C     C_3   0.547278 0.289851 0.461888 -0.302079
H15   H     H_    0.530307 0.761902 0.592356 0.133417
H16   H     H_    0.469636 0.261945 0.407682 0.133423
H17   H     H_    0.529039 0.855160 0.518984 0.129372
H18   H     H_    0.471016 0.355215 0.481048 0.129357
H19   H     H_    0.242199 0.816224 0.358151 0.119825
H20   H     H_    0.758007 0.316217 0.641854 0.119811
H21   H     H_    0.212878 0.921355 0.465071 0.113318
H22   H     H_    0.787286 0.421344 0.534930 0.113320
H23   H     H_    0.530656 0.571030 0.778717 0.107601
H24   H     H_    0.469268 0.071039 0.221280 0.107598
C25   C     C_R   0.087346 0.928754 0.024384 -0.152284
C26   C     C_R   0.912659 0.428751 0.975618 -0.152281
C27   C     C_R   0.021692 0.955656 0.101729 -0.109518
C28   C     C_R   0.978317 0.455653 0.898274 -0.109518
C29   C     C_R   0.033885 0.893709 0.167267 -0.141025
C30   C     C_R   0.966129 0.393705 0.832736 -0.141025
C31   C     C_R   0.112417 0.804490 0.155998 -0.147307
C32   C     C_R   0.887595 0.304487 0.844005 -0.147305
C33   C     C_R   0.180015 0.774958 0.078085 0.074504
C34   C     C_R   0.819990 0.274955 0.921918 0.074504
C35   C     C_R   0.167385 0.838205 0.010646 0.043879
C36   C     C_R   0.832617 0.338202 0.989357 0.043884
C37   C     C_R   0.262880 0.684802 0.067435 -0.173880
C38   C     C_R   0.737123 0.184799 0.932567 -0.173881
C39   C     C_R   0.333578 0.657240 0.989535 0.022980
C40   C     C_R   0.666417 0.157238 0.010467 0.022980
C41   C     C_R   0.323949 0.720074 0.921113 0.053053
C42   C     C_R   0.676025 0.220076 0.078887 0.053055
C43   C     C_R   0.238565 0.811578 0.932013 -0.191556
C44   C     C_R   0.761426 0.311577 0.067988 -0.191552
C45   C     C_R   0.410574 0.565753 0.978548 -0.156491
C46   C     C_R   0.589430 0.065751 0.021454 -0.156490
C47   C     C_R   0.480954 0.536338 0.903388 -0.161944
C48   C     C_R   0.519033 0.036338 0.096614 -0.161933
C49   C     C_R   0.476284 0.596409 0.837000 -0.163934
C50   C     C_R   0.523662 0.096414 0.162998 -0.163939
C51   C     C_R   0.397671 0.687097 0.844032 0.206888
C52   C     C_R   0.602258 0.187105 0.155964 0.206877
H25   H     H_    0.077079 0.980670 0.976193 0.117824
H26   H     H_    0.922922 0.480668 0.023810 0.117828
H27   H     H_    0.963009 0.025408 0.111029 0.131448
H28   H     H_    0.037000 0.525405 0.888975 0.131450
H29   H     H_    0.983719 0.915134 0.227368 0.108044
H30   H     H_    0.016299 0.415129 0.772636 0.108041
H31   H     H_    0.121228 0.759491 0.209318 0.095494
H32   H     H_    0.878787 0.259487 0.790685 0.095499
H33   H     H_    0.415211 0.514677 0.027572 0.129706
H34   H     H_    0.584814 0.014672 0.972432 0.129695
H35   H     H_    0.537226 0.465792 0.896274 0.148331
H36   H     H_    0.462771 0.965790 0.103728 0.148332
N1    N     N_3   0.386934 0.743175 0.771555 -0.645538
H37   H     H_    0.241644 0.744490 0.755085 0.188150
H38   H     H_    0.464202 0.712392 0.723487 0.201607
N2    N     N_3   0.612920 0.243195 0.228436 -0.645493
H39   H     H_    0.758190 0.244509 0.244931 0.188135
H40   H     H_    0.535584 0.212430 0.276494 0.201618
H41   H     H_    0.981922 0.732785 0.598285 0.138523
H42   H     H_    0.017974 0.232726 0.401669 0.138509

loop_
_geom_bond_atom_site_label_1
_geom_bond_atom_site_label_2
_ccdc_geom_bond_type
C28   H28   S    
C20   C24   S    
O11   V3    S    
O13   V3    S    
C52   N2    S    
O4    C2    A    
V1    O19   S    
C11   H5    S    
H24   C50   S    
C48   H36   S    
O9    V1    S    
C9    C11   S    
C26   C28   A    
C41   C51   A    
C10   C12   S    
C28   C30   A    
O3    C1    A    
C30   C32   A    
C19   C21   S    
C20   C22   S    
C11   C19   S    
C38   C40   A    
N2    H39   S    
C6    C38   S    
C42   C52   A    
C23   H15   S    
O7    C3    A    
C24   H16   S    
C33   C35   A    
O5    C7    A    
O7    V1    S    
O6    C8    A    
O8    V2    S    
C15   C17   S    
C48   C50   A    
C16   C18   S    
O3    V1    S    
O14   V4    S    
C41   C43   A    
C1    C20   S    
C10   H2    S    
C26   H26   S    
C1    O11   A    
C2    O12   A    
C27   H27   S    
C25   C27   A    
C13   H19   S    
C49   C51   A    
C7    C17   S    
C14   C22   S    
C29   C31   A    
O17   V3    S    
C40   C46   A    
C15   C23   S    
C24   H18   S    
C37   C39   A    
C12   C20   S    
C32   C34   A    
O8    C4    A    
C31   C33   A    
O13   V1    S    
C13   C17   S    
C34   C38   A    
O15   V3    S    
C46   H34   S    
C16   H14   S    
C9    C17   S    
C2    C19   S    
H23   C49   S    
C42   C44   A    
C22   H22   S    
O10   V2    S    
O1    V3    S    
C31   H31   S    
C16   H12   S    
C14   H20   S    
C46   C48   A    
C27   C29   A    
C21   H21   S    
C12   H42   S    
C40   C42   A    
O18   V4    S    
C34   C36   A    
O15   C5    A    
C3    C44   S    
C16   C24   S    
O16   C6    A    
O1    C3    A    
C11   H41   S    
O6    V2    S    
N1    H37   S    
V2    O20   S    
O10   C6    A    
H9    C21   S    
C25   H25   S    
O16   V4    S    
H10   C22   S    
C10   H4    S    
O18   C8    A    
C26   C36   A    
C12   H6    S    
C51   N1    S    
C47   C49   A    
C19   C23   S    
O5    V1    S    
O17   C7    A    
C35   C43   A    
C32   H32   S    
C10   C18   S    
O2    V4    S    
C30   H30   S    
C29   H29   S    
V3    O19   S    
C15   H13   S    
V4    O20   S    
C8    C18   S    
H7    C13   S    
C15   H11   S    
C39   C45   A    
O9    C5    A    
C9    H1    S    
N2    H40   S    
O14   V2    S    
O2    C4    A    
C50   C52   A    
C9    H3    S    
C4    C43   S    
C13   C21   S    
O4    V2    S    
C23   H17   S    
C14   C18   S    
C45   C47   A    
C5    C37   S    
C39   C41   A    
C47   H35   S    
C36   C44   A    
O12   V4    S    
C25   C35   A    
C33   C37   A    
H8    C14   S    
C45   H33   S    
N1    H38   S    
