data_mof_unit_33571.cif
_audit_creation_date              2012-12-10T19:02:40-0500
_audit_creation_method            fapswitch 2.2
_symmetry_space_group_name_H-M    P1
_symmetry_Int_Tables_number       1
_space_group_crystal_system       triclinic
_cell_length_a                    9.648255
_cell_length_b                    10.895569
_cell_length_c                    13.869777
_cell_angle_alpha                 91.234289
_cell_angle_beta                  84.776633
_cell_angle_gamma                 88.98292
_cell_volume                      1451.35959196

loop_
_atom_site_label
_atom_site_type_symbol
_atom_type_description
_atom_site_fract_x
_atom_site_fract_y
_atom_site_fract_z
_atom_type_partial_charge
C1    C     C_R   0.498404 0.737521 0.500286 0.906115
C2    C     C_1   0.464174 0.502779 0.785702 -0.070499
C3    C     C_R   0.399651 0.943722 0.556148 -0.086683
C4    C     C_R   0.497379 0.871448 0.498001 -0.132765
C5    C     C_R   0.605507 0.930886 0.442049 0.458110
C6    C     C_R   0.611504 0.061076 0.445148 -0.292585
C7    C     C_R   0.504698 0.130645 0.496992 -0.104482
C8    C     C_R   0.399214 0.068887 0.548073 -0.138012
C9    C     C_3   0.244377 0.084772 0.563233 0.234557
C10   C     C_3   0.243547 0.946113 0.580242 0.642847
C11   C     C_R   0.936106 0.425279 0.437129 0.117035
C12   C     C_R   0.477359 0.500478 0.682619 0.844348
C13   C     C_R   0.915495 0.566895 0.566766 0.396600
C14   C     C_R   0.062649 0.562098 0.569567 0.450858
C15   C     C_R   0.082637 0.428829 0.434938 0.128501
C16   C     C_3   0.097570 0.432915 0.326433 0.225646
C17   C     C_3   0.940338 0.423845 0.329344 -0.504703
C18   C     C_R   0.501622 0.263169 0.497035 0.779465
C19   C     C_R   0.522766 0.499588 0.317348 0.817527
C20   C     C_1   0.536928 0.497416 0.214208 -0.101174
C21   C     C_2   0.562412 0.491268 0.022208 0.368686
C22   C     C_2   0.446720 0.508030 0.976297 0.309075
C23   C     C_1   0.454998 0.505191 0.872542 0.083426
C24   C     C_1   0.549018 0.494859 0.127293 -0.055908
Cu1   Cu    Cu3+1 0.359330 0.500020 0.500000 1.068865
Cu2   Cu    Cu3+1 0.640670 0.499980 0.500000 1.022190
H1    H     H_    0.155123 0.352390 0.291411 0.122187
H2    H     H_    0.888456 0.505432 0.300848 0.237678
H3    H     H_    0.905556 0.334987 0.300133 0.155933
H4    H     H_    0.691178 0.108123 0.400929 0.144615
H5    H     H_    0.212538 0.141872 0.629180 0.141493
N1    N     N_R   0.852140 0.499070 0.499400 -0.247892
N2    N     N_R   0.148050 0.499110 0.499400 -0.228674
O1    O     O_R   0.381190 0.680360 0.500000 -0.510886
O2    O     O_R   0.618770 0.680320 0.499990 -0.522755
O3    O     O_R   0.364410 0.500000 0.637850 -0.538715
O4    O     O_R   0.602000 0.499960 0.637840 -0.535477
O5    O     O_R   0.381230 0.319680 0.500010 -0.590722
O6    O     O_R   0.618810 0.319640 0.500000 -0.572842
O7    O     O_R   0.398000 0.500040 0.362160 -0.525215
O8    O     O_R   0.635590 0.500000 0.362150 -0.603157
Cl1   Cl    Cl    0.280592 0.533649 0.038358 -0.563823
Cl2   Cl    Cl    0.130593 0.638606 0.666626 -0.423092
Cl3   Cl    Cl    0.154759 0.576445 0.279207 -0.543466
O9    O     O_3   0.689845 0.472851 0.966355 -0.582854
C25   C     C_3   0.801043 0.444881 0.022335 0.059978
H6    H     H_    0.778997 0.360913 0.065075 0.138474
H7    H     H_    0.820289 0.523546 0.071645 0.174622
C26   C     C_3   0.932535 0.420274 0.955082 -0.608126
H8    H     H_    0.960280 0.503634 0.913386 0.284666
H9    H     H_    0.019784 0.395114 0.998217 0.230204
H10   H     H_    0.916057 0.343327 0.903800 0.240764
O10   O     O_3   0.686189 0.860078 0.373251 -0.588309
C27   C     C_3   0.826475 0.894415 0.364673 0.033115
H11   H     H_    0.863223 0.923410 0.435509 0.214177
H12   H     H_    0.841345 0.969460 0.311939 0.144774
C28   C     C_3   0.912916 0.783588 0.325951 -0.575257
H13   H     H_    0.023794 0.807654 0.312870 0.251947
H14   H     H_    0.903318 0.709571 0.379714 0.260440
H15   H     H_    0.876181 0.749738 0.256749 0.241324
O11   O     O_3   0.168954 0.121206 0.483788 -0.551048
C29   C     C_3   0.239709 0.104150 0.389933 0.154418
H16   H     H_    0.306275 0.019622 0.382179 0.168923
H17   H     H_    0.304190 0.184856 0.371512 0.141625
C30   C     C_3   0.133855 0.094171 0.315703 -0.798088
H18   H     H_    0.047935 0.162319 0.332031 0.234400
H19   H     H_    0.184787 0.109058 0.241925 0.214507
H20   H     H_    0.089626 0.001713 0.317361 0.255522
Cl4   Cl    Cl    0.198942 0.916791 0.705297 -0.479479
Cl5   Cl    Cl    0.145407 0.857819 0.501107 -0.564022
Cl6   Cl    Cl    0.816752 0.668870 0.647567 -0.458930

loop_
_geom_bond_atom_site_label_1
_geom_bond_atom_site_label_2
_ccdc_geom_bond_type
C1    O1    A    
C27   H11   S    
C18   O6    A    
C10   Cl4   S    
Cu2   O4    S    
Cu2   N1    S    
C29   H16   S    
C7    C18   S    
Cu1   O5    S    
C12   O3    A    
C17   H3    S    
C9    C10   S    
C16   Cl3   S    
C13   N1    A    
C19   C20   S    
Cu1   O1    S    
O10   C27   S    
C1    C4    S    
C2    C12   S    
C21   C22   D    
C26   H10   S    
C14   N2    A    
C18   O5    A    
C7    C8    A    
C3    C10   S    
C25   H6    S    
C13   C14   A    
C4    C5    A    
C25   C26   S    
C28   H13   S    
C22   Cl1   S    
C16   H1    S    
C9    O11   S    
C5    C6    A    
C10   Cl5   S    
C5    O10   S    
C6    H4    S    
C11   N1    A    
C26   H8    S    
C6    C7    A    
C21   O9    S    
Cu1   O7    S    
O11   C29   S    
C27   H12   S    
Cu2   O6    S    
C28   H14   S    
C19   O7    A    
C9    H5    S    
Cu1   O3    S    
C15   C16   S    
C25   H7    S    
C19   O8    A    
Cu2   O2    S    
C2    C23   T    
C30   H20   S    
C1    O2    A    
C14   Cl2   S    
C30   H18   S    
C3    C8    A    
C21   C24   S    
C12   O4    A    
C20   C24   T    
C22   C23   S    
C16   C17   S    
C28   H15   S    
C29   H17   S    
C13   Cl6   S    
C29   C30   S    
C30   H19   S    
Cu1   Cu2   S    
O9    C25   S    
C17   H2    S    
C11   C15   A    
C15   N2    A    
C11   C17   S    
C3    C4    A    
Cu2   O8    S    
Cu1   N2    S    
C8    C9    S    
C26   H9    S    
C27   C28   S    
