data_mof_unit_17166.cif
_audit_creation_date              2012-12-10T19:00:48-0500
_audit_creation_method            fapswitch 2.2
_symmetry_space_group_name_H-M    P1
_symmetry_Int_Tables_number       1
_space_group_crystal_system       triclinic
_cell_length_a                    15.079573
_cell_length_b                    10.805888
_cell_length_c                    9.592474
_cell_angle_alpha                 89.534275
_cell_angle_beta                  90.015632
_cell_angle_gamma                 90.934052
_cell_volume                      1562.81680449

loop_
_atom_site_label
_atom_site_type_symbol
_atom_type_description
_atom_site_fract_x
_atom_site_fract_y
_atom_site_fract_z
_atom_type_partial_charge
C1    C     C_R   0.500812 0.262640 0.500642 0.800469
C2    C     C_R   0.907158 0.498534 0.627713 0.109706
C3    C     C_R   0.953757 0.499470 0.245923 -0.212567
C4    C     C_R   0.046217 0.499916 0.245889 -0.211619
C5    C     C_R   0.092940 0.499931 0.372274 0.107589
C6    C     C_R   0.046534 0.499577 0.500013 0.062364
C7    C     C_R   0.092981 0.499465 0.627740 0.108217
C8    C     C_R   0.046300 0.498945 0.754148 -0.211650
C9    C     C_R   0.953842 0.498441 0.754133 -0.212422
C10   C     C_R   0.185333 0.500152 0.373157 -0.246504
C11   C     C_R   0.231772 0.499978 0.499990 -0.078671
C12   C     C_R   0.328714 0.499939 0.499999 0.812929
C13   C     C_R   0.185371 0.499717 0.626831 -0.249875
C14   C     C_R   0.476971 0.062450 0.618979 0.120791
C15   C     C_R   0.507328 0.129714 0.503355 -0.087314
C16   C     C_R   0.548564 0.067242 0.393961 -0.214096
C17   C     C_R   0.549245 0.938170 0.394281 -0.232779
C18   C     C_R   0.507040 0.871225 0.502045 -0.086650
C19   C     C_R   0.476331 0.934965 0.617884 0.120006
C20   C     C_3   0.387987 0.926375 0.688113 -0.471632
C21   C     C_3   0.389010 0.066827 0.690124 -0.476973
C22   C     C_R   0.499755 0.608580 0.071907 0.196092
C23   C     C_R   0.501112 0.737596 0.499852 0.780385
C24   C     C_R   0.492884 0.392718 0.074935 -0.085672
C25   C     C_R   0.492869 0.392711 0.926860 -0.086492
C26   C     C_R   0.499833 0.608570 0.925503 0.188975
C27   C     C_3   0.562774 0.717759 0.916856 -0.091737
C28   C     C_3   0.562757 0.717747 0.076968 -0.099822
C29   C     C_R   0.671308 0.499567 0.500008 0.797681
C30   C     C_R   0.814781 0.497985 0.626768 -0.248257
C31   C     C_R   0.768287 0.498784 0.500023 -0.071972
C32   C     C_R   0.814733 0.498628 0.373276 -0.249876
C33   C     C_R   0.907112 0.499086 0.372336 0.109928
C34   C     C_R   0.953574 0.499174 0.500022 0.061884
Cu1   Cu    Cu3+1 0.500000 0.499980 0.640670 0.934807
Cu2   Cu    Cu3+1 0.500000 0.500020 0.359330 0.934248
H1    H     H_    0.779333 0.496564 0.724893 0.151707
H2    H     H_    0.581213 0.891736 0.309703 0.154501
H3    H     H_    0.335502 0.886290 0.619753 0.198606
H4    H     H_    0.391802 0.884182 0.793883 0.185579
H5    H     H_    0.394397 0.105365 0.796933 0.189689
H6    H     H_    0.488190 0.305080 0.129380 0.144438
H7    H     H_    0.488241 0.305201 0.873687 0.143353
H8    H     H_    0.530253 0.801059 0.873443 0.140848
H9    H     H_    0.779235 0.497797 0.275139 0.152441
H10   H     H_    0.529351 0.800715 0.117693 0.134324
H11   H     H_    0.918750 0.499471 0.147225 0.135724
H12   H     H_    0.081160 0.500200 0.147149 0.136676
H13   H     H_    0.220922 0.500355 0.274927 0.157106
H14   H     H_    0.220986 0.499579 0.725056 0.157021
H15   H     H_    0.081272 0.498830 0.852884 0.136656
H16   H     H_    0.918866 0.498032 0.852843 0.135723
H17   H     H_    0.578204 0.117690 0.307249 0.153858
N1    N     N_R   0.500570 0.500930 0.147930 -0.174088
N2    N     N_R   0.500570 0.500890 0.852020 -0.174806
O1    O     O_R   0.500000 0.319640 0.618810 -0.586146
O2    O     O_R   0.500010 0.319680 0.381230 -0.592641
O3    O     O_R   0.370250 0.499950 0.618800 -0.582938
O4    O     O_R   0.370260 0.499990 0.381220 -0.580820
O5    O     O_R   0.499990 0.680320 0.618770 -0.583862
O6    O     O_R   0.500000 0.680360 0.381190 -0.584888
O7    O     O_R   0.629740 0.500010 0.618780 -0.585725
O8    O     O_R   0.629750 0.500050 0.381200 -0.586930
H18   H     H_    0.336796 0.108602 0.623626 0.197432
C35   C     C_3   0.652169 0.693611 0.845906 -0.717456
H19   H     H_    0.645901 0.703655 0.731657 0.245255
H20   H     H_    0.702023 0.764410 0.877927 0.206628
H21   H     H_    0.676831 0.600080 0.872179 0.229812
C36   C     C_3   0.652299 0.693238 0.147953 -0.743760
H22   H     H_    0.701398 0.766133 0.117745 0.207511
H23   H     H_    0.645797 0.698790 0.262255 0.245966
H24   H     H_    0.678030 0.601075 0.119889 0.233717

loop_
_geom_bond_atom_site_label_1
_geom_bond_atom_site_label_2
_ccdc_geom_bond_type
C29   O8    A    
C24   H6    S    
C32   H9    S    
C28   C36   S    
Cu2   O4    S    
C26   N2    A    
C25   H7    S    
C7    C8    A    
C22   N1    A    
C28   H10   S    
C26   C27   S    
Cu1   O3    S    
C14   C21   S    
C1    O1    A    
C5    C6    A    
C20   H4    S    
C3    C33   A    
C24   N1    A    
C15   C16   A    
C11   C13   A    
C18   C19   A    
C36   H23   S    
C16   H17   S    
C21   H18   S    
C12   O4    A    
C27   H8    S    
C19   C20   S    
C8    C9    A    
C35   H20   S    
C1    C15   S    
Cu2   O8    S    
C12   O3    A    
C2    C34   A    
C22   C28   S    
C9    H16   S    
C17   C18   A    
C23   O5    A    
Cu1   N2    S    
C18   C23   S    
C24   C25   A    
Cu2   O2    S    
C20   H3    S    
C16   C17   A    
C6    C34   A    
C30   H1    S    
Cu1   O5    S    
Cu1   Cu2   S    
C36   H24   S    
C27   C35   S    
C1    O2    A    
C31   C32   A    
C23   O6    A    
C35   H21   S    
C33   C34   A    
C8    H15   S    
C21   H5    S    
Cu2   O6    S    
C4    H12   S    
C29   O7    A    
Cu1   O1    S    
C14   C19   A    
C25   N2    A    
C4    C5    A    
C11   C12   S    
C6    C7    A    
C2    C30   A    
C32   C33   A    
C5    C10   A    
C29   C31   S    
C10   H13   S    
C30   C31   A    
C3    H11   S    
Cu1   O7    S    
C17   H2    S    
C36   H22   S    
Cu2   N1    S    
C10   C11   A    
C13   H14   S    
C7    C13   A    
C20   C21   S    
C35   H19   S    
C22   C26   A    
C27   C28   S    
C14   C15   A    
C2    C9    A    
C3    C4    A    
