data_mof_unit_58458.cif
_audit_creation_date              2012-12-11T14:00:00-0500
_audit_creation_method            fapswitch 2.2
_symmetry_space_group_name_H-M    P1
_symmetry_Int_Tables_number       1
_space_group_crystal_system       triclinic
_cell_length_a                    11.306524
_cell_length_b                    11.306525
_cell_length_c                    18.974056
_cell_angle_alpha                 90.000014
_cell_angle_beta                  89.999971
_cell_angle_gamma                 120.000159
_cell_volume                      2100.62422785

loop_
_atom_site_label
_atom_site_type_symbol
_atom_type_description
_atom_site_fract_x
_atom_site_fract_y
_atom_site_fract_z
_atom_type_partial_charge
C1    C     C_R   0.541775 0.479222 0.852051 0.559572
C2    C     C_R   0.481043 0.544676 0.351639 0.564434
C3    C     C_R   0.063633 0.518957 0.351639 0.564433
C4    C     C_R   0.455324 0.936366 0.351639 0.564433
C5    C     C_2   0.997951 0.488424 0.578481 -0.114428
C6    C     C_2   0.511576 0.509526 0.578481 -0.114428
C7    C     C_2   0.490473 0.002050 0.578481 -0.114427
C8    C     C_2   0.488414 0.997936 0.421523 -0.114878
C9    C     C_2   0.509522 0.511586 0.421523 -0.114878
C10   C     C_2   0.002064 0.490478 0.421523 -0.114878
C11   C     C_2   0.016032 0.400640 0.462811 0.238509
C12   C     C_R   0.520778 0.062553 0.852051 0.559572
C13   C     C_2   0.599360 0.615392 0.462811 0.238509
C14   C     C_2   0.384608 0.983969 0.462811 0.238509
C15   C     C_2   0.400627 0.016005 0.537195 0.239362
C16   C     C_2   0.615378 0.599373 0.537195 0.239361
C17   C     C_2   0.983995 0.384622 0.537195 0.239362
C18   C     C_2   0.023713 0.514764 0.914455 -0.117943
C19   C     C_2   0.485235 0.508948 0.914455 -0.117944
C20   C     C_2   0.491051 0.976287 0.914455 -0.117945
C21   C     C_2   0.468585 0.941804 0.068220 -0.052516
C22   C     C_2   0.473218 0.531416 0.068220 -0.052518
C23   C     C_R   0.937447 0.458224 0.852050 0.559571
C24   C     C_2   0.058196 0.526781 0.068221 -0.052518
C25   C     C_2   0.077899 0.633560 0.028226 0.231319
C26   C     C_2   0.366439 0.444339 0.028226 0.231318
C27   C     C_2   0.555662 0.922102 0.028226 0.231319
C28   C     C_2   0.591315 0.988763 0.957802 0.224104
C29   C     C_2   0.397448 0.408685 0.957802 0.224105
C30   C     C_2   0.011237 0.602552 0.957802 0.224108
C31   C     C_3   0.174777 0.333480 0.456573 -0.057007
C32   C     C_3   0.666519 0.841297 0.456573 -0.057006
C33   C     C_3   0.158703 0.825222 0.456573 -0.057006
C34   C     C_R   0.456015 0.573510 0.138259 0.603497
C35   C     C_3   0.333474 0.174755 0.543439 -0.056033
C36   C     C_3   0.841282 0.666526 0.543439 -0.056033
C37   C     C_3   0.825245 0.158718 0.543440 -0.056033
C38   C     C_3   0.128900 0.861628 0.026136 -0.082412
C39   C     C_3   0.138370 0.267273 0.026133 -0.082412
C40   C     C_3   0.732727 0.871098 0.026132 -0.082412
C41   C     C_3   0.781879 0.192196 0.979032 -0.117146
C42   C     C_3   0.410315 0.218120 0.979032 -0.117147
C43   C     C_3   0.807804 0.589682 0.979032 -0.117147
C44   C     C_R   0.117494 0.543984 0.138259 0.603497
C45   C     C_R   0.426490 0.882506 0.138259 0.603498
C46   C     C_R   0.544674 0.481044 0.648361 0.554614
C47   C     C_R   0.518956 0.063630 0.648361 0.554614
C48   C     C_R   0.936370 0.455326 0.648361 0.554614
Cr1   Cr    Cr6+3 0.464030 0.233680 0.750360 1.075060
Cr2   Cr    Cr6+3 0.766320 0.230350 0.750360 1.075060
Cr3   Cr    Cr6+3 0.769650 0.535970 0.750360 1.075060
Cr4   Cr    Cr6+3 0.233680 0.464030 0.249640 1.058926
Cr5   Cr    Cr6+3 0.230350 0.766320 0.249640 1.058924
Cr6   Cr    Cr6+3 0.535970 0.769650 0.249640 1.058926
H1    H     H_    0.963261 0.553511 0.442394 -0.007039
H2    H     H_    0.384726 0.912168 0.929527 0.060812
H3    H     H_    0.527441 0.615273 0.929526 0.060807
H4    H     H_    0.087832 0.472559 0.929526 0.060808
H5    H     H_    0.169893 0.294925 0.510695 0.140867
H6    H     H_    0.250578 0.444739 0.454483 0.091832
H7    H     H_    0.209501 0.279629 0.420727 0.152432
H8    H     H_    0.705073 0.874968 0.510696 0.140865
H9    H     H_    0.555260 0.805839 0.454482 0.091832
H10   H     H_    0.720371 0.929872 0.420728 0.152432
H11   H     H_    0.125032 0.830105 0.510695 0.140865
H12   H     H_    0.446489 0.409750 0.442394 -0.007039
H13   H     H_    0.194161 0.749422 0.454481 0.091833
H14   H     H_    0.070128 0.790499 0.420727 0.152432
H15   H     H_    0.294931 0.169884 0.489316 0.140527
H16   H     H_    0.444732 0.250555 0.545538 0.092142
H17   H     H_    0.279617 0.209474 0.579285 0.153003
H18   H     H_    0.874953 0.705068 0.489315 0.140527
H19   H     H_    0.805823 0.555268 0.545538 0.092142
H20   H     H_    0.929857 0.720383 0.579285 0.153003
H21   H     H_    0.830116 0.125047 0.489316 0.140527
H22   H     H_    0.749446 0.194177 0.545538 0.092143
H23   H     H_    0.590250 0.036739 0.442394 -0.007039
H24   H     H_    0.790526 0.070143 0.579286 0.153003
H25   H     H_    0.021498 0.832322 0.037948 0.141171
H26   H     H_    0.151750 0.878112 0.968854 0.157012
H27   H     H_    0.193129 0.960611 0.053033 0.116000
H28   H     H_    0.167671 0.189172 0.037942 0.141174
H29   H     H_    0.121889 0.273645 0.968852 0.157009
H30   H     H_    0.039386 0.232517 0.053029 0.115999
H31   H     H_    0.810828 0.978500 0.037941 0.141175
H32   H     H_    0.726353 0.848243 0.968851 0.157009
H33   H     H_    0.767482 0.806870 0.053029 0.115998
H34   H     H_    0.553515 0.963257 0.557611 -0.006719
H35   H     H_    0.775177 0.172822 0.036785 0.099107
H36   H     H_    0.732020 0.252454 0.965185 0.100566
H37   H     H_    0.891092 0.253764 0.965553 0.136866
H38   H     H_    0.397644 0.224823 0.036785 0.099107
H39   H     H_    0.520432 0.267979 0.965185 0.100566
H40   H     H_    0.362669 0.108907 0.965554 0.136866
H41   H     H_    0.827176 0.602350 0.036784 0.099104
H42   H     H_    0.747546 0.479566 0.965183 0.100568
H43   H     H_    0.746237 0.637328 0.965554 0.136866
H44   H     H_    0.409741 0.446485 0.557611 -0.006718
H45   H     H_    0.036743 0.590258 0.557611 -0.006718
H46   H     H_    0.994878 0.423419 0.049249 0.031288
H47   H     H_    0.576580 0.571461 0.049248 0.031289
H48   H     H_    0.428540 0.005120 0.049248 0.031290
O1    O     O_R   0.434100 0.092480 0.829780 -0.510294
O2    O     O_R   0.362730 0.477510 0.175360 -0.475091
O3    O     O_R   0.114780 0.637270 0.175360 -0.475093
O4    O     O_R   0.522490 0.885220 0.175360 -0.475091
O5    O     O_R   0.432250 0.092620 0.670380 -0.449844
O6    O     O_R   0.907380 0.339630 0.670380 -0.449844
O7    O     O_R   0.660370 0.567750 0.670380 -0.449844
O8    O     O_R   0.092620 0.432250 0.329620 -0.447567
O9    O     O_R   0.339630 0.907380 0.329620 -0.447567
O10   O     O_R   0.567750 0.660370 0.329620 -0.447567
O11   O     O_R   0.475790 0.362860 0.676880 -0.523328
O12   O     O_R   0.907520 0.341620 0.829780 -0.510294
O13   O     O_R   0.637140 0.112930 0.676880 -0.523328
O14   O     O_R   0.887070 0.524210 0.676880 -0.523328
O15   O     O_R   0.362860 0.475790 0.323120 -0.518786
O16   O     O_R   0.112930 0.637140 0.323120 -0.518786
O17   O     O_R   0.524210 0.887070 0.323120 -0.518786
O18   O     O_3   0.666667 0.333333 0.749450 -0.294619
O19   O     O_3   0.333333 0.666667 0.250550 -0.329033
O20   O     O_3   0.044698 0.304736 0.434081 -0.520652
O21   O     O_3   0.695264 0.739962 0.434081 -0.520652
O22   O     O_3   0.260038 0.955303 0.434081 -0.520652
O23   O     O_R   0.658380 0.565900 0.829780 -0.510294
O24   O     O_3   0.304721 0.044669 0.565925 -0.519922
O25   O     O_3   0.739948 0.695279 0.565925 -0.519921
O26   O     O_3   0.955332 0.260052 0.565925 -0.519922
O27   O     O_3   0.161677 0.765847 0.053652 -0.573037
O28   O     O_3   0.234153 0.395826 0.053653 -0.573034
O29   O     O_3   0.604174 0.838328 0.053653 -0.573034
O30   O     O_3   0.727064 0.071007 0.939314 -0.548241
O31   O     O_3   0.343942 0.272936 0.939314 -0.548241
O32   O     O_3   0.928994 0.656057 0.939315 -0.548241
O33   O     O_R   0.092480 0.434100 0.170220 -0.499762
O34   O     O_R   0.341620 0.907520 0.170220 -0.499764
O35   O     O_R   0.565900 0.658380 0.170220 -0.499762
O36   O     O_R   0.477510 0.362730 0.824640 -0.442487
O37   O     O_R   0.637270 0.114780 0.824640 -0.442487
O38   O     O_R   0.885220 0.522490 0.824640 -0.442488

loop_
_geom_bond_atom_site_label_1
_geom_bond_atom_site_label_2
_ccdc_geom_bond_type
C40   H31   S    
C41   H35   S    
Cr6   O19   S    
C35   O24   S    
C42   H39   S    
C27   O29   S    
C31   H7    S    
Cr1   O11   S    
C29   O31   S    
C20   H2    S    
C25   O27   S    
C33   H11   S    
Cr1   O5    S    
C44   O3    A    
C19   H3    S    
C47   O13   A    
C2    O10   A    
C22   H47   S    
C42   O31   S    
Cr2   O18   S    
C6    H44   S    
C40   H33   S    
C1    O23   A    
C39   H30   S    
C13   O21   S    
Cr6   O35   S    
C5    C17   D    
C38   H25   S    
C3    O8    A    
C31   H5    S    
Cr2   O13   S    
C40   H32   S    
C9    C13   D    
C9    H12   S    
C18   H4    S    
C11   C17   S    
C5    H45   S    
C35   H16   S    
C30   O32   S    
C15   O24   S    
C33   O22   S    
C43   H41   S    
C4    O17   A    
C18   C30   D    
C26   O28   S    
C4    C8    S    
C48   O14   A    
C37   O26   S    
Cr3   O38   S    
Cr5   O9    S    
C44   O33   A    
C7    C15   D    
C41   H36   S    
C37   H21   S    
C35   H17   S    
Cr3   O7    S    
C42   H40   S    
Cr1   O36   S    
Cr2   O6    S    
C32   O21   S    
Cr5   O34   S    
C2    O15   A    
C43   H42   S    
C21   C45   S    
C22   C34   S    
C5    C48   S    
C1    C19   S    
C14   O22   S    
Cr6   O4    S    
C18   C23   S    
Cr3   O23   S    
C38   O27   S    
C23   O38   A    
C24   C25   D    
C32   H10   S    
C12   O1    A    
C36   H19   S    
Cr5   O16   S    
C20   C28   D    
C34   O2    A    
C28   O30   S    
C7    C47   S    
C31   H6    S    
C43   O32   S    
C11   O20   S    
C3    O16   A    
Cr4   O19   S    
C7    H34   S    
Cr4   O8    S    
C12   C20   S    
Cr3   O18   S    
C12   O37   A    
Cr6   O10   S    
C10   H1    S    
C36   H20   S    
C21   H48   S    
C41   H37   S    
C4    O9    A    
C47   O5    A    
C38   H27   S    
C8    H23   S    
C24   C44   S    
C46   O7    A    
C36   O25   S    
C19   C29   D    
C45   O4    A    
C33   H13   S    
C25   C30   S    
Cr4   O2    S    
C45   O34   A    
C8    C14   D    
C6    C46   S    
C46   O11   A    
Cr2   O37   S    
C37   H22   S    
C43   H43   S    
C39   H28   S    
Cr1   O1    S    
C41   O30   S    
C24   H46   S    
C17   O26   S    
C40   O29   S    
C32   H9    S    
C37   H24   S    
C34   O35   A    
Cr3   O14   S    
C39   H29   S    
C3    C10   S    
Cr5   O19   S    
Cr4   O15   S    
C23   O12   A    
C48   O6    A    
C38   H26   S    
C31   O20   S    
C42   H38   S    
C21   C27   D    
C16   O25   S    
C10   C11   D    
C6    C16   D    
Cr1   O18   S    
Cr5   O3    S    
C35   H15   S    
C26   C29   S    
C22   C26   D    
C13   C16   S    
C27   C28   S    
Cr4   O33   S    
C14   C15   S    
C32   H8    S    
C39   O28   S    
Cr2   O12   S    
Cr6   O17   S    
C2    C9    S    
C1    O36   A    
C36   H18   S    
C33   H14   S    
