data_mof_unit_46091.cif
_audit_creation_date              2012-12-11T17:39:36-0500
_audit_creation_method            fapswitch 2.2
_symmetry_space_group_name_H-M    P1
_symmetry_Int_Tables_number       1
_space_group_crystal_system       triclinic
_cell_length_a                    15.071509
_cell_length_b                    15.065394
_cell_length_c                    14.892561
_cell_angle_alpha                 108.640169
_cell_angle_beta                  109.879733
_cell_angle_gamma                 110.292402
_cell_volume                      2589.7421284

loop_
_atom_site_label
_atom_site_type_symbol
_atom_type_description
_atom_site_fract_x
_atom_site_fract_y
_atom_site_fract_z
_atom_type_partial_charge
C1    C     C_R   0.910307 0.911216 0.713900 -0.135275
C2    C     C_R   0.908820 0.685304 0.440966 -0.139064
C3    C     C_R   0.696520 0.794244 0.202250 -0.219033
C4    C     C_R   0.092529 0.298187 0.495644 -0.154729
C5    C     C_R   0.303461 0.008350 0.600844 -0.155121
C6    C     C_R   0.630572 0.703293 0.201820 -0.018251
C7    C     C_R   0.367090 0.067849 0.570925 0.058977
C8    C     C_R   0.001877 0.677717 0.459013 0.031637
C9    C     C_R   0.001160 0.944522 0.177883 0.077925
C10   C     C_R   0.477151 0.682113 0.398617 -0.025572
C11   C     C_R   0.500039 0.788958 0.430113 -0.140022
C12   C     C_R   0.002597 0.301497 0.436962 0.055134
C13   C     C_R   0.538510 0.861636 0.539742 0.109245
C14   C     C_R   0.551901 0.825382 0.616819 -0.192934
C15   C     C_R   0.530050 0.718758 0.585141 -0.148578
C16   C     C_R   0.258337 0.221506 0.814588 -0.159614
C17   C     C_R   0.492847 0.647211 0.476112 -0.059638
C18   C     C_R   0.483498 0.992960 0.593482 -0.233899
C19   C     C_R   0.473491 0.081622 0.593174 0.060306
C20   C     C_R   0.552974 0.164811 0.591801 0.028677
C21   C     C_R   0.635746 0.150078 0.580309 -0.247142
C22   C     C_R   0.635477 0.053378 0.565624 0.073160
C23   C     C_R   0.289473 0.324462 0.826256 0.138407
C24   C     C_R   0.558225 0.973720 0.572343 0.018460
C25   C     C_R   0.564755 0.299427 0.524381 -0.165499
C26   C     C_R   0.551300 0.386283 0.522711 -0.108502
C27   C     C_R   0.519549 0.436598 0.591745 -0.094800
C28   C     C_R   0.741372 0.055540 0.465481 -0.139415
C29   C     C_R   0.503215 0.401564 0.663892 -0.096547
C30   C     C_R   0.520981 0.317930 0.669299 -0.156236
C31   C     C_R   0.548445 0.263382 0.596925 0.109938
C32   C     C_R   0.816191 0.119458 0.083126 -0.115706
C33   C     C_R   0.889859 0.217198 0.182921 -0.136692
C34   C     C_R   0.712035 0.033563 0.538209 0.034954
C35   C     C_R   0.853498 0.284613 0.228132 0.122735
C36   C     C_R   0.742235 0.252907 0.170182 -0.174873
C37   C     C_R   0.669048 0.155430 0.069850 -0.115258
C38   C     C_R   0.705906 0.088645 0.026601 -0.091088
C39   C     C_R   0.932297 0.483898 0.346360 -0.243838
C40   C     C_R   0.257002 0.313781 0.722530 -0.131045
C41   C     C_R   0.008883 0.582062 0.445675 0.074761
C42   C     C_R   0.089855 0.587285 0.533935 0.018292
C43   C     C_R   0.090417 0.493907 0.521625 -0.238355
C44   C     C_R   0.009702 0.394651 0.426527 0.060041
C45   C     C_R   0.695640 0.702733 0.293612 0.587616
C46   C     C_R   0.932022 0.388142 0.335010 0.020391
C47   C     C_R   0.281845 0.734279 0.683238 -0.193515
C48   C     C_R   0.356394 0.826237 0.787514 -0.123884
C49   C     C_R   0.318585 0.868067 0.854539 -0.097019
C50   C     C_R   0.206116 0.817663 0.817520 -0.121620
C51   C     C_R   0.131224 0.726014 0.713160 -0.123344
C52   C     C_R   0.750540 0.969478 0.563729 -0.090349
C53   C     C_R   0.168618 0.684554 0.644858 0.114089
C54   C     C_2   0.365002 0.520319 0.937127 -0.134405
C55   C     C_2   0.353713 0.425524 0.930620 -0.218582
C56   C     C_R   0.304460 0.094815 0.505085 -0.130784
C57   C     C_2   0.459086 0.624896 0.032674 -0.129744
C58   C     C_2   0.511393 0.632554 0.130038 -0.158744
C59   C     C_R   0.410071 0.150261 0.104807 -0.111499
C60   C     C_R   0.308981 0.061450 0.066817 -0.185525
C61   C     C_R   0.214146 0.069345 0.035984 0.115026
C62   C     C_R   0.223226 0.169521 0.050197 -0.132473
C63   C     C_R   0.324925 0.258700 0.089548 -0.146165
C64   C     C_R   0.909903 0.210337 0.407375 -0.125516
C65   C     C_R   0.417794 0.248337 0.114878 -0.110309
C66   C     C_R   0.105619 0.954503 0.083806 -0.246016
C67   C     C_R   0.091946 0.780913 0.523902 -0.094605
C68   C     C_R   0.005388 0.900625 0.076733 0.142540
C69   C     C_R   0.910005 0.830809 0.972245 0.057813
C70   C     C_R   0.913072 0.842053 0.883502 -0.269577
C71   C     C_R   0.009388 0.922179 0.899500 0.059320
C72   C     C_R   0.108529 0.976705 0.001539 -0.001664
C73   C     C_R   0.815498 0.674296 0.997413 0.648661
C74   C     C_R   0.720829 0.597992 0.986086 -0.250520
C75   C     C_R   0.620186 0.588874 0.929764 -0.170227
C76   C     C_R   0.092115 0.999716 0.800709 -0.140201
C77   C     C_R   0.613025 0.656392 0.885003 -0.124109
C78   C     C_R   0.909459 0.933460 0.187560 -0.136413
C79   C     C_R   0.706973 0.733675 0.896710 -0.242106
C80   C     C_R   0.809330 0.744648 0.954448 -0.057226
C81   C     C_R   0.003935 0.947365 0.810714 0.050190
C82   C     C_3   0.927481 0.610389 0.979617 -0.257886
C83   C     C_3   0.606223 0.537833 0.282730 -0.381110
C84   C     C_R   0.092595 0.023492 0.280983 -0.124258
H1    H     H_    0.826664 0.853414 0.685507 0.106450
H2    H     H_    0.446835 0.626238 0.313994 0.107185
H3    H     H_    0.487315 0.814985 0.369248 0.115596
H4    H     H_    0.176827 0.350667 0.520614 0.094773
H5    H     H_    0.579887 0.879915 0.701294 0.111640
H6    H     H_    0.541431 0.691584 0.645045 0.106320
H7    H     H_    0.422023 0.927963 0.592816 0.131768
H8    H     H_    0.698091 0.211831 0.578544 0.128280
H9    H     H_    0.584697 0.258478 0.466786 0.109782
H10   H     H_    0.563064 0.412941 0.466106 0.109827
H11   H     H_    0.506410 0.501916 0.588646 0.094756
H12   H     H_    0.331411 0.148596 0.474391 0.112192
H13   H     H_    0.474606 0.437779 0.714120 0.111023
H14   H     H_    0.508446 0.292527 0.726415 0.116821
H15   H     H_    0.649113 0.013177 0.949128 0.089467
H16   H     H_    0.273248 0.200780 0.878933 0.124773
H17   H     H_    0.844754 0.067794 0.049417 0.111887
H18   H     H_    0.975324 0.240321 0.224772 0.113046
H19   H     H_    0.711782 0.302850 0.203049 0.101197
H20   H     H_    0.583627 0.131502 0.025547 0.102261
H21   H     H_    0.873259 0.482503 0.278484 0.130019
H22   H     H_    0.148780 0.497901 0.592360 0.130027
H23   H     H_    0.176844 0.804536 0.552239 0.112818
H24   H     H_    0.311971 0.702656 0.631776 0.123840
H25   H     H_    0.443411 0.865006 0.816308 0.100908
H26   H     H_    0.376674 0.939197 0.935209 0.101216
H27   H     H_    0.176535 0.849188 0.869351 0.116181
H28   H     H_    0.722343 0.101759 0.427448 0.099546
H29   H     H_    0.044313 0.687810 0.685210 0.113934
H30   H     H_    0.318638 0.521997 0.864365 0.127972
H31   H     H_    0.401858 0.422133 0.001171 0.128299
H32   H     H_    0.497005 0.687537 0.014907 0.132338
H33   H     H_    0.468688 0.573358 0.148580 0.137255
H34   H     H_    0.824277 0.882216 0.124060 0.117172
H35   H     H_    0.496007 0.316125 0.142921 0.091770
H36   H     H_    0.482562 0.143286 0.127325 0.101785
H37   H     H_    0.304584 0.986681 0.062019 0.112501
H38   H     H_    0.151756 0.178308 0.030874 0.115462
H39   H     H_    0.331348 0.335365 0.099299 0.102824
H40   H     H_    0.271004 0.377748 0.701595 0.086078
H41   H     H_    0.182014 0.996696 0.160281 0.129460
H42   H     H_    0.839241 0.790592 0.803449 0.135818
H43   H     H_    0.725370 0.545179 0.020378 0.134052
H44   H     H_    0.547414 0.528004 0.919431 0.150257
H45   H     H_    0.177736 0.054750 0.305744 0.096248
H46   H     H_    0.534495 0.648690 0.841082 0.110328
H47   H     H_    0.700369 0.786725 0.863236 0.131805
H48   H     H_    0.744848 0.940274 0.619893 0.111557
H49   H     H_    0.825453 0.183184 0.353049 0.102681
H50   H     H_    0.174833 0.017642 0.845973 0.117713
H51   H     H_    0.928486 0.631172 0.914452 0.140777
H52   H     H_    0.862171 0.524260 0.941948 0.138701
H53   H     H_    0.007589 0.617751 0.024931 0.179715
H54   H     H_    0.619820 0.509461 0.212223 0.120932
H55   H     H_    0.517022 0.499603 0.252417 0.163036
H56   H     H_    0.825236 0.619193 0.395715 0.132772
H57   H     H_    0.638539 0.507212 0.337036 0.175618
H58   H     H_    0.668544 0.828713 0.153075 0.130397
H59   H     H_    0.330316 0.986549 0.663448 0.103008
H60   H     H_    0.475467 0.564524 0.451318 0.093555
N1    N     N_R   0.941940 0.944580 0.650780 -0.040287
N2    N     N_R   0.204460 0.150250 0.707090 -0.042680
N3    N     N_R   0.794270 0.003240 0.446420 -0.044339
N4    N     N_R   0.204920 0.207570 0.650770 -0.042407
N5    N     N_R   0.793810 0.945920 0.502740 -0.040917
N6    N     N_R   0.943620 0.152590 0.446420 -0.039723
N7    N     N_R   0.055110 0.000900 0.707100 -0.042976
N8    N     N_R   0.795080 0.792430 0.349230 -0.092084
N9    N     N_R   0.206190 0.054080 0.497260 -0.038581
N10   N     N_R   0.056380 0.847410 0.553580 -0.046628
N11   N     N_R   0.944890 0.999100 0.292900 -0.039427
N12   N     N_R   0.058060 0.055420 0.349220 -0.043414
N13   N     N_R   0.943200 0.791100 0.497260 -0.036654
N14   N     N_R   0.795540 0.849750 0.292910 -0.071065
N15   N     N_R   0.205730 0.996760 0.553580 -0.037671
N16   N     N_R   0.056800 0.208900 0.502740 -0.037306
Ni1   Ni    Ni4+2 0.869690 0.869690 0.500000 0.264750
Ni2   Ni    Ni4+2 0.130310 0.130310 0.500000 0.212107
Ni3   Ni    Ni4+2 0.129250 0.998840 0.629170 0.215768
Ni4   Ni    Ni4+2 0.870750 0.001160 0.370830 0.210609
O1    O     O_3   0.914675 0.682770 0.054578 -0.627654
O2    O     O_3   0.656937 0.652045 0.345967 -0.621022

loop_
_geom_bond_atom_site_label_1
_geom_bond_atom_site_label_2
_ccdc_geom_bond_type
C25   C31   A    
C66   C68   A    
C63   C65   A    
C25   H9    S    
C59   H36   S    
C6    C45   A    
C27   C29   A    
C11   C13   A    
C41   C42   A    
C6    C58   S    
C1    N1    A    
C35   C36   A    
C3    C6    A    
C54   C57   S    
C83   H55   S    
C39   C41   A    
C28   H28   S    
C9    C78   A    
C26   C27   A    
C37   C38   A    
N6    N16   A    
C67   N10   A    
C18   C24   A    
C18   H7    S    
C21   C22   A    
C36   C37   A    
C78   H34   S    
C18   C19   A    
C82   H53   S    
N3    Ni4   S    
C42   C53   S    
C30   C31   A    
C12   C64   A    
C78   N11   A    
C5    H59   S    
C10   C17   A    
C1    C81   A    
C23   C40   A    
C84   H45   S    
C16   N2    A    
C75   H44   S    
C73   C74   A    
C82   H51   S    
C54   C55   D    
C27   H11   S    
C66   C72   A    
C47   C48   A    
C11   H3    S    
C68   C69   A    
C5    N15   A    
C3    N14   A    
C70   C71   A    
C32   C38   A    
C4    C12   A    
C29   C30   A    
C45   O2    S    
N8    Ni1   S    
N14   Ni4   S    
C47   C53   A    
C70   H42   S    
C48   H25   S    
N12   Ni2   S    
C59   C60   A    
C13   C14   A    
C61   C62   A    
C3    H58   S    
C7    C56   A    
C22   C34   S    
C44   C46   A    
C57   H32   S    
N2    N4    A    
C77   C79   A    
C1    H1    S    
C40   H40   S    
C83   O2    S    
N8    N14   A    
C74   C75   A    
C40   N4    A    
C33   H18   S    
C52   H48   S    
N10   Ni3   S    
C8    C41   S    
N10   N13   A    
C73   O1    S    
C83   H57   S    
C76   H50   S    
C16   H16   S    
C76   N7    A    
C25   C26   A    
C58   H33   S    
C13   C24   S    
C64   N6    A    
C60   C61   A    
C51   C53   A    
C43   H22   S    
N16   Ni2   S    
N9    N15   A    
C43   C44   A    
C14   H5    S    
C62   C63   A    
N1    Ni1   S    
C52   N5    A    
C74   H43   S    
C21   H8    S    
C79   H47   S    
C50   C51   A    
C65   H35   S    
C56   H12   S    
C51   H29   S    
C75   C77   A    
N1    N7    A    
C39   C46   A    
C56   N9    A    
C61   C72   S    
C48   C49   A    
C47   H24   S    
C16   C23   A    
N7    Ni3   S    
C26   H10   S    
C36   H19   S    
N15   Ni3   S    
N5    Ni1   S    
C42   C43   A    
N13   Ni1   S    
C62   H38   S    
C5    C7    A    
C39   H21   S    
C64   H49   S    
C10   H2    S    
C28   N3    A    
C17   H60   S    
N3    N5    A    
C14   C15   A    
C34   C52   A    
C2    C8    A    
C38   H15   S    
C76   C81   A    
C37   H20   S    
C63   H39   S    
C23   C55   S    
C4    H4    S    
N11   Ni4   S    
N6    Ni4   S    
N2    Ni3   S    
C30   H14   S    
C7    C19   S    
C66   H41   S    
C29   H13   S    
N9    Ni2   S    
C45   N8    A    
N4    Ni2   S    
C32   C33   A    
C19   C20   A    
C9    C68   S    
C2    H56   S    
C71   C72   A    
C12   C44   S    
C59   C65   A    
C15   H6    S    
C84   N12   A    
C67   H23   S    
C57   C58   D    
C4    N16   A    
C55   H31   S    
C2    N13   A    
C54   H30   S    
C50   H27   S    
C33   C35   A    
C73   C80   A    
C22   C24   A    
C77   H46   S    
C82   H52   S    
C60   H37   S    
C69   C70   A    
C10   C11   A    
C9    C84   A    
C28   C34   A    
C79   C80   A    
C20   C21   A    
C8    C67   A    
C49   C50   A    
N11   N12   A    
C32   H17   S    
C69   C80   S    
C15   C17   A    
C35   C46   S    
C82   O1    S    
C83   H54   S    
C49   H26   S    
C71   C81   S    
C20   C31   S    
