data_mof_unit_43414.cif
_audit_creation_date              2013-03-05T16:06:00-0500
_audit_creation_method            fapswitch 2.2
_symmetry_space_group_name_H-M    P1
_symmetry_Int_Tables_number       1
_space_group_crystal_system       triclinic
_cell_length_a                    10.859623
_cell_length_b                    9.504891
_cell_length_c                    23.540683
_cell_angle_alpha                 90.098173
_cell_angle_beta                  90.513664
_cell_angle_gamma                 91.186873
_cell_volume                      2429.2349811

loop_
_atom_site_label
_atom_site_type_symbol
_atom_site_description
_atom_site_fract_x
_atom_site_fract_y
_atom_site_fract_z
_atom_type_partial_charge
O1    O     O_R   0.319640 0.618740 0.500000 -0.581421
O2    O     O_R   0.680360 0.381260 0.500000 -0.574671
O3    O     O_R   0.680360 0.618740 0.500000 -0.580318
O4    O     O_R   0.319640 0.381260 0.500000 -0.584983
C1    C     C_R   0.261627 0.498314 0.498789 0.832812
C2    C     C_R   0.737403 0.501713 0.494950 0.813180
O5    O     O_R   0.499960 0.618810 0.417880 -0.590996
O6    O     O_R   0.500040 0.381190 0.582120 -0.576544
O7    O     O_R   0.500040 0.618810 0.582120 -0.582241
O8    O     O_R   0.499960 0.381190 0.417880 -0.576592
C3    C     C_R   0.501379 0.499815 0.390641 0.775480
C4    C     C_R   0.498318 0.500023 0.609117 0.805170
Cu1   Cu    Cu3+1 0.500000 0.640660 0.500000 0.930442
Cu2   Cu    Cu3+1 0.500000 0.359340 0.500000 0.928027
C5    C     C_R   0.607031 0.524573 0.880486 0.537194
C6    C     C_R   0.390592 0.544559 0.119015 0.537252
N1    N     N_R   0.496799 0.529344 0.851845 -0.465104
N2    N     N_R   0.500497 0.534655 0.147536 -0.466719
C7    C     C_R   0.387587 0.539931 0.880084 0.534598
C8    C     C_R   0.610033 0.529245 0.119342 0.535569
C9    C     C_R   0.386221 0.544099 0.939653 -0.015159
C10   C     C_R   0.611823 0.531428 0.059784 -0.016178
C11   C     C_R   0.498675 0.537915 0.969749 -0.017896
C12   C     C_R   0.499441 0.539264 0.029699 -0.017901
C13   C     C_R   0.610281 0.529019 0.940044 -0.015846
C14   C     C_R   0.387734 0.546957 0.059426 -0.016533
C15   C     C_R   0.275462 0.553286 0.969714 -0.161536
C16   C     C_R   0.722712 0.524301 0.029734 -0.161689
C17   C     C_R   0.276211 0.554702 0.028987 -0.161996
C18   C     C_R   0.721949 0.523106 0.970474 -0.161605
O9    O     O_2   0.712956 0.513644 0.851401 -0.534024
O10   O     O_2   0.284466 0.550019 0.148257 -0.532762
O11   O     O_2   0.280782 0.546761 0.850554 -0.535089
O12   O     O_2   0.716688 0.521318 0.148927 -0.532749
H1    H     H_    0.187802 0.558452 0.947572 0.189165
H2    H     H_    0.810337 0.518626 0.051877 0.189203
H3    H     H_    0.189115 0.560839 0.050836 0.188886
H4    H     H_    0.809030 0.516614 0.948634 0.189097
C19   C     C_R   0.520729 0.394296 0.233987 -0.100491
C20   C     C_R   0.443506 0.402400 0.763824 -0.095408
H5    H     H_    0.535647 0.303517 0.207184 0.137315
H6    H     H_    0.403717 0.318807 0.789465 0.144121
C21   C     C_R   0.520921 0.380747 0.293328 0.137310
C22   C     C_R   0.442684 0.391450 0.704373 0.124535
C23   C     C_R   0.501107 0.502049 0.327513 -0.057978
C24   C     C_R   0.496382 0.502094 0.671810 -0.054485
C25   C     C_R   0.480888 0.631923 0.300422 -0.263591
C26   C     C_R   0.547335 0.620781 0.699822 -0.261337
H7    H     H_    0.464834 0.726416 0.324806 0.165263
H8    H     H_    0.588536 0.706805 0.676001 0.158679
C27   C     C_R   0.480338 0.642635 0.241495 -0.108686
C28   C     C_R   0.547146 0.629832 0.758792 -0.105476
H9    H     H_    0.464557 0.743414 0.221613 0.145434
H10   H     H_    0.587146 0.721899 0.779582 0.151974
C29   C     C_R   0.500624 0.524103 0.208230 0.320357
C30   C     C_R   0.495636 0.520697 0.790984 0.311024
C31   C     C_R   0.062150 0.391395 0.460765 0.111932
C32   C     C_R   0.940098 0.625965 0.501944 0.089372
C33   C     C_R   0.931518 0.393147 0.459036 0.097470
C34   C     C_R   0.061500 0.607637 0.519121 0.083884
C35   C     C_R   0.871021 0.505942 0.485516 -0.143581
C36   C     C_R   0.126658 0.495446 0.494528 -0.130437
C37   C     C_R   0.434085 0.072503 0.460247 -0.038561
C38   C     C_R   0.566593 0.927272 0.539611 -0.029325
C39   C     C_R   0.566248 0.076160 0.539727 -0.033953
C40   C     C_R   0.433648 0.923733 0.460346 -0.027774
H11   H     H_    0.381742 0.126771 0.428267 0.114878
H12   H     H_    0.620210 0.872516 0.571227 0.111933
H13   H     H_    0.619616 0.133668 0.571441 0.120972
H14   H     H_    0.380240 0.866229 0.428635 0.119246
N3    N     N_R   0.500000 0.852070 0.500000 -0.154064
N4    N     N_R   0.500000 0.147930 0.500000 -0.149654
C41   C     C_3   0.542336 0.236717 0.317752 -0.838061
H15   H     H_    0.623101 0.239457 0.346779 0.238356
H16   H     H_    0.459140 0.199484 0.340511 0.231355
H17   H     H_    0.561055 0.157917 0.284174 0.220297
C42   C     C_3   0.381193 0.263974 0.677351 -0.822445
H18   H     H_    0.310270 0.297289 0.646151 0.233480
H19   H     H_    0.450855 0.199124 0.655924 0.241584
H20   H     H_    0.334500 0.196182 0.709338 0.224372
C43   C     C_3   0.131063 0.284318 0.425026 -0.403750
C44   C     C_3   0.188932 0.353764 0.372979 -0.788334
H21   H     H_    0.115554 0.393586 0.344423 0.253111
H22   H     H_    0.250501 0.443167 0.385278 0.240373
H23   H     H_    0.243077 0.275578 0.349292 0.235131
H24   H     H_    0.198963 0.227507 0.450686 0.214898
H25   H     H_    0.073079 0.195896 0.409356 0.200173
C45   C     C_3   0.900571 0.772806 0.484569 -0.387709
C46   C     C_3   0.872058 0.776838 0.420593 -0.787797
H26   H     H_    0.951145 0.736121 0.396335 0.246803
H27   H     H_    0.788564 0.712621 0.409874 0.258526
H28   H     H_    0.855992 0.885554 0.406295 0.233183
H29   H     H_    0.821616 0.809183 0.509763 0.220296
H30   H     H_    0.976118 0.851308 0.492188 0.182496
C47   C     C_3   0.856774 0.286679 0.423733 -0.362808
C48   C     C_3   0.835952 0.149481 0.456358 -0.798663
H31   H     H_    0.921104 0.087533 0.457521 0.224257
H32   H     H_    0.809446 0.169690 0.500954 0.263128
H33   H     H_    0.760769 0.086958 0.435539 0.243269
H34   H     H_    0.766875 0.329787 0.410887 0.200793
H35   H     H_    0.899131 0.266923 0.381882 0.192374
C49   C     C_3   0.115213 0.706292 0.564761 -0.407574
C50   C     C_3   0.156085 0.626135 0.617739 -0.769403
H36   H     H_    0.077730 0.562758 0.634812 0.248794
H37   H     H_    0.233071 0.555305 0.608457 0.234478
H38   H     H_    0.187919 0.702129 0.650890 0.247306
H39   H     H_    0.191397 0.773378 0.548234 0.229410
H40   H     H_    0.044343 0.780593 0.579388 0.191875

loop_
_geom_bond_atom_site_label_1
_geom_bond_atom_site_label_2
_geom_bond_distance
_ccdc_geom_bond_type
C21   C41   1.507409 S    
C15   C17   1.395332 A    
C41   H15   1.106856 S    
C47   C48   1.528352 S    
O3    C2    1.290179 A    
C43   C44   1.526823 S    
C31   C36   1.434988 A    
C19   H5    1.083798 S    
C42   H18   1.110704 S    
O5    C3    1.299637 A    
O1    C1    1.295222 A    
C38   H12   1.081633 S    
C2    C35   1.469646 S    
C22   C42   1.508272 S    
C7    C9    1.403016 A    
C12   C14   1.409040 A    
C26   C28   1.390741 A    
C31   C33   1.419281 A    
C32   C34   1.390031 A    
C48   H33   1.109814 S    
C18   H4    1.083249 S    
C34   C36   1.417557 A    
C38   N3    1.366608 A    
O7    Cu1   1.944636 S    
C19   C29   1.396041 A    
C22   C24   1.420921 A    
C20   C30   1.399363 A    
C48   H32   1.108549 S    
C11   C12   1.411260 A    
C49   H40   1.111785 S    
C46   H27   1.109405 S    
N2    C8    1.369189 A    
C43   H24   1.099906 S    
O3    Cu1   1.973977 S    
C8    O12   1.349647 S    
C32   C35   1.404115 A    
C26   H8    1.083570 S    
C9    C15   1.405183 A    
C37   C40   1.413959 A    
C10   C16   1.404862 A    
Cu1   Cu2   2.673916 S    
C41   H16   1.106643 S    
O2    C2    1.296551 A    
C33   C47   1.524656 S    
C34   C49   1.528554 S    
O7    C4    1.296461 A    
C28   H10   1.083039 S    
C24   C26   1.406659 A    
C23   C25   1.410741 A    
C6    C14   1.403061 A    
C37   H11   1.077838 S    
C33   C35   1.415564 A    
C25   H7    1.083084 S    
O8    Cu2   1.944636 S    
C47   H34   1.106409 S    
C25   C27   1.391061 A    
Cu1   N3    2.009429 S    
C15   H1    1.083244 S    
C27   H9    1.082999 S    
C40   N3    1.365658 A    
O5    Cu1   1.943926 S    
O6    C4    1.295614 A    
C48   H31   1.106672 S    
C42   H19   1.109848 S    
C49   H39   1.107784 S    
C50   H37   1.107272 S    
C45   C46   1.535536 S    
C46   H28   1.104139 S    
C21   C23   1.425992 A    
N1    C30   1.434840 S    
C43   H25   1.100815 S    
N2    C29   1.432451 S    
C4    C24   1.476287 S    
C8    C10   1.402519 A    
C44   H22   1.106847 S    
C9    C11   1.408653 A    
C7    O11   1.349643 S    
C41   H17   1.110970 S    
C10   C12   1.408903 A    
C3    C23   1.486244 S    
O1    Cu1   1.965396 S    
C44   H23   1.109720 S    
C42   H20   1.110985 S    
C13   C18   1.405092 A    
C5    N1    1.370222 A    
C45   H29   1.107773 S    
O6    Cu2   1.943926 S    
Cu2   N4    2.009430 S    
O4    C1    1.290104 A    
C32   C45   1.524196 S    
C19   C21   1.403058 A    
C5    O9    1.349678 S    
C6    O10   1.349577 S    
C39   N4    1.366737 A    
C38   C39   1.415242 A    
C16   C18   1.394997 A    
C40   H14   1.081706 S    
C39   H13   1.081556 S    
C20   H6    1.083711 S    
N1    C7    1.370225 A    
C1    C36   1.467937 S    
C50   H38   1.110469 S    
C27   C29   1.393344 A    
C11   C13   1.408662 A    
O4    Cu2   1.973978 S    
C49   C50   1.529774 S    
O2    Cu2   1.965395 S    
C31   C43   1.530886 S    
C5    C13   1.402699 A    
O8    C3    1.297929 A    
C47   H35   1.108396 S    
C20   C22   1.403141 A    
C37   N4    1.366214 A    
C16   H2    1.083252 S    
C14   C17   1.404978 A    
C6    N2    1.369177 A    
C44   H21   1.110810 S    
C17   H3    1.083249 S    
C50   H36   1.110929 S    
C45   H30   1.110643 S    
C46   H26   1.111446 S    
C28   C30   1.396227 A    
