data_mof_unit_38223.cif
_audit_creation_date              2012-10-26T20:26:21-0400
_audit_creation_method            fapswitch 2.2
_symmetry_space_group_name_H-M    P1
_symmetry_Int_Tables_number       1
_space_group_crystal_system       triclinic
_cell_length_a                    19.320407
_cell_length_b                    15.827443
_cell_length_c                    14.614212
_cell_angle_alpha                 89.16057
_cell_angle_beta                  89.979417
_cell_angle_gamma                 89.885824
_cell_volume                      4468.42975097

loop_
_atom_site_label
_atom_site_type_symbol
_atom_type_description
_atom_site_fract_x
_atom_site_fract_y
_atom_site_fract_z
_atom_type_partial_charge
C1    C     C_R   0.500741 0.339661 0.500733 0.621774
C2    C     C_3   0.489478 0.979360 0.413380 -0.011729
C3    C     C_R   0.527468 0.059203 0.881656 -0.110049
C4    C     C_R   0.527548 0.128976 0.821994 -0.111911
C5    C     C_R   0.521541 0.117675 0.727615 -0.116444
C6    C     C_R   0.357422 0.498907 0.050804 0.026686
C7    C     C_R   0.309970 0.500172 0.977844 -0.074807
C8    C     C_R   0.238804 0.497880 0.994718 -0.110108
C9    C     C_R   0.214274 0.494417 0.084582 -0.101692
C10   C     C_R   0.260915 0.493175 0.157600 -0.114166
C11   C     C_R   0.332191 0.495356 0.140996 -0.109369
C12   C     C_R   0.642421 0.498347 0.949414 0.026930
C13   C     C_3   0.501424 0.083861 0.508984 -0.011296
C14   C     C_R   0.689772 0.496014 0.022481 -0.074133
C15   C     C_R   0.760963 0.494393 0.005738 -0.109840
C16   C     C_R   0.785624 0.495333 0.915905 -0.101448
C17   C     C_R   0.739089 0.497951 0.842787 -0.113772
C18   C     C_R   0.667784 0.499500 0.859254 -0.109684
C19   C     C_R   0.432942 0.651595 0.941073 0.031202
C20   C     C_R   0.399025 0.698068 0.009086 -0.082382
C21   C     C_R   0.369609 0.776800 0.988324 -0.123949
C22   C     C_R   0.374551 0.810600 0.899807 -0.107672
C23   C     C_R   0.408743 0.765555 0.831886 -0.114031
C24   C     C_3   0.495583 0.916496 0.495101 -0.002521
C25   C     C_R   0.437970 0.686594 0.852258 -0.106587
C26   C     C_R   0.567914 0.347833 0.058616 0.024380
C27   C     C_R   0.598141 0.299552 0.989134 -0.081952
C28   C     C_R   0.629409 0.221879 0.009675 -0.123029
C29   C     C_R   0.630361 0.191135 0.099663 -0.111460
C30   C     C_R   0.600353 0.238248 0.169335 -0.107401
C31   C     C_R   0.569199 0.316158 0.149104 -0.104752
C32   C     C_1   0.502630 0.175229 0.506635 -0.088148
C33   C     C_1   0.496140 0.825027 0.495417 -0.092961
C34   C     C_3   0.467911 0.568876 0.967356 -0.011157
C35   C     C_3   0.531905 0.430019 0.032700 -0.010523
C36   C     C_3   0.434036 0.499951 0.029523 -0.012305
C37   C     C_3   0.565782 0.498959 0.970550 -0.012395
C38   C     C_3   0.532507 0.568222 0.030687 -0.008980
C39   C     C_R   0.499519 0.660398 0.499324 0.542214
C40   C     C_3   0.467317 0.430704 0.969309 -0.008576
C41   C     C_3   0.498653 0.499319 0.092905 -0.039331
C42   C     C_3   0.501190 0.499633 0.907144 -0.039931
C43   C     C_R   0.367350 0.496264 0.500221 0.583289
C44   C     C_R   0.632667 0.496424 0.499825 0.581724
C45   C     C_1   0.499236 0.499708 0.194535 0.068052
C46   C     C_1   0.500695 0.499804 0.805479 0.067770
C47   C     C_R   0.257035 0.437370 0.567887 -0.002297
C48   C     C_R   0.742965 0.438032 0.433013 -0.005810
C49   C     C_R   0.183778 0.437592 0.570137 -0.045144
C50   C     C_3   0.557750 0.966425 0.533304 -0.002035
C51   C     C_R   0.816214 0.438296 0.430281 -0.044150
C52   C     C_R   0.146336 0.484539 0.503178 0.018773
C53   C     C_R   0.853728 0.485233 0.495543 0.019950
C54   C     C_R   0.182007 0.530075 0.435279 -0.147528
C55   C     C_R   0.818111 0.530894 0.562129 -0.148246
C56   C     C_R   0.253741 0.532108 0.434597 -0.175814
C57   C     C_R   0.746368 0.532701 0.563390 -0.175611
C58   C     C_R   0.291729 0.487715 0.501047 0.019212
C59   C     C_R   0.708314 0.488048 0.498801 0.017573
C60   C     C_R   0.929967 0.486607 0.497174 0.339050
C61   C     C_3   0.439271 0.034054 0.471051 -0.002661
C62   C     C_R   0.070109 0.486250 0.501382 0.338837
C63   C     C_2   0.295912 0.380047 0.631478 0.203944
C64   C     C_2   0.704088 0.381204 0.370823 0.211274
C65   C     C_R   0.429512 0.349750 0.946111 0.024205
C66   C     C_R   0.407512 0.296067 0.017942 -0.075428
C67   C     C_R   0.374004 0.220005 0.999520 -0.113931
C68   C     C_R   0.361287 0.197055 0.909210 -0.104916
C69   C     C_R   0.381808 0.250355 0.837294 -0.115146
C70   C     C_R   0.415805 0.326246 0.855410 -0.111382
C71   C     C_R   0.569513 0.649825 0.053264 0.030472
C72   C     C_3   0.551618 0.029559 0.451942 -0.004015
C73   C     C_R   0.595046 0.700601 0.981035 -0.075316
C74   C     C_R   0.626871 0.777914 0.998572 -0.113976
C75   C     C_R   0.634196 0.805135 0.088475 -0.099884
C76   C     C_R   0.609833 0.754934 0.160876 -0.114498
C77   C     C_R   0.577394 0.677870 0.143560 -0.111440
C78   C     C_R   0.146768 0.383258 0.637533 0.033567
C79   C     C_R   0.141338 0.407802 0.729212 -0.088998
C80   C     C_R   0.106732 0.356206 0.792702 -0.103013
C81   C     C_R   0.077255 0.280146 0.764967 -0.096571
C82   C     C_R   0.082387 0.255527 0.673706 -0.104166
C83   C     C_3   0.445486 0.970837 0.552332 -0.002249
C84   C     C_R   0.117065 0.306862 0.610025 -0.078007
C85   C     C_R   0.853077 0.383804 0.364421 0.033844
C86   C     C_R   0.858562 0.408510 0.272029 -0.088608
C87   C     C_R   0.892298 0.356274 0.209812 -0.102509
C88   C     C_R   0.920825 0.279393 0.239523 -0.100225
C89   C     C_R   0.915706 0.254655 0.331511 -0.114043
C90   C     C_R   0.881939 0.306659 0.393928 -0.082793
C91   C     C_R   0.616132 0.060840 0.403078 0.028867
C92   C     C_R   0.641093 0.020135 0.324717 -0.103518
C93   C     C_R   0.702306 0.047119 0.282574 -0.128853
C94   C     C_1   0.502110 0.250516 0.503237 0.000863
C95   C     C_R   0.740047 0.113759 0.319134 -0.109709
C96   C     C_R   0.717338 0.152338 0.399016 -0.083033
C97   C     C_R   0.656101 0.125602 0.441309 -0.062807
C98   C     C_R   0.382242 0.943321 0.606492 0.033889
C99   C     C_R   0.353868 0.997347 0.672368 -0.086292
C100  C     C_R   0.295259 0.973356 0.722286 -0.121336
C101  C     C_R   0.263492 0.895910 0.705869 -0.106084
C102  C     C_R   0.289732 0.842979 0.638533 -0.115501
C103  C     C_R   0.348356 0.866813 0.588400 -0.099836
C104  C     C_R   0.627156 0.927914 0.558852 0.039722
C105  C     C_1   0.497702 0.749657 0.497333 -0.051005
C106  C     C_R   0.665303 0.956758 0.634081 -0.098766
C107  C     C_R   0.729640 0.921023 0.655470 -0.116179
C108  C     C_R   0.757212 0.857436 0.601058 -0.102347
C109  C     C_R   0.720973 0.830407 0.524269 -0.111508
C110  C     C_R   0.656705 0.866064 0.502622 -0.081609
C111  C     C_R   0.369490 0.070953 0.444315 0.031236
C112  C     C_R   0.328989 0.033571 0.376065 -0.090341
C113  C     C_R   0.263812 0.066510 0.353870 -0.113332
C114  C     C_R   0.237642 0.135774 0.400943 -0.108569
C115  C     C_R   0.276205 0.171460 0.471204 -0.097026
C116  C     C_3   0.507689 0.021186 0.590714 -0.016336
C117  C     C_R   0.341406 0.138760 0.493481 -0.076205
C118  C     C_R   0.479776 0.965578 0.312144 0.009240
C119  C     C_R   0.478019 0.036152 0.252515 -0.095625
C120  C     C_R   0.470066 0.025601 0.158328 -0.124585
C121  C     C_R   0.463351 0.944585 0.122823 -0.109247
C122  C     C_R   0.464542 0.874141 0.181536 -0.114514
C123  C     C_R   0.472872 0.884363 0.275783 -0.120771
C124  C     C_R   0.515546 0.036035 0.692075 0.010543
C125  C     C_R   0.515847 0.966154 0.752687 -0.094617
C126  C     C_R   0.521709 0.977763 0.846981 -0.125629
Cu1   Cu    Cu3+1 0.500010 0.500000 0.590220 0.990049
Cu2   Cu    Cu3+1 0.499990 0.500000 0.409780 0.989936
H1    H     H_    0.154132 0.566007 0.383431 0.133097
H2    H     H_    0.371861 0.232493 0.767295 0.138420
H3    H     H_    0.430790 0.365401 0.798056 0.147671
H4    H     H_    0.589632 0.680618 0.910838 0.111201
H5    H     H_    0.645682 0.816820 0.942374 0.104206
H6    H     H_    0.658613 0.865155 0.102070 0.102597
H7    H     H_    0.615316 0.776254 0.230561 0.106912
H8    H     H_    0.558357 0.641804 0.201142 0.128782
H9    H     H_    0.164025 0.466619 0.751286 0.096469
H10   H     H_    0.102778 0.375173 0.863376 0.101269
H11   H     H_    0.050454 0.240282 0.814186 0.101863
H12   H     H_    0.846027 0.566974 0.612563 0.131736
H13   H     H_    0.059551 0.196630 0.652341 0.101953
H14   H     H_    0.120909 0.287205 0.539512 0.101110
H15   H     H_    0.836437 0.467850 0.248381 0.096769
H16   H     H_    0.896237 0.375326 0.138569 0.100756
H17   H     H_    0.946865 0.238978 0.191269 0.101602
H18   H     H_    0.937731 0.195078 0.354388 0.100574
H19   H     H_    0.877940 0.286800 0.464969 0.105500
H20   H     H_    0.614547 0.966308 0.296923 0.118083
H21   H     H_    0.720809 0.015771 0.221923 0.098344
H22   H     H_    0.787466 0.134534 0.286477 0.113915
H23   H     H_    0.279762 0.570015 0.382738 0.119643
H24   H     H_    0.747553 0.202480 0.428721 0.127831
H25   H     H_    0.640729 0.154712 0.504668 0.121446
H26   H     H_    0.376744 0.058375 0.685068 0.112387
H27   H     H_    0.274335 0.015015 0.773500 0.098665
H28   H     H_    0.218115 0.877339 0.744601 0.109048
H29   H     H_    0.264328 0.783638 0.624664 0.112587
H30   H     H_    0.365831 0.825914 0.534694 0.112970
H31   H     H_    0.646713 0.007905 0.675443 0.120902
H32   H     H_    0.758441 0.943230 0.713871 0.103661
H33   H     H_    0.807065 0.829943 0.617675 0.107994
H34   H     H_    0.720381 0.570662 0.614140 0.122116
H35   H     H_    0.742861 0.782162 0.481145 0.108219
H36   H     H_    0.630287 0.845634 0.441536 0.104445
H37   H     H_    0.346687 0.978034 0.340913 0.121569
H38   H     H_    0.233243 0.037690 0.300744 0.104602
H39   H     H_    0.187060 0.160966 0.383931 0.105589
H40   H     H_    0.255287 0.223986 0.509014 0.135395
H41   H     H_    0.369207 0.165751 0.550155 0.136394
H42   H     H_    0.483241 0.099359 0.279095 0.121723
H43   H     H_    0.469124 0.080263 0.112949 0.110581
H44   H     H_    0.457117 0.936374 0.049911 0.111488
H45   H     H_    0.277571 0.368650 0.700659 0.104104
H46   H     H_    0.459319 0.811411 0.154002 0.123105
H47   H     H_    0.473785 0.828774 0.319286 0.118896
H48   H     H_    0.511435 0.902652 0.726710 0.116860
H49   H     H_    0.521799 0.923595 0.893079 0.113630
H50   H     H_    0.531982 0.068276 0.954658 0.112655
H51   H     H_    0.531924 0.192027 0.848882 0.124963
H52   H     H_    0.521526 0.172791 0.683388 0.122215
H53   H     H_    0.328201 0.502603 0.907743 0.113065
H54   H     H_    0.202695 0.498644 0.938091 0.097934
H55   H     H_    0.159149 0.492570 0.097651 0.111421
H56   H     H_    0.722535 0.369896 0.302015 0.107512
H57   H     H_    0.241806 0.490258 0.227196 0.117675
H58   H     H_    0.366687 0.493864 0.198862 0.128145
H59   H     H_    0.671443 0.495130 0.092559 0.113642
H60   H     H_    0.796991 0.492326 0.062437 0.097569
H61   H     H_    0.840771 0.494034 0.902934 0.111132
H62   H     H_    0.758314 0.498653 0.773219 0.116135
H63   H     H_    0.633373 0.501519 0.801307 0.127557
H64   H     H_    0.396077 0.673777 0.078632 0.109164
H65   H     H_    0.343652 0.812057 0.041205 0.104969
H66   H     H_    0.352465 0.871993 0.884095 0.118055
H67   H     H_    0.416759 0.312939 0.088439 0.114472
H68   H     H_    0.413336 0.792257 0.763566 0.126209
H69   H     H_    0.465896 0.655046 0.798884 0.127607
H70   H     H_    0.596962 0.321829 0.918722 0.111156
H71   H     H_    0.652411 0.185171 0.955614 0.107024
H72   H     H_    0.654019 0.130627 0.115211 0.112541
H73   H     H_    0.600717 0.214077 0.239036 0.150906
H74   H     H_    0.545291 0.349690 0.204312 0.144317
H75   H     H_    0.357917 0.178842 0.055339 0.105227
H76   H     H_    0.335519 0.138035 0.894921 0.103905
N1    N     N_R   0.035863 0.487001 0.420359 -0.239191
N2    N     N_R   0.964224 0.487894 0.578146 -0.239392
N3    N     N_R   0.967059 0.487193 0.418325 -0.215820
N4    N     N_R   0.033022 0.487746 0.580182 -0.216369
N5    N     N_1   0.499980 0.500000 0.274190 -0.216183
N6    N     N_1   0.500020 0.500000 0.725810 -0.215689
O1    O     O_R   0.500010 0.379080 0.576170 -0.473984
O2    O     O_2   0.652705 0.343325 0.397258 -0.521931
O3    O     O_R   0.499990 0.620920 0.423830 -0.506972
O4    O     O_R   0.500000 0.379080 0.423800 -0.465737
O5    O     O_R   0.500000 0.620920 0.576200 -0.498389
O6    O     O_R   0.400150 0.499990 0.576210 -0.465212
O7    O     O_R   0.599850 0.500010 0.423790 -0.465222
O8    O     O_R   0.400140 0.499990 0.423840 -0.510543
O9    O     O_R   0.599860 0.500010 0.576160 -0.510213
O10   O     O_2   0.347177 0.341909 0.605843 -0.537984

loop_
_geom_bond_atom_site_label_1
_geom_bond_atom_site_label_2
_ccdc_geom_bond_type
C8    C9    A    
C32   C94   T    
C87   C88   A    
C74   H5    S    
C50   C104  S    
C101  C102  A    
C68   H76   S    
C11   H58   S    
C73   C74   A    
C13   C32   S    
C93   H21   S    
C95   C96   A    
C34   C42   S    
C60   N2    A    
C51   C85   S    
C104  C106  A    
C107  H32   S    
C2    C118  S    
C75   H6    S    
Cu1   O9    S    
C114  H39   S    
C47   C49   A    
C85   C86   A    
C49   C78   S    
C44   O9    A    
C5    C124  A    
C26   C27   A    
C37   C38   S    
C27   C28   A    
C28   C29   A    
C35   C37   S    
C3    H50   S    
C47   C63   S    
C30   C31   A    
N2    N4    A    
Cu1   O6    S    
C48   C64   S    
C1    O1    A    
C92   H20   S    
C106  C107  A    
C44   C59   S    
C98   C103  A    
C96   H24   S    
C99   H26   S    
C37   C42   S    
C10   H57   S    
C108  C109  A    
C126  H49   S    
C39   C105  S    
C42   C46   S    
C12   C37   S    
C30   H73   S    
C50   C72   S    
C118  C119  A    
C100  C101  A    
C31   H74   S    
C43   C58   S    
C53   C60   S    
C48   C51   A    
C57   H34   S    
C19   C20   A    
C6    C36   S    
C69   H2    S    
C115  C117  A    
C83   C98   S    
C23   H68   S    
C88   H17   S    
C77   H8    S    
C97   H25   S    
C87   H16   S    
C9    C10   A    
C62   N1    A    
C50   C116  S    
C91   C92   A    
C2    C61   S    
Cu2   O3    S    
C49   C52   A    
C40   C42   S    
C66   C67   A    
C73   H4    S    
C26   C31   A    
C93   C95   A    
C21   C22   A    
C36   C41   S    
C69   C70   A    
C27   H70   S    
C82   H13   S    
C2    C72   S    
C43   O6    A    
C102  H29   S    
C62   N4    A    
C112  C113  A    
C76   H7    S    
C52   C54   A    
C86   H15   S    
C63   H45   S    
N1    N3    A    
C24   C50   S    
C89   H18   S    
C85   C90   A    
C54   C56   A    
C18   H63   S    
C3    C126  A    
C28   H71   S    
C15   C16   A    
C39   O3    A    
C67   C68   A    
C7    C8    A    
C67   H75   S    
C76   C77   A    
C38   C41   S    
C61   C83   S    
C89   C90   A    
C113  H38   S    
C71   C73   A    
C72   C91   S    
C7    H53   S    
C78   C79   A    
C68   C69   A    
C101  H28   S    
C122  H46   S    
C81   C82   A    
C55   H12   S    
C51   C53   A    
C63   O10   D    
C65   C70   A    
C75   C76   A    
C5    H52   S    
C20   H64   S    
C29   C30   A    
C9    H55   S    
C117  H41   S    
Cu2   N5    S    
Cu1   N6    S    
C99   C100  A    
C36   C40   S    
C107  C108  A    
C29   H72   S    
C96   C97   A    
C20   C21   A    
C17   C18   A    
C3    C4    A    
C33   C105  T    
C60   N3    A    
C95   H22   S    
C91   C97   A    
C56   H23   S    
C121  C122  A    
C35   C41   S    
C25   H69   S    
C100  H27   S    
Cu1   O1    S    
C70   H3    S    
C79   H9    S    
C12   C14   A    
C65   C66   A    
C82   C84   A    
C40   C65   S    
C6    C11   A    
C2    C24   S    
C125  C126  A    
C43   O8    A    
C4    H51   S    
Cu1   Cu2   S    
C61   C111  S    
Cu2   O8    S    
C74   C75   A    
C71   C77   A    
C120  C121  A    
C86   C87   A    
C48   C59   A    
C113  C114  A    
C15   H60   S    
C8    H54   S    
C81   H11   S    
C54   H1    S    
C66   H67   S    
C38   C71   S    
C110  H36   S    
C116  C124  S    
C111  C112  A    
C34   C38   S    
C53   C55   A    
C83   C116  S    
C24   C83   S    
C22   C23   A    
C64   O2    D    
C44   O7    A    
C80   C81   A    
C19   C34   S    
C1    C94   S    
C123  H47   S    
C119  C120  A    
C103  H30   S    
C114  C115  A    
C6    C7    A    
C13   C72   S    
C17   H62   S    
C108  H33   S    
C24   C33   S    
C120  H43   S    
C39   O5    A    
C111  C117  A    
C10   C11   A    
C55   C57   A    
C35   C40   S    
C122  C123  A    
C46   N6    T    
C109  C110  A    
C90   H19   S    
C104  C110  A    
C14   H59   S    
Cu1   O5    S    
C16   C17   A    
C80   H10   S    
C112  H37   S    
C92   C93   A    
C56   C58   A    
C84   H14   S    
C109  H35   S    
C34   C36   S    
C118  C123  A    
C23   C25   A    
C102  C103  A    
C19   C25   A    
C45   N5    T    
C13   C116  S    
C57   C59   A    
C16   H61   S    
C119  H42   S    
C79   C80   A    
C64   H56   S    
C78   C84   A    
C26   C35   S    
C4    C5    A    
C121  H44   S    
C13   C61   S    
C88   C89   A    
C98   C99   A    
C12   C18   A    
C1    O4    A    
C41   C45   S    
C14   C15   A    
C22   H66   S    
C52   C62   S    
C21   H65   S    
C115  H40   S    
C125  H48   S    
Cu2   O7    S    
C106  H31   S    
Cu2   O4    S    
C124  C125  A    
C47   C58   A    
