data_mof_unit_33930.cif
_audit_creation_date              2012-12-11T17:04:56-0500
_audit_creation_method            fapswitch 2.2
_symmetry_space_group_name_H-M    P1
_symmetry_Int_Tables_number       1
_space_group_crystal_system       triclinic
_cell_length_a                    17.830174
_cell_length_b                    24.34528
_cell_length_c                    15.228427
_cell_angle_alpha                 89.844296
_cell_angle_beta                  126.192169
_cell_angle_gamma                 90.172501
_cell_volume                      5334.80747799

loop_
_atom_site_label
_atom_site_type_symbol
_atom_type_description
_atom_site_fract_x
_atom_site_fract_y
_atom_site_fract_z
_atom_type_partial_charge
C1    C     C_R   0.814627 0.629841 0.910007 -0.204369
C2    C     C_R   0.187385 0.627590 0.091482 -0.178915
C3    C     C_R   0.316282 0.131688 0.908135 -0.203447
C4    C     C_R   0.687588 0.127388 0.091396 -0.183585
C5    C     C_R   0.872758 0.320602 0.998469 0.062076
C6    C     C_R   0.130398 0.322804 0.999264 0.053875
C7    C     C_R   0.373782 0.820463 0.000553 0.058095
C8    C     C_R   0.631665 0.822508 0.001750 0.055355
C9    C     C_R   0.020684 0.499761 0.336517 0.049240
C10   C     C_R   0.962972 0.500081 0.652922 0.046002
C11   C     C_R   0.510922 0.000135 0.328194 0.041105
C12   C     C_R   0.490021 0.000943 0.672219 0.051624
C13   C     C_R   0.677088 0.499414 0.690763 0.100223
C14   C     C_R   0.316985 0.499402 0.339903 0.115096
C15   C     C_R   0.176898 0.999288 0.692834 0.096885
C16   C     C_R   0.815545 0.999510 0.342503 0.119230
C17   C     C_3   0.510900 0.453911 0.581451 -0.360033
C18   C     C_3   0.478591 0.451628 0.461956 -0.359794
C19   C     C_3   0.010690 0.952842 0.582151 -0.363229
C20   C     C_3   0.977942 0.952793 0.462514 -0.358285
C21   C     C_3   0.442054 0.500914 0.551868 0.676696
C22   C     C_3   0.549155 0.496298 0.485969 0.676575
C23   C     C_3   0.941099 0.998960 0.555106 0.678315
C24   C     C_3   0.047712 0.998364 0.488613 0.677698
C25   C     C_3   0.410361 0.498627 0.434688 0.021024
C26   C     C_3   0.581192 0.498546 0.603335 0.011259
C27   C     C_3   0.909063 0.998850 0.437780 0.023636
C28   C     C_3   0.080315 0.998433 0.606261 0.012170
C29   C     C_3   0.481002 0.543189 0.457030 -0.345115
C30   C     C_3   0.513160 0.545543 0.576260 -0.341569
C31   C     C_3   0.978947 0.044371 0.462332 -0.351246
C32   C     C_3   0.011581 0.044517 0.581762 -0.341843
C33   C     C_R   0.880839 0.235694 0.093151 0.052263
C34   C     C_R   0.121301 0.238977 0.901081 0.007969
C35   C     C_R   0.383520 0.735344 0.097817 0.010569
C36   C     C_R   0.618256 0.734445 0.910295 -0.007066
C37   C     C_R   0.847402 0.263899 0.996683 0.034369
C38   C     C_R   0.154057 0.266316 0.998401 0.044383
C39   C     C_R   0.350806 0.763268 0.000810 0.041095
C40   C     C_R   0.656372 0.765473 0.004977 0.039521
C41   C     C_R   0.779297 0.237303 0.897758 -0.197684
C42   C     C_R   0.219762 0.238802 0.097124 -0.182560
C43   C     C_R   0.285158 0.735681 0.901987 -0.197765
C44   C     C_R   0.726893 0.740425 0.104840 -0.190273
C45   C     C_R   0.938742 0.350478 0.090014 -0.148488
C46   C     C_R   0.066318 0.353408 0.908494 -0.136104
C47   C     C_R   0.436879 0.851610 0.091167 -0.137112
C48   C     C_R   0.567478 0.853105 0.909781 -0.155107
C49   C     C_R   0.239635 0.689058 0.902926 -0.163568
C50   C     C_R   0.770702 0.693195 0.104131 -0.179578
C51   C     C_R   0.734331 0.190626 0.899397 -0.169109
C52   C     C_R   0.265415 0.192722 0.095865 -0.172561
C53   C     C_R   0.251308 0.674532 0.000121 0.083951
C54   C     C_R   0.753442 0.676306 0.005040 0.083066
C55   C     C_R   0.749380 0.175024 0.998132 0.076241
C56   C     C_R   0.253784 0.179168 0.998579 0.081410
C57   C     C_R   0.328315 0.695980 0.096257 -0.113379
C58   C     C_R   0.671600 0.694625 0.909896 -0.096262
C59   C     C_R   0.828463 0.195288 0.093679 -0.105605
C60   C     C_R   0.176756 0.200406 0.902288 -0.115185
C61   C     C_3   0.361782 0.706680 0.210722 0.309566
C62   C     C_3   0.628230 0.701538 0.791116 0.307033
C63   C     C_3   0.866836 0.205114 0.210359 0.272951
C64   C     C_3   0.139838 0.209697 0.786072 0.304361
C65   C     C_3   0.928462 0.248952 0.211256 0.261506
C66   C     C_3   0.074777 0.251750 0.781999 0.271737
C67   C     C_3   0.427507 0.748845 0.215876 0.269035
C68   C     C_3   0.563756 0.743305 0.788796 0.258713
C69   C     C_R   0.953083 0.549377 0.507422 0.135557
C70   C     C_R   0.968676 0.549195 0.430765 0.157736
C71   C     C_R   0.524557 0.051798 0.561820 0.152629
C72   C     C_R   0.525413 0.050834 0.473662 0.137487
C73   C     C_R   0.951848 0.500041 0.553365 0.047995
C74   C     C_R   0.990351 0.500003 0.403829 0.048994
C75   C     C_R   0.518098 0.002124 0.603028 0.051200
C76   C     C_R   0.523564 0.000851 0.428456 0.055452
C77   C     C_R   0.951026 0.449912 0.507407 -0.193827
C78   C     C_R   0.971597 0.449762 0.433601 -0.199513
C79   C     C_R   0.538840 0.952766 0.574892 -0.206894
C80   C     C_R   0.540275 0.951921 0.485773 -0.187909
C81   C     C_3   0.006020 0.606714 0.456604 -0.516712
C82   C     C_3   0.992830 0.605946 0.546304 -0.490172
C83   C     C_3   0.467774 0.101662 0.425202 -0.489435
C84   C     C_3   0.468657 0.103832 0.525103 -0.521285
C85   C     C_R   0.028689 0.545886 0.290382 -0.100576
C86   C     C_R   0.962319 0.546058 0.704168 -0.070385
C87   C     C_R   0.521897 0.046302 0.284839 -0.085187
C88   C     C_R   0.478494 0.046633 0.715321 -0.116911
C89   C     C_R   0.732170 0.453586 0.731435 -0.105489
C90   C     C_R   0.264324 0.453620 0.287531 -0.133468
C91   C     C_R   0.232231 0.953546 0.732787 -0.106099
C92   C     C_R   0.763420 0.953786 0.289212 -0.135896
C93   C     C_R   0.025138 0.453842 0.287129 -0.110125
C94   C     C_R   0.968411 0.453999 0.708808 -0.114045
C95   C     C_R   0.513862 0.953882 0.278450 -0.115622
C96   C     C_R   0.480665 0.954471 0.716794 -0.113784
C97   C     C_R   0.731009 0.545825 0.722694 -0.121511
C98   C     C_R   0.264574 0.545991 0.292969 -0.139634
C99   C     C_R   0.230736 0.045723 0.724100 -0.109010
C100  C     C_R   0.763668 0.045994 0.294037 -0.145754
C101  C     C_R   0.846230 0.351309 0.908418 -0.130452
C102  C     C_R   0.155028 0.351913 0.090613 -0.120062
C103  C     C_R   0.347729 0.850646 0.909631 -0.137366
C104  C     C_R   0.655334 0.852184 0.091821 -0.119626
C105  C     C_R   0.911355 0.633872 0.091571 0.523244
C106  C     C_R   0.091189 0.632860 0.909658 0.513393
C107  C     C_R   0.411286 0.135319 0.089927 0.515958
C108  C     C_R   0.590018 0.134094 0.909877 0.511659
C109  C     C_R   0.823126 0.647650 0.002387 -0.118550
C110  C     C_R   0.180195 0.645398 0.999817 -0.119461
C111  C     C_R   0.324075 0.149807 0.999286 -0.119692
C112  C     C_R   0.679258 0.145984 0.999603 -0.118167
H1    H     H_    0.756638 0.635450 0.827581 0.177735
H2    H     H_    0.246241 0.630756 0.174799 0.161034
H3    H     H_    0.260587 0.138675 0.825073 0.169803
H4    H     H_    0.747223 0.129889 0.174496 0.168122
H5    H     H_    0.526678 0.418542 0.635971 0.142139
H6    H     H_    0.461988 0.414222 0.412045 0.141104
H7    H     H_    0.026839 0.916456 0.634658 0.140642
H8    H     H_    0.961787 0.916231 0.410653 0.141033
H9    H     H_    0.466132 0.578778 0.403298 0.149064
H10   H     H_    0.530508 0.582817 0.626625 0.147503
H11   H     H_    0.963531 0.080935 0.410443 0.146399
H12   H     H_    0.028335 0.080959 0.634080 0.148455
H13   H     H_    0.753453 0.254671 0.819074 0.125482
H14   H     H_    0.243701 0.254928 0.175881 0.122933
H15   H     H_    0.261361 0.752218 0.823405 0.125458
H16   H     H_    0.755667 0.759196 0.183105 0.121360
H17   H     H_    0.187698 0.669941 0.825828 0.175203
H18   H     H_    0.826160 0.676058 0.181943 0.171896
H19   H     H_    0.679896 0.172601 0.822105 0.175755
H20   H     H_    0.317754 0.173730 0.172980 0.176878
H21   H     H_    0.398096 0.670125 0.263161 0.101591
H22   H     H_    0.592042 0.663357 0.745007 0.096477
H23   H     H_    0.906091 0.168815 0.261475 0.097977
H24   H     H_    0.103415 0.172506 0.736271 0.100973
H25   H     H_    0.916992 0.291188 0.228286 -0.002596
H26   H     H_    0.085357 0.293610 0.762053 0.011333
H27   H     H_    0.416270 0.790888 0.233791 0.010148
H28   H     H_    0.567603 0.783661 0.758170 0.018071
H29   H     H_    0.945163 0.410357 0.535637 0.122457
H30   H     H_    0.979034 0.410179 0.407457 0.122685
H31   H     H_    0.545168 0.914042 0.613450 0.129623
H32   H     H_    0.547179 0.912569 0.458855 0.125401
H33   H     H_    0.957100 0.635246 0.388315 0.213320
H34   H     H_    0.060031 0.606649 0.629521 0.221137
H35   H     H_    0.397475 0.093874 0.348682 0.207883
H36   H     H_    0.510455 0.138665 0.580261 0.212435
H37   H     H_    0.985591 0.335887 0.171053 0.106302
H38   H     H_    0.028155 0.342973 0.825153 0.065750
H39   H     H_    0.477717 0.839964 0.174160 0.065208
H40   H     H_    0.530594 0.842677 0.826325 0.060482
H41   H     H_    0.711313 0.411079 0.711417 0.097695
H42   H     H_    0.282058 0.411146 0.311976 0.101218
H43   H     H_    0.211591 0.910991 0.713540 0.098123
H44   H     H_    0.780773 0.911312 0.313816 0.099447
H45   H     H_    0.708727 0.586540 0.688652 0.118346
H46   H     H_    0.282638 0.587364 0.324602 0.122294
H47   H     H_    0.207868 0.086369 0.690187 0.111630
H48   H     H_    0.781233 0.087477 0.325223 0.123656
N1    N     N_R   0.892620 0.603790 0.941770 -0.076137
N2    N     N_R   0.107380 0.603790 0.058230 -0.075359
N3    N     N_R   0.392620 0.103790 0.941770 -0.073843
N4    N     N_R   0.607380 0.103790 0.058230 -0.076971
N5    N     N_R   0.952270 0.397640 0.058010 -0.041923
N6    N     N_R   0.047730 0.397640 0.941990 -0.040387
N7    N     N_R   0.452270 0.897640 0.058010 -0.039815
N8    N     N_R   0.547730 0.897640 0.941990 -0.037954
N9    N     N_R   0.026310 0.529110 0.206760 -0.046805
N10   N     N_R   0.973690 0.529110 0.793240 -0.048537
N11   N     N_R   0.526310 0.029110 0.206760 -0.047570
N12   N     N_R   0.473690 0.029110 0.793240 -0.045596
N13   N     N_R   0.818570 0.472310 0.793020 -0.045774
N14   N     N_R   0.181430 0.472310 0.206980 -0.044216
N15   N     N_R   0.318570 0.972310 0.793020 -0.045834
N16   N     N_R   0.681430 0.972310 0.206980 -0.044438
N17   N     N_R   0.026930 0.472300 0.207330 -0.045873
N18   N     N_R   0.973070 0.472300 0.792670 -0.047356
N19   N     N_R   0.526930 0.972300 0.207330 -0.045246
N20   N     N_R   0.473070 0.972300 0.792670 -0.044113
N21   N     N_R   0.817960 0.529130 0.792460 -0.043149
N22   N     N_R   0.182040 0.529130 0.207540 -0.042268
N23   N     N_R   0.317960 0.029130 0.792460 -0.041916
N24   N     N_R   0.682040 0.029130 0.207540 -0.042347
N25   N     N_R   0.894850 0.397640 0.943830 -0.041932
N26   N     N_R   0.105150 0.397640 0.056170 -0.041761
N27   N     N_R   0.394850 0.897640 0.943830 -0.041828
N28   N     N_R   0.605150 0.897640 0.056170 -0.041085
N29   N     N_R   0.950040 0.603780 0.055950 -0.091991
N30   N     N_R   0.049960 0.603780 0.944050 -0.096724
N31   N     N_R   0.450040 0.103780 0.055950 -0.093211
N32   N     N_R   0.549960 0.103780 0.944050 -0.093823
Ni1   Ni    Ni4+2 0.934160 0.565860 0.869070 0.222253
Ni2   Ni    Ni4+2 0.065840 0.565860 0.130930 0.231027
Ni3   Ni    Ni4+2 0.434160 0.065860 0.869070 0.231398
Ni4   Ni    Ni4+2 0.565840 0.065860 0.130930 0.227172
Ni5   Ni    Ni4+2 0.067260 0.435560 0.132230 0.211147
Ni6   Ni    Ni4+2 0.932740 0.435560 0.867770 0.205405
Ni7   Ni    Ni4+2 0.567260 0.935560 0.132230 0.203538
Ni8   Ni    Ni4+2 0.432740 0.935560 0.867770 0.205352
O1    O     O_3   0.297446 0.728318 0.228702 -0.636585
C113  C     C_3   0.236116 0.769416 0.154573 0.324522
H49   H     H_    0.184807 0.751598 0.072034 0.082720
H50   H     H_    0.272769 0.804338 0.147370 0.067900
C114  C     C_3   0.183617 0.793110 0.196478 -0.915671
H51   H     H_    0.231768 0.800520 0.285848 0.273843
H52   H     H_    0.149853 0.832509 0.155105 0.207089
H53   H     H_    0.129140 0.763396 0.179331 0.243210
O2    O     O_3   0.684987 0.723081 0.760933 -0.642595
C115  C     C_3   0.744722 0.767379 0.825133 0.314205
H54   H     H_    0.791614 0.756729 0.913182 0.085348
H55   H     H_    0.705063 0.804904 0.814783 0.075075
C116  C     C_3   0.805001 0.781542 0.787846 -0.916120
H56   H     H_    0.764136 0.777910 0.697808 0.275917
H57   H     H_    0.831111 0.824394 0.811380 0.208971
H58   H     H_    0.865627 0.753269 0.827531 0.227337
O3    O     O_3   0.805005 0.224980 0.233756 -0.639210
C117  C     C_3   0.742214 0.266566 0.163414 0.318744
H59   H     H_    0.688433 0.249865 0.081417 0.085122
H60   H     H_    0.776489 0.301808 0.154448 0.069692
C118  C     C_3   0.694487 0.289292 0.211420 -0.925353
H61   H     H_    0.745131 0.294508 0.300899 0.273372
H62   H     H_    0.662238 0.329618 0.174476 0.209180
H63   H     H_    0.639737 0.260359 0.194141 0.238657
O4    O     O_3   0.200739 0.231427 0.762467 -0.640758
C119  C     C_3   0.263999 0.272244 0.834956 0.313538
H64   H     H_    0.318184 0.254221 0.915500 0.087675
H65   H     H_    0.229750 0.306308 0.846506 0.070749
C120  C     C_3   0.311180 0.296913 0.787160 -0.920126
H66   H     H_    0.260091 0.303298 0.698020 0.271642
H67   H     H_    0.343403 0.337028 0.825723 0.208669
H68   H     H_    0.365911 0.268747 0.801892 0.241933
O5    O     O_3   0.021691 0.231684 0.271050 -0.622121
C121  C     C_3   0.078415 0.265534 0.362775 0.291785
H69   H     H_    0.059199 0.261277 0.419962 0.110265
H70   H     H_    0.073061 0.309210 0.339233 0.061786
C122  C     C_3   0.178640 0.248307 0.419102 -0.872792
H71   H     H_    0.193827 0.245388 0.358126 0.258392
H72   H     H_    0.225295 0.279446 0.481025 0.208295
H73   H     H_    0.190650 0.207802 0.459048 0.256129
O6    O     O_3   0.982918 0.231026 0.716248 -0.617990
C123  C     C_3   0.917609 0.273937 0.664989 0.290887
H74   H     H_    0.937148 0.305109 0.627899 0.071788
H75   H     H_    0.908566 0.293240 0.723989 0.094599
C124  C     C_3   0.824320 0.250119 0.574790 -0.888829
H76   H     H_    0.804140 0.217966 0.609067 0.261217
H77   H     H_    0.771628 0.283311 0.538705 0.205022
H78   H     H_    0.828077 0.232042 0.510579 0.267914
O7    O     O_3   0.519466 0.728496 0.283949 -0.618174
C125  C     C_3   0.584438 0.771724 0.337197 0.298447
H79   H     H_    0.562263 0.803357 0.370682 0.073246
H80   H     H_    0.597108 0.790621 0.280470 0.091310
C126  C     C_3   0.676097 0.748122 0.431776 -0.888574
H81   H     H_    0.700918 0.717249 0.400575 0.256451
H82   H     H_    0.727942 0.781742 0.473062 0.203846
H83   H     H_    0.667220 0.728279 0.491054 0.269543
O8    O     O_3   0.473089 0.721111 0.733418 -0.613217
C127  C     C_3   0.409521 0.763190 0.712259 0.298916
H84   H     H_    0.409446 0.796339 0.661059 0.080721
H85   H     H_    0.426168 0.779788 0.790034 0.096531
C128  C     C_3   0.312054 0.739378 0.650167 -0.887266
H86   H     H_    0.309326 0.707786 0.701720 0.253456
H87   H     H_    0.262293 0.772898 0.631524 0.198470
H88   H     H_    0.291993 0.720631 0.572238 0.266732
H89   H     H_    0.080396 0.610107 0.488197 0.202491
H90   H     H_    0.939520 0.635921 0.531761 0.201683
H91   H     H_    0.506177 0.136536 0.421566 0.212954
H92   H     H_    0.398527 0.098800 0.505854 0.204096
H93   H     H_    0.042085 0.587152 0.319951 0.176637
H94   H     H_    0.939749 0.586663 0.670512 0.162809
H95   H     H_    0.543370 0.086441 0.320579 0.170257
H96   H     H_    0.467773 0.088133 0.687722 0.180377
H97   H     H_    0.028677 0.410964 0.307457 0.077491
H98   H     H_    0.958578 0.411400 0.685268 0.074909
H99   H     H_    0.518033 0.911226 0.299911 0.077799
H100  H     H_    0.475899 0.911997 0.693908 0.082770
H101  H     H_    0.807685 0.337557 0.825132 0.086348
H102  H     H_    0.194124 0.337735 0.173750 0.089580
H103  H     H_    0.309983 0.836325 0.826741 0.085848
H104  H     H_    0.693363 0.838270 0.175045 0.083851
O9    O     O_3   0.960633 0.656286 0.194520 -0.681816
C129  C     C_3   0.983658 0.711423 0.190510 0.244482
H105  H     H_    0.922708 0.738792 0.157087 0.105618
H106  H     H_    0.007732 0.715970 0.137989 0.081067
C130  C     C_3   0.059602 0.730696 0.305814 -0.912140
H107  H     H_    0.125140 0.707897 0.338665 0.263038
H108  H     H_    0.072272 0.775293 0.305254 0.219930
H109  H     H_    0.038041 0.723537 0.360256 0.256136
O10   O     O_3   0.047468 0.650692 0.803868 -0.676641
C131  C     C_3   0.025733 0.707115 0.796865 0.241800
H110  H     H_    0.085581 0.732059 0.861850 0.089333
H111  H     H_    0.967499 0.712335 0.803440 0.104257
C132  C     C_3   0.996727 0.729853 0.687495 -0.924004
H112  H     H_    0.927361 0.713624 0.620893 0.249711
H113  H     H_    0.993243 0.775360 0.687794 0.217309
H114  H     H_    0.047862 0.718225 0.671446 0.257551
O11   O     O_3   0.457725 0.155776 0.194236 -0.678621
C133  C     C_3   0.478839 0.211811 0.194710 0.247973
H115  H     H_    0.416092 0.236886 0.137637 0.094751
H116  H     H_    0.526018 0.215878 0.170570 0.093353
C134  C     C_3   0.524994 0.235216 0.308389 -0.928123
H117  H     H_    0.592251 0.214306 0.367278 0.262006
H118  H     H_    0.537419 0.279881 0.308188 0.220137
H119  H     H_    0.479068 0.229361 0.334607 0.250592
O12   O     O_3   0.542304 0.158162 0.808282 -0.679170
C135  C     C_3   0.524239 0.213667 0.815687 0.248284
H120  H     H_    0.589168 0.237810 0.868519 0.096817
H121  H     H_    0.484144 0.216750 0.849964 0.089576
C136  C     C_3   0.469491 0.239347 0.702641 -0.917175
H122  H     H_    0.400148 0.219626 0.649093 0.264504
H123  H     H_    0.460601 0.283993 0.708062 0.216948
H124  H     H_    0.507562 0.233798 0.666072 0.251558
O13   O     O_3   0.377723 0.503577 0.576964 -0.632602
C137  C     C_3   0.426124 0.504596 0.690959 0.258956
H125  H     H_    0.473919 0.540559 0.727599 0.098030
H126  H     H_    0.466603 0.466125 0.728558 0.082897
C138  C     C_3   0.356347 0.509208 0.717267 -0.856836
H127  H     H_    0.308081 0.473567 0.682680 0.252926
H128  H     H_    0.393380 0.509773 0.806824 0.205074
H129  H     H_    0.315735 0.547720 0.682138 0.259724
O14   O     O_3   0.613090 0.494156 0.460087 -0.633451
C139  C     C_3   0.564221 0.492083 0.346030 0.256337
H130  H     H_    0.517331 0.528114 0.305899 0.094720
H131  H     H_    0.522659 0.453596 0.312568 0.085159
C140  C     C_3   0.633584 0.493013 0.318666 -0.861077
H132  H     H_    0.680610 0.457011 0.355901 0.253347
H133  H     H_    0.596040 0.491524 0.229041 0.204976
H134  H     H_    0.675630 0.531279 0.350360 0.259424
O15   O     O_3   0.876740 0.999727 0.580239 -0.633274
C141  C     C_3   0.925032 0.997950 0.694075 0.254372
H135  H     H_    0.975105 0.032691 0.734453 0.096473
H136  H     H_    0.962933 0.958401 0.727614 0.084978
C142  C     C_3   0.855379 0.002472 0.720477 -0.858482
H137  H     H_    0.804606 0.968140 0.681787 0.255408
H138  H     H_    0.892133 0.000619 0.809953 0.204387
H139  H     H_    0.817567 0.042093 0.689450 0.259531
O16   O     O_3   0.111070 0.998191 0.461850 -0.633614
C143  C     C_3   0.061496 0.998051 0.347743 0.255316
H140  H     H_    0.015034 0.034421 0.310278 0.093675
H141  H     H_    0.019473 0.959869 0.312034 0.086482
C144  C     C_3   0.130304 0.000358 0.319764 -0.860185
H142  H     H_    0.176804 0.964038 0.354413 0.253688
H143  H     H_    0.092367 0.000465 0.230023 0.205633
H144  H     H_    0.172875 0.038334 0.353881 0.259245

loop_
_geom_bond_atom_site_label_1
_geom_bond_atom_site_label_2
_ccdc_geom_bond_type
C139  H131  S    
C135  H121  S    
C63   C65   S    
C22   O14   S    
C22   C29   S    
C5    C37   S    
C131  C132  S    
C19   C20   S    
N2    N30   A    
C104  H104  S    
O16   C143  S    
C61   H21   S    
C142  H137  S    
C129  H105  S    
C102  N26   A    
N10   N18   A    
N15   N23   A    
C55   C59   A    
C11   C76   S    
C134  H119  S    
C139  C140  S    
C10   C94   A    
C125  H80   S    
C94   N18   A    
N31   Ni4   S    
C14   C90   A    
N29   Ni2   S    
C30   H10   S    
C70   C74   A    
C105  O9    S    
N22   Ni2   S    
N8    Ni8   S    
C18   H6    S    
C65   H25   S    
C125  C126  S    
C136  H123  S    
C33   C59   A    
C124  H76   S    
C34   C60   A    
C18   C25   S    
C121  H70   S    
C116  H57   S    
C25   C29   S    
C5    C101  A    
C123  C124  S    
C113  H49   S    
C27   C31   S    
C52   H20   S    
N32   Ni3   S    
C41   H13   S    
C28   C32   S    
C103  N27   A    
C106  O10   S    
C43   H15   S    
C51   H19   S    
C137  H125  S    
C134  H117  S    
C85   N9    A    
C121  C122  S    
C64   C66   S    
C138  H129  S    
C19   C23   S    
N6    Ni6   S    
C120  H66   S    
C87   N11   A    
C135  H120  S    
C96   N20   A    
C8    C104  A    
C141  H136  S    
C67   O7    S    
C115  H55   S    
C68   H28   S    
C133  H115  S    
N16   Ni7   S    
C20   H8    S    
C126  H82   S    
C142  H139  S    
C65   O5    S    
N16   N24   A    
C114  H51   S    
N6    N26   A    
N10   Ni1   S    
C36   C68   S    
C57   C61   S    
C132  H114  S    
C90   N14   A    
C59   C63   S    
C62   C68   S    
N27   Ni8   S    
C60   C64   S    
C63   O3    S    
C130  H108  S    
C2    H2    S    
C49   C53   A    
C51   C55   A    
C6    C102  A    
C13   C97   A    
C69   C70   A    
C77   H29   S    
C42   H14   S    
C15   C91   A    
O14   C139  S    
C12   C75   S    
C73   C77   A    
C8    C40   S    
C75   C79   A    
C41   C51   A    
C42   C52   A    
C64   H24   S    
C99   H47   S    
N14   N22   A    
O13   C137  S    
O7    C125  S    
C29   C30   S    
C120  H68   S    
C128  H86   S    
O6    C123  S    
C140  H133  S    
C44   C50   A    
C69   C82   S    
C9    C85   A    
C79   H31   S    
C31   C32   S    
C11   C87   A    
C80   H32   S    
C6    C38   S    
N26   Ni5   S    
C67   H27   S    
O5    C121  S    
C99   N23   A    
C16   C27   S    
C7    C103  A    
C122  H71   S    
C81   H89   S    
N11   N19   A    
C101  N25   A    
N9    N17   A    
C64   O4    S    
C14   C98   A    
C142  H138  S    
C144  H143  S    
C104  N28   A    
C12   C88   A    
C93   N17   A    
C16   C100  A    
O3    C117  S    
C141  C142  S    
C93   H97   S    
C132  H112  S    
N20   Ni8   S    
C61   C67   S    
C117  H60   S    
C83   C84   S    
C66   H26   S    
C35   C67   S    
C97   H45   S    
C17   C18   S    
N1    Ni1   S    
C19   C28   S    
C26   C30   S    
C143  H141  S    
C1    N1    A    
C74   C78   A    
C96   H100  S    
C13   C26   S    
C124  H78   S    
C9    C74   S    
C106  N30   A    
C117  C118  S    
C21   C25   S    
C10   C86   A    
N14   Ni5   S    
C7    C39   S    
C18   C22   S    
C107  C111  A    
C24   C28   S    
C128  H88   S    
N4    Ni4   S    
C66   O6    S    
C17   H5    S    
C115  C116  S    
C129  H106  S    
O1    C113  S    
C127  H84   S    
C71   C72   A    
C23   O15   S    
C1    H1    S    
C37   C41   A    
C19   H7    S    
C40   C44   A    
C129  C130  S    
C119  H64   S    
C122  H73   S    
C107  N31   A    
N7    Ni7   S    
C108  N32   A    
N3    N31   A    
N4    N32   A    
C58   C62   S    
C21   O13   S    
N8    N28   A    
C89   N13   A    
C116  H56   S    
C92   N16   A    
C50   C54   A    
C113  H50   S    
C101  H101  S    
C118  H63   S    
C78   H30   S    
C106  C110  A    
C68   O8    S    
C10   C73   S    
C144  H144  S    
C137  H126  S    
C95   H99   S    
C84   H92   S    
C131  H110  S    
O15   C141  S    
C85   H93   S    
C138  H128  S    
C105  C109  A    
N30   Ni1   S    
C1    C109  A    
C98   H46   S    
C3    C111  A    
C113  C114  S    
C29   H9    S    
N23   Ni3   S    
C69   C73   A    
C90   H42   S    
N21   Ni1   S    
C56   C111  S    
C3    N3    A    
N12   N20   A    
C137  C138  S    
C84   H36   S    
C139  H130  S    
N13   N21   A    
C86   N10   A    
C34   C66   S    
C133  H116  S    
C82   H34   S    
C134  H118  S    
C135  C136  S    
C76   C80   A    
O2    C115  S    
C107  O11   S    
C123  H75   S    
C53   C57   A    
C125  H79   S    
C136  H122  S    
C5    C45   A    
C33   C37   A    
C108  C112  A    
C133  C134  S    
C7    C47   A    
C98   N22   A    
C35   C39   A    
C8    C48   A    
C130  H107  S    
N5    Ni5   S    
C126  H83   S    
N3    Ni3   S    
C123  H74   S    
C82   H90   S    
C47   H39   S    
C108  O12   S    
C16   C92   A    
C124  H77   S    
C62   O2    S    
C121  H69   S    
C143  C144  S    
C116  H58   S    
C2    C110  A    
C46   N6    A    
C4    H4    S    
N11   Ni4   S    
C94   H98   S    
C38   C42   A    
N9    Ni2   S    
C20   C27   S    
C21   C30   S    
C35   C57   A    
C23   C32   S    
C24   C31   S    
C120  H67   S    
C3    H3    S    
C141  H135  S    
C15   C28   S    
C126  H81   S    
N19   Ni7   S    
C83   H91   S    
C14   C25   S    
C140  H132  S    
C100  N24   A    
C17   C21   S    
C72   C83   S    
C56   C60   A    
C132  H113  S    
O12   C135  S    
C22   C26   S    
C12   C96   A    
N12   Ni3   S    
C45   N5    A    
C53   C110  S    
C24   O16   S    
C88   N12   A    
C55   C112  S    
O11   C133  S    
C32   H12   S    
C103  H103  S    
C72   C76   A    
C81   C82   S    
C33   C65   S    
C144  H142  S    
C17   C26   S    
C136  H124  S    
O8    C127  S    
C130  H109  S    
C36   C58   A    
C70   C81   S    
N24   Ni4   S    
C50   H18   S    
C61   O1    S    
C88   H96   S    
C20   C24   S    
C4    N4    A    
C23   C27   S    
N25   Ni6   S    
C45   H37   S    
C77   C78   A    
C81   H33   S    
C87   H95   S    
C4    C112  A    
C102  H102  S    
C36   C40   A    
C86   H94   S    
N1    N29   A    
C128  H87   S    
C43   C49   A    
C39   C43   A    
N28   Ni7   S    
O9    C129  S    
C49   H17   S    
N5    N25   A    
C54   C109  S    
C63   H23   S    
C140  H134  S    
C127  H85   S    
C91   H43   S    
C118  H61   S    
C47   N7    A    
C100  H48   S    
C89   H41   S    
C48   N8    A    
N7    N27   A    
N2    Ni2   S    
O4    C119  S    
C91   N15   A    
C92   H44   S    
C83   H35   S    
C95   N19   A    
C46   H38   S    
C115  H54   S    
C119  H65   S    
C122  H72   S    
C127  C128  S    
C9    C93   A    
O10   C131  S    
C71   C84   S    
C54   C58   A    
C114  H53   S    
C11   C95   A    
C44   H16   S    
C6    C46   A    
C13   C89   A    
N13   Ni6   S    
C34   C38   A    
C15   C99   A    
C97   N21   A    
C119  C120  S    
C62   H22   S    
C48   H40   S    
C31   H11   S    
C118  H62   S    
C71   C75   A    
C117  H59   S    
C105  N29   A    
C131  H111  S    
N18   Ni6   S    
C138  H127  S    
N15   Ni8   S    
C79   C80   A    
C143  H140  S    
N17   Ni5   S    
C114  H52   S    
C52   C56   A    
C2    N2    A    
