data_mof_unit_45079.cif
_audit_creation_date              2012-12-10T19:42:34-0500
_audit_creation_method            fapswitch 2.2
_symmetry_space_group_name_H-M    P1
_symmetry_Int_Tables_number       1
_space_group_crystal_system       triclinic
_cell_length_a                    10.978406
_cell_length_b                    10.963866
_cell_length_c                    9.96206
_cell_angle_alpha                 99.402472
_cell_angle_beta                  99.042014
_cell_angle_gamma                 96.277328
_cell_volume                      1157.00903885

loop_
_atom_site_label
_atom_site_type_symbol
_atom_type_description
_atom_site_fract_x
_atom_site_fract_y
_atom_site_fract_z
_atom_type_partial_charge
C1    C     C_R   0.498316 0.261801 0.497970 0.778432
C2    C     C_R   0.501706 0.738201 0.502032 0.778427
C3    C     C_R   0.871596 0.498809 0.501511 -0.224107
C4    C     C_R   0.128422 0.501263 0.498449 -0.224084
C5    C     C_R   0.960592 0.566325 0.614998 -0.142789
C6    C     C_R   0.039437 0.433731 0.384967 -0.142691
C7    C     C_R   0.278850 0.009689 0.010823 -0.108523
C8    C     C_R   0.721141 0.990261 0.989236 -0.108677
C9    C     C_R   0.310486 0.999595 0.149635 -0.166067
C10   C     C_R   0.689566 0.000361 0.850415 -0.166208
C11   C     C_R   0.424202 0.061475 0.229648 0.086708
C12   C     C_R   0.575845 0.938523 0.770369 0.086722
C13   C     C_R   0.506203 0.130795 0.166495 -0.026701
C14   C     C_R   0.493794 0.869230 0.833492 -0.026682
C15   C     C_R   0.471652 0.145962 0.029847 -0.113342
C16   C     C_R   0.528292 0.854043 0.970142 -0.113276
C17   C     C_R   0.357816 0.085247 0.951946 -0.164796
C18   C     C_R   0.642122 0.914730 0.048081 -0.164842
C19   C     C_R   0.467338 0.910666 0.379695 -0.247129
C20   C     C_R   0.532767 0.089345 0.620312 -0.247091
C21   C     C_R   0.501607 0.872783 0.506093 -0.078128
C22   C     C_R   0.498468 0.127225 0.493914 -0.078132
C23   C     C_R   0.262371 0.500246 0.499405 0.850159
C24   C     C_R   0.737635 0.499772 0.500590 0.850068
C25   C     C_R   0.535620 0.964347 0.629316 0.004194
C26   C     C_R   0.464471 0.035662 0.370693 0.004206
C27   C     C_2   0.515050 0.508834 0.078566 0.261032
C28   C     C_2   0.484933 0.491173 0.921430 0.261137
C29   C     C_R   0.089952 0.342603 0.019280 -0.175344
C30   C     C_R   0.909954 0.656252 0.980826 -0.175569
C31   C     C_R   0.086422 0.416541 0.146458 -0.064401
C32   C     C_R   0.913631 0.582722 0.853443 -0.064261
C33   C     C_R   0.074382 0.360792 0.261837 0.212791
C34   C     C_R   0.925659 0.638914 0.738350 0.212855
C35   C     C_R   0.068876 0.231035 0.249464 -0.098363
C36   C     C_R   0.931100 0.768716 0.751229 -0.098225
C37   C     C_R   0.069997 0.157539 0.121637 -0.130717
C38   C     C_R   0.929787 0.841800 0.879252 -0.130536
C39   C     C_R   0.080560 0.213073 0.006477 -0.112020
C40   C     C_R   0.919120 0.785820 0.994109 -0.112415
C41   C     C_R   0.912059 0.431581 0.387188 0.331477
C42   C     C_R   0.087964 0.568540 0.612736 0.331508
Cu1   Cu    Cu3+1 0.521120 0.521140 0.639640 0.961622
Cu2   Cu    Cu3+1 0.478880 0.478860 0.360360 0.961587
H1    H     H_    0.080210 0.155777 0.907049 0.116213
H2    H     H_    0.919261 0.842810 0.093674 0.116435
H3    H     H_    0.597749 0.170738 0.222808 0.192695
H4    H     H_    0.402249 0.829325 0.777151 0.192707
H5    H     H_    0.535374 0.200615 0.982799 0.154836
H6    H     H_    0.464536 0.799397 0.017164 0.154845
H7    H     H_    0.442445 0.841802 0.284967 0.166904
H8    H     H_    0.557668 0.158211 0.715039 0.166916
H9    H     H_    0.634602 0.607751 0.898042 0.201401
H10   H     H_    0.365407 0.392231 0.101968 0.201340
H11   H     H_    0.095938 0.385262 0.929716 0.136860
H12   H     H_    0.904027 0.613239 0.070167 0.137252
H13   H     H_    0.088185 0.516355 0.154041 0.123724
H14   H     H_    0.911979 0.482872 0.845471 0.123611
H15   H     H_    0.055699 0.186502 0.336482 0.113504
H16   H     H_    0.944330 0.813606 0.664457 0.113539
H17   H     H_    0.059593 0.057208 0.111660 0.110201
H18   H     H_    0.940120 0.942161 0.889609 0.110196
H19   H     H_    0.332856 0.092754 0.844392 0.130822
H20   H     H_    0.667037 0.907221 0.155641 0.130808
H21   H     H_    0.192860 0.959137 0.948883 0.157768
H22   H     H_    0.807129 0.040782 0.051209 0.157838
H23   H     H_    0.247741 0.940913 0.193844 0.131036
H24   H     H_    0.752358 0.059017 0.806228 0.131038
N1    N     N_2   0.447120 0.447110 0.150550 -0.281596
N2    N     N_2   0.552880 0.552890 0.849450 -0.281571
O1    O     O_R   0.517830 0.337490 0.617920 -0.601355
O2    O     O_R   0.482170 0.662510 0.382080 -0.601373
O3    O     O_R   0.482150 0.301790 0.382070 -0.567259
O4    O     O_R   0.517850 0.698210 0.617930 -0.567254
O5    O     O_R   0.337480 0.517860 0.617920 -0.531374
O6    O     O_R   0.662520 0.482140 0.382080 -0.531386
O7    O     O_R   0.301810 0.482160 0.382070 -0.589032
O8    O     O_R   0.698190 0.517840 0.617930 -0.589008
C43   C     C_3   0.369526 0.401617 0.850998 -0.756242
H25   H     H_    0.285812 0.446007 0.867008 0.236418
H26   H     H_    0.363968 0.366588 0.741318 0.268815
H27   H     H_    0.366422 0.314909 0.892858 0.157851
C44   C     C_3   0.630465 0.598374 0.148993 -0.756090
H28   H     H_    0.714171 0.553907 0.133003 0.236517
H29   H     H_    0.633605 0.685097 0.107081 0.157876
H30   H     H_    0.636007 0.633414 0.258688 0.268824
Cl1   Cl    Cl    0.805391 0.337483 0.245295 -0.706538
Cl2   Cl    Cl    0.194640 0.662666 0.754601 -0.706519

loop_
_geom_bond_atom_site_label_1
_geom_bond_atom_site_label_2
_ccdc_geom_bond_type
C38   C40   A    
C5    C42   A    
C8    H22   S    
C32   H14   S    
Cu1   O8    S    
C40   H2    S    
C1    O1    A    
Cu2   O7    S    
C19   C21   A    
C16   H6    S    
C20   C25   A    
C35   H15   S    
Cu2   O6    S    
C19   C26   A    
C7    C17   A    
C6    C41   A    
C31   C33   A    
C27   N1    D    
C39   H1    S    
Cu1   O4    S    
C1    C22   S    
C3    C24   S    
C2    O2    A    
H9    N2    S    
Cu1   O5    S    
C41   Cl1   S    
C4    C6    A    
C23   O5    A    
C43   H26   S    
C4    C23   S    
C24   O6    A    
C14   H4    S    
C29   H11   S    
C11   C26   S    
C36   H16   S    
C30   H12   S    
C8    C18   A    
C32   C34   A    
Cu1   Cu2   S    
C9    H23   S    
C7    H21   S    
C44   H28   S    
C29   C31   A    
C5    C34   S    
C29   C39   A    
C2    C21   S    
C30   C40   A    
Cu2   N1    S    
C23   O7    A    
C9    C11   A    
C10   C12   A    
C16   C18   A    
C44   H29   S    
C12   C14   A    
Cu1   N2    S    
C13   C15   A    
C14   C16   A    
C42   Cl2   S    
C13   H3    S    
C24   O8    A    
C7    C9    A    
C21   C25   A    
C3    C41   A    
Cu1   O1    S    
C35   C37   A    
C8    C10   A    
C28   N2    D    
C20   C22   A    
C3    C5    A    
C2    O4    A    
C43   H27   S    
C37   H17   S    
C15   C17   A    
C10   H24   S    
C6    C33   S    
C12   C25   S    
C1    O3    A    
C31   H13   S    
C27   C44   S    
C37   C39   A    
C17   H19   S    
C30   C32   A    
C11   C13   A    
C18   H20   S    
H10   N1    S    
C4    C42   A    
C36   C38   A    
C33   C35   A    
Cu2   O2    S    
C34   C36   A    
C15   H5    S    
Cu2   O3    S    
C43   H25   S    
C19   H7    S    
C44   H30   S    
C28   C43   S    
C20   H8    S    
C22   C26   A    
C27   C28   S    
C38   H18   S    
