data_mof_unit_9338.cif
_audit_creation_date              2012-12-11T15:23:44-0500
_audit_creation_method            fapswitch 2.2
_symmetry_space_group_name_H-M    P1
_symmetry_Int_Tables_number       1
_space_group_crystal_system       triclinic
_cell_length_a                    17.255476
_cell_length_b                    24.383705
_cell_length_c                    14.902244
_cell_angle_alpha                 90.661848
_cell_angle_beta                  125.319462
_cell_angle_gamma                 89.122119
_cell_volume                      5115.45015427

loop_
_atom_site_label
_atom_site_type_symbol
_atom_type_description
_atom_site_fract_x
_atom_site_fract_y
_atom_site_fract_z
_atom_type_partial_charge
C1    C     C_R   0.353706 0.347742 0.908196 -0.200816
C2    C     C_R   0.691429 0.378796 0.092985 -0.235092
C3    C     C_R   0.854604 0.847454 0.908548 -0.105891
C4    C     C_R   0.191434 0.878806 0.092981 -0.240835
C5    C     C_R   0.380715 0.684674 0.999026 0.126590
C6    C     C_R   0.686182 0.640733 0.004713 0.194205
C7    C     C_R   0.880433 0.184599 0.999058 0.125873
C8    C     C_R   0.187386 0.139524 0.005194 0.187058
C9    C     C_R   0.466939 0.501117 0.297687 -0.151353
C10   C     C_R   0.411402 0.499258 0.622273 -0.193440
C11   C     C_R   0.968812 0.001140 0.299606 -0.157128
C12   C     C_R   0.911327 0.999050 0.622241 -0.195939
C13   C     C_R   0.172771 0.500911 0.691231 -0.051262
C14   C     C_R   0.791728 0.499294 0.372680 -0.032002
C15   C     C_R   0.672738 0.000864 0.691585 -0.054161
C16   C     C_R   0.291662 0.999267 0.372742 -0.030034
C17   C     C_2   0.920647 0.458172 0.544663 -0.124822
C18   C     C_2   0.020151 0.465571 0.634103 -0.131303
C19   C     C_2   0.420551 0.958142 0.544809 -0.129751
C20   C     C_2   0.520035 0.965542 0.634376 -0.130895
C21   C     C_2   0.865350 0.501706 0.490590 -0.178786
C22   C     C_2   0.070230 0.503014 0.623389 -0.200820
C23   C     C_2   0.365262 0.001674 0.490677 -0.177822
C24   C     C_2   0.570182 0.002973 0.623747 -0.199528
C25   C     C_R   0.307210 0.777105 0.910537 0.402705
C26   C     C_R   0.712909 0.738042 0.011337 0.440491
C27   C     C_R   0.806989 0.277034 0.910528 0.406388
C28   C     C_R   0.221107 0.236307 0.027321 0.531918
C29   C     C_R   0.771849 0.328642 0.916833 0.346814
C30   C     C_R   0.262746 0.280583 0.014525 0.372101
C31   C     C_R   0.271901 0.828659 0.916827 0.343684
C32   C     C_R   0.757959 0.781310 0.999594 0.367217
C33   C     C_R   0.777207 0.341669 0.011619 -0.194825
C34   C     C_R   0.333170 0.270602 0.995905 -0.327539
C35   C     C_R   0.277194 0.841630 0.011603 -0.195014
C36   C     C_R   0.836264 0.769669 0.996861 -0.242484
C37   C     C_R   0.849695 0.316988 0.110878 0.373019
C38   C     C_R   0.355448 0.217636 0.979391 0.429922
C39   C     C_R   0.349741 0.816978 0.110870 0.372131
C40   C     C_R   0.864612 0.716077 0.993367 0.381095
C41   C     C_R   0.377569 0.763305 0.106826 0.408560
C42   C     C_R   0.818771 0.672696 0.003566 0.418959
C43   C     C_R   0.877237 0.263240 0.106800 0.411518
C44   C     C_R   0.311939 0.173200 0.990475 0.425353
C45   C     C_R   0.450059 0.653864 0.087654 0.683214
C46   C     C_R   0.596915 0.629145 0.911826 0.527747
C47   C     C_R   0.949821 0.153805 0.087713 0.685163
C48   C     C_R   0.097791 0.128471 0.912094 0.529788
C49   C     C_R   0.355451 0.742579 0.004725 -0.283346
C50   C     C_R   0.742153 0.684329 0.009508 -0.311992
C51   C     C_R   0.855129 0.242501 0.004713 -0.277808
C52   C     C_R   0.243431 0.183352 0.010896 -0.363582
C53   C     C_R   0.376266 0.550378 0.461512 0.276450
C54   C     C_R   0.429179 0.549876 0.417687 0.293627
C55   C     C_R   0.874938 0.049849 0.460595 0.276896
C56   C     C_R   0.928370 0.049817 0.417391 0.295274
C57   C     C_R   0.424042 0.502701 0.359279 -0.195926
C58   C     C_R   0.368261 0.500773 0.501504 -0.063958
C59   C     C_R   0.925393 0.002453 0.360664 -0.199752
C60   C     C_R   0.868109 0.000210 0.501421 -0.066407
C61   C     C_R   0.371674 0.457872 0.355861 0.332831
C62   C     C_R   0.357100 0.453048 0.439686 0.385752
C63   C     C_R   0.874412 0.957006 0.358013 0.331562
C64   C     C_R   0.858675 0.952305 0.440823 0.388945
C65   C     C_R   0.498417 0.454999 0.269883 0.524962
C66   C     C_R   0.434844 0.454057 0.690349 0.540329
C67   C     C_R   0.000232 0.955067 0.271591 0.537235
C68   C     C_R   0.934676 0.953950 0.690441 0.539177
C69   C     C_R   0.230627 0.546300 0.730901 -0.144096
C70   C     C_R   0.750019 0.544662 0.306473 -0.238359
C71   C     C_R   0.730591 0.046269 0.731054 -0.144385
C72   C     C_R   0.249940 0.044638 0.306554 -0.241725
C73   C     C_R   0.483238 0.545702 0.253400 0.487745
C74   C     C_R   0.441866 0.544337 0.693253 0.450865
C75   C     C_R   0.984031 0.045714 0.254286 0.486585
C76   C     C_R   0.941903 0.044224 0.693151 0.455141
C77   C     C_R   0.231087 0.454369 0.728655 0.518811
C78   C     C_R   0.745944 0.453805 0.306854 0.511063
C79   C     C_R   0.731094 0.954331 0.729001 0.533811
C80   C     C_R   0.245923 0.953791 0.306861 0.511551
C81   C     C_R   0.348436 0.651086 0.907945 -0.257079
C82   C     C_R   0.690222 0.624201 0.095144 -0.235778
C83   C     C_R   0.848309 0.151047 0.907955 -0.257869
C84   C     C_R   0.190843 0.123210 0.095300 -0.226707
C85   C     C_R   0.446819 0.346507 0.089970 0.669709
C86   C     C_R   0.602425 0.376596 0.910811 0.623387
C87   C     C_R   0.947432 0.846406 0.090049 0.694422
C88   C     C_R   0.102434 0.876612 0.910808 0.622937
C89   C     C_R   0.384956 0.315837 0.997669 -0.045797
C90   C     C_R   0.695330 0.367509 0.004190 0.000714
C91   C     C_R   0.887241 0.815203 0.998102 -0.024054
C92   C     C_R   0.195338 0.867507 0.004191 0.005756
H1    H     H_    0.311921 0.334075 0.823813 0.210567
H2    H     H_    0.746742 0.376081 0.179075 0.246420
H3    H     H_    0.813313 0.833610 0.824224 0.187945
H4    H     H_    0.246731 0.876086 0.179072 0.247263
H5    H     H_    0.887098 0.542232 0.527801 0.147380
H6    H     H_    0.036017 0.534393 0.560223 0.151184
H7    H     H_    0.386984 0.042200 0.527894 0.147313
H8    H     H_    0.536002 0.034347 0.560567 0.151277
H9    H     H_    0.208818 0.588896 0.714801 0.127691
H10   H     H_    0.759033 0.586644 0.334948 0.128026
H11   H     H_    0.708742 0.088859 0.714925 0.128078
H12   H     H_    0.258892 0.086608 0.335084 0.128136
H13   H     H_    0.306723 0.662682 0.822907 0.198804
H14   H     H_    0.746560 0.631271 0.180731 0.121771
H15   H     H_    0.806599 0.162647 0.822921 0.199011
H16   H     H_    0.247370 0.129888 0.180935 0.124017
H17   H     H_    0.902371 0.417156 0.510627 0.163893
H18   H     H_    0.055675 0.433867 0.696460 0.160706
H19   H     H_    0.402296 0.917125 0.510778 0.164299
H20   H     H_    0.555498 0.933847 0.696757 0.164173
N1    N     N_R   0.395440 0.396300 0.944370 -0.087964
N2    N     N_R   0.604560 0.396300 0.055630 -0.089283
N3    N     N_R   0.895440 0.896300 0.944370 -0.088471
N4    N     N_R   0.104560 0.896300 0.055630 -0.094875
N5    N     N_R   0.449890 0.602500 0.055780 -0.120848
N6    N     N_R   0.550110 0.602500 0.944220 -0.106866
N7    N     N_R   0.949890 0.102500 0.055780 -0.120688
N8    N     N_R   0.050110 0.102500 0.944220 -0.107813
N9    N     N_R   0.525090 0.470990 0.205640 -0.115514
N10   N     N_R   0.474910 0.470990 0.794360 -0.122704
N11   N     N_R   0.025090 0.970990 0.205640 -0.116080
N12   N     N_R   0.974910 0.970990 0.794360 -0.123092
N13   N     N_R   0.320240 0.527820 0.794510 -0.067595
N14   N     N_R   0.679760 0.527820 0.205490 -0.068737
N15   N     N_R   0.820240 0.027820 0.794510 -0.067919
N16   N     N_R   0.179760 0.027820 0.205490 -0.069309
N17   N     N_R   0.524580 0.527810 0.205160 -0.139874
N18   N     N_R   0.475420 0.527810 0.794840 -0.125592
N19   N     N_R   0.024580 0.027810 0.205160 -0.140055
N20   N     N_R   0.975420 0.027810 0.794840 -0.125774
N21   N     N_R   0.320750 0.470990 0.794990 -0.082420
N22   N     N_R   0.679250 0.470990 0.205010 -0.075448
N23   N     N_R   0.820750 0.970990 0.794990 -0.084071
N24   N     N_R   0.179250 0.970990 0.205010 -0.075416
N25   N     N_R   0.393580 0.602500 0.942610 -0.084549
N26   N     N_R   0.606420 0.602500 0.057390 -0.072477
N27   N     N_R   0.893580 0.102500 0.942610 -0.083857
N28   N     N_R   0.106420 0.102500 0.057390 -0.072572
N29   N     N_R   0.451750 0.396300 0.057540 -0.111496
N30   N     N_R   0.548250 0.396300 0.942460 -0.118866
N31   N     N_R   0.951750 0.896300 0.057540 -0.109781
N32   N     N_R   0.048250 0.896300 0.942460 -0.125230
Ni1   Ni    Ni4+2 0.435420 0.434250 0.870220 0.241243
Ni2   Ni    Ni4+2 0.564580 0.434250 0.129780 0.273732
Ni3   Ni    Ni4+2 0.935420 0.934250 0.870220 0.240927
Ni4   Ni    Ni4+2 0.064580 0.934250 0.129780 0.270476
Ni5   Ni    Ni4+2 0.563400 0.564580 0.128670 0.199306
Ni6   Ni    Ni4+2 0.436600 0.564580 0.871330 0.234551
Ni7   Ni    Ni4+2 0.063400 0.064580 0.128670 0.200282
Ni8   Ni    Ni4+2 0.936600 0.064580 0.871330 0.235590
O1    O     O_3   0.293097 0.760255 0.813077 -0.590341
C93   C     C_3   0.195779 0.748304 0.734879 -0.263047
H21   H     H_    0.151603 0.786122 0.701137 0.181492
H22   H     H_    0.167553 0.721264 0.769340 0.114146
H23   H     H_    0.188125 0.726065 0.664841 0.174031
O2    O     O_3   0.635127 0.747314 0.014695 -0.590911
C94   C     C_3   0.667781 0.762560 0.122770 -0.211288
H24   H     H_    0.706555 0.802013 0.147657 0.143603
H25   H     H_    0.713896 0.730177 0.183160 0.130194
H26   H     H_    0.605406 0.768249 0.125791 0.191122
O3    O     O_3   0.792783 0.260147 0.813041 -0.589118
C95   C     C_3   0.695445 0.248202 0.734951 -0.265848
H27   H     H_    0.651250 0.286022 0.701363 0.181939
H28   H     H_    0.667329 0.221113 0.769469 0.114521
H29   H     H_    0.687681 0.226019 0.664801 0.174860
O4    O     O_3   0.148898 0.244598 0.041159 -0.565055
C96   C     C_3   0.189195 0.258952 0.151822 -0.127024
H30   H     H_    0.221021 0.300411 0.171773 0.172245
H31   H     H_    0.243320 0.228342 0.209980 0.080344
H32   H     H_    0.131961 0.260065 0.164657 0.178795
O5    O     O_3   0.733108 0.366810 0.833386 -0.695389
H33   H     H_    0.754116 0.358002 0.785455 0.347191
O6    O     O_3   0.231037 0.332394 0.018496 -0.738591
H34   H     H_    0.251998 0.360140 0.989304 0.325271
O7    O     O_3   0.233074 0.866832 0.833384 -0.697166
H35   H     H_    0.254226 0.858122 0.785559 0.345634
O8    O     O_3   0.726962 0.835083 0.988868 -0.749862
H36   H     H_    0.662250 0.835780 0.971574 0.343130
O9    O     O_3   0.882068 0.340509 0.211448 -0.620583
C97   C     C_3   0.931568 0.388859 0.224383 -0.280063
H37   H     H_    0.883074 0.420993 0.164967 0.161613
H38   H     H_    0.990954 0.380435 0.216375 0.140531
H39   H     H_    0.962901 0.405341 0.308297 0.178557
O10   O     O_3   0.425337 0.209413 0.961962 -0.611111
C98   C     C_3   0.381449 0.201746 0.848401 -0.153343
H40   H     H_    0.334777 0.237140 0.799651 0.111503
H41   H     H_    0.340330 0.163069 0.818603 0.177593
H42   H     H_    0.437579 0.198512 0.833886 0.136336
O11   O     O_3   0.381972 0.840440 0.211438 -0.619582
C99   C     C_3   0.431497 0.888805 0.224547 -0.283044
H43   H     H_    0.383053 0.920944 0.165096 0.160599
H44   H     H_    0.490994 0.880409 0.216726 0.138524
H45   H     H_    0.462677 0.905267 0.308441 0.179744
O12   O     O_3   0.940347 0.706356 0.986719 -0.612899
C100  C     C_3   0.904710 0.698545 0.875310 -0.158677
H46   H     H_    0.864115 0.735139 0.824990 0.104635
H47   H     H_    0.859779 0.661345 0.840751 0.173557
H48   H     H_    0.965571 0.692380 0.869616 0.141989
O13   O     O_3   0.404984 0.727140 0.192539 -0.587451
C101  C     C_3   0.484468 0.745730 0.295264 0.135150
H49   H     H_    0.460837 0.766413 0.342419 0.136628
H50   H     H_    0.532199 0.772600 0.287856 0.081910
H51   H     H_    0.527126 0.709518 0.344546 0.157805
O14   O     O_3   0.844032 0.619096 0.999606 -0.587205
C102  C     C_3   0.917142 0.602686 0.107371 -0.155623
H52   H     H_    0.893307 0.604547 0.162631 0.105845
H53   H     H_    0.981894 0.627846 0.141748 0.152965
H54   H     H_    0.936710 0.559442 0.104789 0.159008
O15   O     O_3   0.904305 0.227047 0.192369 -0.588460
C103  C     C_3   0.983623 0.245558 0.295300 0.133752
H55   H     H_    0.959768 0.266283 0.342194 0.136890
H56   H     H_    0.031632 0.272358 0.288251 0.081826
H57   H     H_    0.026062 0.209303 0.344623 0.157817
O16   O     O_3   0.332008 0.120276 0.974858 -0.588011
C104  C     C_3   0.407791 0.099576 0.077416 -0.170412
H58   H     H_    0.388572 0.097912 0.136935 0.111480
H59   H     H_    0.473223 0.124144 0.112107 0.149394
H60   H     H_    0.423973 0.057043 0.065376 0.162294
O17   O     O_3   0.324177 0.595801 0.454197 -0.698581
H61   H     H_    0.328839 0.624504 0.410947 0.325313
O18   O     O_3   0.487031 0.593194 0.434959 -0.710060
H62   H     H_    0.489076 0.619298 0.487822 0.321048
O19   O     O_3   0.822613 0.095052 0.453683 -0.698230
H63   H     H_    0.826379 0.123769 0.409779 0.324658
O20   O     O_3   0.985104 0.093676 0.434181 -0.709682
H64   H     H_    0.986213 0.119803 0.486415 0.321064
O21   O     O_3   0.335269 0.419559 0.272211 -0.588963
C105  C     C_3   0.241347 0.435832 0.189041 -0.157679
H65   H     H_    0.240041 0.475482 0.151836 0.116826
H66   H     H_    0.196323 0.438689 0.220281 0.134229
H67   H     H_    0.209130 0.404564 0.123062 0.206876
O22   O     O_3   0.317651 0.406162 0.448587 -0.603651
C106  C     C_3   0.373420 0.359293 0.463819 -0.044099
H68   H     H_    0.451190 0.367475 0.517726 0.120727
H69   H     H_    0.352469 0.341914 0.383704 0.150918
H70   H     H_    0.359278 0.327211 0.504640 0.139376
O23   O     O_3   0.841778 0.917384 0.277209 -0.588181
C107  C     C_3   0.751169 0.934182 0.186724 -0.145988
H71   H     H_    0.722769 0.902153 0.122369 0.184304
H72   H     H_    0.755031 0.972857 0.150533 0.119439
H73   H     H_    0.700378 0.938993 0.209655 0.125036
O24   O     O_3   0.819682 0.905213 0.449782 -0.603715
C108  C     C_3   0.876844 0.858665 0.467348 -0.031617
H74   H     H_    0.954382 0.867532 0.521087 0.118519
H75   H     H_    0.856514 0.840429 0.388081 0.153399
H76   H     H_    0.863349 0.826946 0.509366 0.138675
O25   O     O_3   0.530302 0.676570 0.178316 -0.771170
H77   H     H_    0.575657 0.646279 0.221500 0.317595
O26   O     O_3   0.554423 0.659121 0.817009 -0.753824
H78   H     H_    0.489231 0.667739 0.794798 0.358726
O27   O     O_3   0.029853 0.176511 0.178623 -0.769748
H79   H     H_    0.075357 0.146256 0.221677 0.316885
O28   O     O_3   0.056107 0.158579 0.817514 -0.754698
H80   H     H_    0.990889 0.167511 0.794871 0.356768
O29   O     O_3   0.517149 0.403634 0.315210 -0.662905
H81   H     H_    0.516844 0.405934 0.381338 0.319907
O30   O     O_3   0.387237 0.405408 0.656332 -0.711335
H82   H     H_    0.318635 0.415072 0.609546 0.350123
O31   O     O_3   0.021584 0.904114 0.319041 -0.661094
H83   H     H_    0.022884 0.906840 0.386213 0.319679
O32   O     O_3   0.886718 0.905401 0.656738 -0.712410
H84   H     H_    0.818187 0.915170 0.608830 0.349169
O33   O     O_3   0.448030 0.597968 0.241052 -0.711053
H85   H     H_    0.387306 0.595454 0.233651 0.338635
O34   O     O_3   0.408266 0.596452 0.660378 -0.689060
H86   H     H_    0.449546 0.612136 0.641174 0.352820
O35   O     O_3   0.948005 0.097798 0.241253 -0.710599
H87   H     H_    0.887036 0.094925 0.233189 0.338168
O36   O     O_3   0.908968 0.096443 0.660240 -0.689203
H88   H     H_    0.950045 0.111707 0.640355 0.351972
O37   O     O_3   0.206110 0.401288 0.691871 -0.796091
H89   H     H_    0.139894 0.401556 0.625342 0.317458
O38   O     O_3   0.739132 0.403335 0.342090 -0.756558
H90   H     H_    0.747776 0.408755 0.413346 0.324268
O39   O     O_3   0.706135 0.901174 0.692778 -0.790628
H91   H     H_    0.639890 0.901353 0.626311 0.316287
O40   O     O_3   0.239127 0.903299 0.342035 -0.760697
H92   H     H_    0.247706 0.908690 0.413261 0.324084
O41   O     O_3   0.511816 0.327065 0.195446 -0.573591
C109  C     C_3   0.563519 0.281875 0.194775 -0.075856
H93   H     H_    0.582785 0.286975 0.135686 0.121922
H94   H     H_    0.523634 0.243430 0.177858 0.123629
H95   H     H_    0.630935 0.277980 0.277923 0.173395
O42   O     O_3   0.567307 0.360616 0.804946 -0.567668
C110  C     C_3   0.522852 0.309548 0.785686 -0.158165
H96   H     H_    0.461262 0.312789 0.791185 0.149342
H97   H     H_    0.574164 0.277727 0.843532 0.087830
H98   H     H_    0.495515 0.295782 0.701179 0.145383
O43   O     O_3   0.010828 0.827567 0.196252 -0.581257
C111  C     C_3   0.068849 0.785104 0.199498 -0.093633
H99   H     H_    0.086193 0.790417 0.138711 0.118216
H100  H     H_    0.035273 0.744849 0.188250 0.139482
H101  H     H_    0.137155 0.784976 0.282312 0.182358
O44   O     O_3   0.067265 0.860516 0.804990 -0.566152
C112  C     C_3   0.023424 0.809280 0.786260 -0.164307
H102  H     H_    0.961570 0.812408 0.791272 0.143293
H103  H     H_    0.074971 0.777708 0.844710 0.086128
H104  H     H_    0.996641 0.795221 0.702094 0.146149

loop_
_geom_bond_atom_site_label_1
_geom_bond_atom_site_label_2
_ccdc_geom_bond_type
C58   C62   A    
C23   H7    S    
C55   C56   A    
C88   N32   A    
C29   O5    S    
C26   C32   A    
O31   H83   S    
C62   O22   S    
C87   C91   A    
C27   C29   A    
C96   H31   S    
C96   H30   S    
C86   O42   S    
C7    C83   A    
O38   H90   S    
C16   C72   A    
C5    C49   S    
C68   N12   A    
C105  H66   S    
C83   N27   A    
C72   H12   S    
C77   N21   A    
O26   H78   S    
C39   C41   A    
O9    C97   S    
C104  H60   S    
C81   N25   A    
N11   Ni4   S    
C12   C68   A    
N12   N20   A    
O25   H77   S    
O21   C105  S    
C101  H50   S    
C31   O7    S    
C6    C82   A    
N2    N30   A    
C14   C21   S    
C95   H27   S    
C10   C58   S    
O23   C107  S    
N15   N23   A    
C47   O27   S    
C26   C50   A    
C63   O23   S    
O42   C110  S    
N14   Ni5   S    
C112  H102  S    
C44   O16   S    
N13   N21   A    
O36   H88   S    
C76   O36   S    
N3    Ni3   S    
N27   Ni8   S    
C14   C78   A    
C21   H5    S    
O24   C108  S    
C46   N6    A    
C105  H67   S    
C3    C91   A    
O29   H81   S    
O13   C101  S    
N10   Ni1   S    
N1    Ni1   S    
N6    Ni6   S    
O20   H64   S    
C97   H37   S    
C98   H42   S    
O18   H62   S    
C45   O25   S    
C5    C81   A    
C20   H20   S    
N19   Ni7   S    
C15   C79   A    
C88   C92   A    
C29   C33   A    
C11   C67   A    
C101  H51   S    
N18   Ni6   S    
C80   O40   S    
C87   O43   S    
C106  H68   S    
C110  H97   S    
C32   O8    S    
C42   O14   S    
N8    N28   A    
C65   N9    A    
C43   O15   S    
O33   H85   S    
C8    C52   S    
C93   H22   S    
C61   C62   A    
O39   H91   S    
N4    N32   A    
C27   O3    S    
C35   C92   S    
C44   C52   A    
O43   C111  S    
C40   C42   A    
C69   N13   A    
C9    C73   A    
C18   C22   D    
O35   H87   S    
C55   C60   A    
C14   C70   A    
N30   Ni1   S    
C71   N15   A    
C105  H65   S    
C1    N1    A    
C78   O38   S    
C11   C75   A    
N32   Ni3   S    
C11   C59   S    
C95   H29   S    
C41   C49   A    
C67   O31   S    
C75   N19   A    
C17   C18   S    
C9    C65   A    
C10   C66   A    
N26   Ni5   S    
N7    Ni7   S    
N31   Ni4   S    
N22   Ni2   S    
N12   Ni3   S    
N3    N31   A    
N8    Ni8   S    
C101  H49   S    
C30   C34   A    
C63   C64   A    
C25   O1    S    
C102  H52   S    
C99   H45   S    
C20   C24   D    
C2    H2    S    
C85   O41   S    
O16   C104  S    
N2    Ni2   S    
C93   H23   S    
C48   N8    A    
C66   O30   S    
C86   C90   A    
C85   N29   A    
C22   H6    S    
N4    Ni4   S    
C108  H74   S    
C85   C89   A    
O14   C102  S    
N17   Ni5   S    
C4    C92   A    
C28   C52   A    
C75   O35   S    
C8    C84   A    
C104  H58   S    
C53   C54   A    
C5    C45   A    
C111  H100  S    
C107  H73   S    
C33   C37   A    
O11   C99   S    
C17   H17   S    
C88   O44   S    
C97   H39   S    
C34   C38   A    
C37   C43   A    
C100  H48   S    
C19   C23   D    
C17   C21   D    
C8    C48   A    
O15   C103  S    
C38   C44   A    
O17   H61   S    
C77   O37   S    
N15   Ni8   S    
C102  H54   S    
C39   O11   S    
C74   O34   S    
N16   Ni7   S    
C61   O21   S    
C94   H24   S    
C103  H57   S    
C36   C40   A    
O40   H92   S    
C37   O9    S    
C4    H4    S    
C107  H72   S    
O19   H63   S    
C109  H93   S    
C94   H26   S    
C112  H103  S    
C6    C50   S    
C48   O28   S    
C110  H98   S    
C78   N22   A    
N28   Ni7   S    
N14   N22   A    
C93   H21   S    
N24   Ni4   S    
C2    N2    A    
C73   O33   S    
N29   Ni2   S    
C42   C50   A    
C36   C91   S    
C1    H1    S    
O4    C96   S    
N16   N24   A    
C72   N16   A    
C100  H47   S    
C111  H99   S    
C16   C23   S    
N23   Ni3   S    
C108  H75   S    
C12   C76   A    
C106  H69   S    
O2    C94   S    
N20   Ni8   S    
C106  H70   S    
C31   C35   A    
N25   Ni6   S    
N21   Ni1   S    
O22   C106  S    
C41   O13   S    
O28   H80   S    
C74   N18   A    
C32   C36   A    
C30   O6    S    
C15   C71   A    
C47   N7    A    
C86   N30   A    
C40   O12   S    
O41   C109  S    
C45   N5    A    
C81   H13   S    
C71   H11   S    
C65   O29   S    
C15   C24   S    
C1    C89   A    
C6    C46   A    
C56   O20   S    
N11   N19   A    
C24   H8    S    
C109  H94   S    
C25   C31   A    
C4    N4    A    
C111  H101  S    
N5    N25   A    
C18   H18   S    
N9    N17   A    
O12   C100  S    
C67   N11   A    
C3    H3    S    
C53   C58   A    
C70   H10   S    
C57   C61   A    
C64   O24   S    
C19   H19   S    
C104  H59   S    
C79   N23   A    
C28   O4    S    
C59   C63   A    
C80   N24   A    
C56   C59   A    
C60   C64   A    
O34   H86   S    
N7    N27   A    
C99   H43   S    
C55   O19   S    
C19   C20   S    
C28   C30   A    
C94   H25   S    
O10   C98   S    
C34   C89   S    
C7    C51   S    
C98   H40   S    
C82   N26   A    
O6    H34   S    
C3    N3    A    
C33   C90   S    
C76   N20   A    
C13   C77   A    
C38   O10   S    
C10   C74   A    
C70   N14   A    
C54   O18   S    
O27   H79   S    
C13   C69   A    
C43   C51   A    
C73   N17   A    
O32   H84   S    
C35   C39   A    
C95   H28   S    
C107  H71   S    
C112  H104  S    
C83   H15   S    
C13   C22   S    
C26   O2    S    
C96   H32   S    
C82   H14   S    
N1    N29   A    
C27   C51   A    
C100  H46   S    
C66   N10   A    
C97   H38   S    
C46   O26   S    
C98   H41   S    
O3    C95   S    
N13   Ni6   S    
C103  H56   S    
C25   C49   A    
O8    H36   S    
C12   C60   S    
C110  H96   S    
O44   C112  S    
C9    C57   S    
C84   H16   S    
C87   N31   A    
C103  H55   S    
C84   N28   A    
C109  H95   S    
C2    C90   A    
O7    H35   S    
C108  H76   S    
C102  H53   S    
N9    Ni2   S    
N5    Ni5   S    
C79   O39   S    
C16   C80   A    
O1    C93   S    
N6    N26   A    
O5    H33   S    
C53   O17   S    
N10   N18   A    
C68   O32   S    
O30   H82   S    
O37   H89   S    
C7    C47   A    
C69   H9    S    
C54   C57   A    
C99   H44   S    
