data_mof_unit_43678.cif
_audit_creation_date              2012-12-11T16:26:32-0500
_audit_creation_method            fapswitch 2.2
_symmetry_space_group_name_H-M    P1
_symmetry_Int_Tables_number       1
_space_group_crystal_system       triclinic
_cell_length_a                    13.971102
_cell_length_b                    13.970998
_cell_length_c                    31.958191
_cell_angle_alpha                 90.000561
_cell_angle_beta                  89.99913
_cell_angle_gamma                 119.999834
_cell_volume                      5402.21220721

loop_
_atom_site_label
_atom_site_type_symbol
_atom_type_description
_atom_site_fract_x
_atom_site_fract_y
_atom_site_fract_z
_atom_type_partial_charge
Br1   Br    Br    0.099775 0.739557 0.045319 -0.283152
Br2   Br    Br    0.739632 0.099840 0.954668 -0.283092
Br3   Br    Br    0.902447 0.642794 0.545842 -0.280482
Br4   Br    Br    0.360164 0.260592 0.954698 -0.283057
Br5   Br    Br    0.936737 0.299723 0.168260 -0.280810
Br6   Br    Br    0.361298 0.061945 0.332153 -0.280939
Br7   Br    Br    0.700258 0.636963 0.168265 -0.280834
Br8   Br    Br    0.937943 0.299382 0.332116 -0.280952
Br9   Br    Br    0.362943 0.063236 0.168282 -0.280799
Br10  Br    Br    0.700629 0.638677 0.332153 -0.280939
Br11  Br    Br    0.299424 0.937975 0.667816 -0.280979
Br12  Br    Br    0.643174 0.903025 0.454128 -0.280137
Br13  Br    Br    0.063089 0.362765 0.831776 -0.280860
Br14  Br    Br    0.638670 0.700600 0.667795 -0.280945
Br15  Br    Br    0.299708 0.936841 0.831788 -0.280846
Br16  Br    Br    0.061924 0.361331 0.667790 -0.280972
Br17  Br    Br    0.637084 0.700308 0.831721 -0.280868
Br18  Br    Br    0.905146 0.267729 0.064830 -0.248039
Br19  Br    Br    0.361660 0.093054 0.435613 -0.247684
Br20  Br    Br    0.732299 0.637522 0.064832 -0.248142
Br21  Br    Br    0.906396 0.268530 0.435555 -0.247926
Br22  Br    Br    0.362603 0.094953 0.064862 -0.248108
Br23  Br    Br    0.260475 0.360412 0.045285 -0.283263
Br24  Br    Br    0.731392 0.638078 0.435602 -0.247925
Br25  Br    Br    0.268707 0.906755 0.564359 -0.247779
Br26  Br    Br    0.094463 0.362222 0.935210 -0.247761
Br27  Br    Br    0.638219 0.731264 0.564335 -0.247836
Br28  Br    Br    0.267819 0.905505 0.935227 -0.247874
Br29  Br    Br    0.092922 0.361665 0.564324 -0.247658
Br30  Br    Br    0.637539 0.732370 0.935148 -0.248121
Br31  Br    Br    0.097426 0.740176 0.454176 -0.280481
Br32  Br    Br    0.639980 0.900540 0.045315 -0.283003
Br33  Br    Br    0.259793 0.356978 0.454141 -0.280339
Br34  Br    Br    0.740408 0.097983 0.545816 -0.280839
Br35  Br    Br    0.900558 0.640079 0.954659 -0.282930
Br36  Br    Br    0.357264 0.259617 0.545845 -0.280626
C1    C     C_R   0.566112 0.444973 0.810131 0.555406
C2    C     C_R   0.444966 0.566113 0.189867 0.555416
C3    C     C_1   0.888595 0.622871 0.641938 0.322870
C4    C     C_1   0.734617 0.113286 0.858540 0.322187
C5    C     C_1   0.377172 0.265693 0.641938 0.322837
C6    C     C_1   0.622929 0.888713 0.358045 0.322851
C7    C     C_1   0.113430 0.734657 0.141438 0.322111
C8    C     C_1   0.265739 0.377143 0.358058 0.322815
C9    C     C_1   0.621200 0.886543 0.141425 0.322033
C10   C     C_1   0.111525 0.734287 0.358090 0.322801
C11   C     C_1   0.265334 0.378852 0.141409 0.322085
C12   C     C_R   0.433922 0.878905 0.310124 0.555393
C13   C     C_R   0.121141 0.555032 0.189868 0.555411
C14   C     C_1   0.003982 0.495032 0.018709 0.142837
C15   C     C_1   0.492511 0.996232 0.481271 0.141788
C16   C     C_1   0.505013 0.509130 0.018696 0.142821
C17   C     C_1   0.003653 0.496197 0.481265 0.141816
C18   C     C_1   0.491146 0.996224 0.018724 0.142816
C19   C     C_1   0.503704 0.507454 0.481273 0.141739
C20   C     C_1   0.496433 0.004104 0.518688 0.141836
C21   C     C_R   0.878887 0.433913 0.689871 0.555412
C22   C     C_1   0.995954 0.491021 0.981299 0.142795
C23   C     C_1   0.507643 0.503529 0.518690 0.141771
C24   C     C_1   0.495153 0.004255 0.981314 0.142804
C25   C     C_1   0.995795 0.492265 0.518682 0.141829
C26   C     C_1   0.509028 0.505107 0.981286 0.142796
C27   C     C_R   0.938313 0.474434 0.850748 -0.056273
C28   C     C_R   0.536171 0.061544 0.649277 -0.056514
C29   C     C_R   0.525569 0.463903 0.850743 -0.056265
C30   C     C_R   0.938451 0.474615 0.649275 -0.056534
C31   C     C_R   0.536142 0.061715 0.850751 -0.056263
C32   C     C_R   0.555032 0.121142 0.810132 0.555414
C33   C     C_R   0.525369 0.463830 0.649280 -0.056523
C34   C     C_R   0.474672 0.938565 0.350700 -0.056548
C35   C     C_R   0.061683 0.536134 0.149256 -0.056250
C36   C     C_R   0.463873 0.525332 0.350704 -0.056535
C37   C     C_R   0.474458 0.938342 0.149259 -0.056260
C38   C     C_R   0.061439 0.536121 0.350701 -0.056524
C39   C     C_R   0.463862 0.525579 0.149249 -0.056237
C40   C     C_R   0.920641 0.547598 0.876119 -0.067701
C41   C     C_R   0.627087 0.078503 0.624106 -0.067837
C42   C     C_R   0.452485 0.373087 0.876133 -0.067733
C43   C     C_R   0.566084 0.444974 0.689873 0.555417
C44   C     C_R   0.921590 0.548664 0.624115 -0.067820
C45   C     C_R   0.626991 0.079452 0.876123 -0.067724
C46   C     C_R   0.451337 0.372919 0.624120 -0.067813
C47   C     C_R   0.548798 0.921816 0.375858 -0.067797
C48   C     C_R   0.079448 0.626977 0.123874 -0.067709
C49   C     C_R   0.372990 0.451255 0.375866 -0.067811
C50   C     C_R   0.547567 0.920621 0.123873 -0.067702
C51   C     C_R   0.078315 0.627003 0.375879 -0.067820
C52   C     C_R   0.373025 0.452550 0.123855 -0.067710
C53   C     C_R   0.940023 0.552648 0.919261 0.131026
C54   C     C_R   0.878855 0.433887 0.810133 0.555400
C55   C     C_R   0.613227 0.059214 0.580948 0.130827
C56   C     C_R   0.447466 0.387464 0.919274 0.131023
C57   C     C_R   0.940913 0.554127 0.580958 0.130854
C58   C     C_R   0.612695 0.060195 0.919272 0.131011
C59   C     C_R   0.445863 0.386774 0.580964 0.130829
C60   C     C_R   0.554369 0.941299 0.419006 0.130931
C61   C     C_R   0.060093 0.612638 0.080732 0.131025
C62   C     C_R   0.386897 0.445692 0.419014 0.130874
C63   C     C_R   0.552648 0.940084 0.080737 0.131060
C64   C     C_R   0.058841 0.613067 0.419025 0.130892
C65   C     C_R   0.555024 0.121108 0.689873 0.555422
C66   C     C_R   0.387380 0.447591 0.080712 0.131029
C67   C     C_R   0.984711 0.491551 0.936743 0.001334
C68   C     C_R   0.507732 0.015159 0.563264 0.000839
C69   C     C_R   0.508486 0.493284 0.936733 0.001359
C70   C     C_R   0.984796 0.492547 0.563259 0.000811
C71   C     C_R   0.506911 0.015476 0.936758 0.001347
C72   C     C_R   0.507389 0.492247 0.563267 0.000799
C73   C     C_R   0.492768 0.985172 0.436695 0.000769
C74   C     C_R   0.015257 0.506824 0.063263 0.001409
C75   C     C_R   0.492385 0.507211 0.436699 0.000765
C76   C     C_R   0.444980 0.566080 0.310124 0.555419
C77   C     C_R   0.491662 0.984920 0.063276 0.001403
C78   C     C_R   0.014752 0.507549 0.436691 0.000823
C79   C     C_R   0.493202 0.508581 0.063249 0.001396
C80   C     C_R   0.020100 0.433958 0.910951 0.173718
C81   C     C_R   0.414517 0.980332 0.588879 0.173346
C82   C     C_R   0.565971 0.586237 0.910921 0.173722
C83   C     C_R   0.019521 0.434055 0.588861 0.173333
C84   C     C_R   0.413914 0.979972 0.910965 0.173712
C85   C     C_R   0.565869 0.585467 0.588870 0.173297
C86   C     C_R   0.434164 0.019754 0.411088 0.173263
C87   C     C_R   0.433888 0.878855 0.189867 0.555398
C88   C     C_R   0.979749 0.413849 0.089068 0.173775
C89   C     C_R   0.585574 0.565745 0.411087 0.173263
C90   C     C_R   0.434144 0.020357 0.089086 0.173760
C91   C     C_R   0.980024 0.414374 0.411064 0.173322
C92   C     C_R   0.586169 0.565996 0.089062 0.173734
C93   C     C_R   0.999177 0.427301 0.867688 0.173684
C94   C     C_R   0.428339 0.001250 0.632151 0.173323
C95   C     C_R   0.572633 0.571918 0.867661 0.173741
C96   C     C_R   0.998655 0.426991 0.632135 0.173321
C97   C     C_R   0.428160 0.000841 0.867698 0.173714
C98   C     C_R   0.121096 0.555019 0.310124 0.555415
C99   C     C_R   0.572966 0.571659 0.632142 0.173301
C100  C     C_R   0.427046 0.998788 0.367822 0.173337
C101  C     C_R   0.000716 0.428135 0.132329 0.173746
C102  C     C_R   0.571721 0.572907 0.367823 0.173319
C103  C     C_R   0.427426 0.999325 0.132343 0.173755
C104  C     C_R   0.001085 0.428262 0.367801 0.173337
C105  C     C_R   0.571867 0.572617 0.132325 0.173758
C106  C     C_1   0.886682 0.621304 0.858546 0.322089
C107  C     C_1   0.734310 0.111545 0.641918 0.322856
C108  C     C_1   0.378799 0.265398 0.858578 0.322060
Cr1   Cr    Cr6+3 0.504240 0.249200 0.750000 1.131057
Cr2   Cr    Cr6+3 0.744960 0.495760 0.750000 1.131056
Cr3   Cr    Cr6+3 0.750800 0.255040 0.750000 1.131056
Cr4   Cr    Cr6+3 0.249200 0.504240 0.250000 1.131078
Cr5   Cr    Cr6+3 0.495760 0.744960 0.250000 1.131073
Cr6   Cr    Cr6+3 0.255040 0.750800 0.250000 1.131081
N1    N     N_1   0.861100 0.681656 0.844633 -0.128976
N2    N     N_1   0.681502 0.860873 0.155319 -0.129019
N3    N     N_1   0.136514 0.819890 0.343988 -0.128204
N4    N     N_1   0.179378 0.318490 0.155304 -0.128973
N5    N     N_1   0.819858 0.136398 0.656040 -0.128182
N6    N     N_1   0.318454 0.179447 0.844678 -0.128962
N7    N     N_1   0.863771 0.683583 0.656068 -0.128181
N8    N     N_1   0.820514 0.138757 0.844617 -0.128889
N9    N     N_1   0.316486 0.180135 0.656059 -0.128213
N10   N     N_1   0.683575 0.863792 0.343922 -0.128207
N11   N     N_1   0.139021 0.820600 0.155343 -0.128974
N12   N     N_1   0.180161 0.316502 0.343942 -0.128234
O1    O     O_R   0.480350 0.140770 0.796330 -0.450645
O2    O     O_R   0.140770 0.480350 0.203670 -0.450657
O3    O     O_R   0.519650 0.660420 0.296330 -0.450521
O4    O     O_R   0.339580 0.859230 0.203670 -0.450655
O5    O     O_R   0.514930 0.348530 0.793250 -0.502709
O6    O     O_R   0.833600 0.485070 0.706750 -0.502894
O7    O     O_R   0.651470 0.166400 0.793250 -0.502738
O8    O     O_R   0.514930 0.348530 0.706750 -0.502906
O9    O     O_R   0.833600 0.485070 0.793250 -0.502722
O10   O     O_R   0.651470 0.166400 0.706750 -0.502893
O11   O     O_R   0.348530 0.514930 0.293250 -0.502890
O12   O     O_R   0.660420 0.519650 0.703670 -0.450537
O13   O     O_R   0.485070 0.833600 0.206750 -0.502721
O14   O     O_R   0.166400 0.651470 0.293250 -0.502878
O15   O     O_R   0.348530 0.514930 0.206750 -0.502722
O16   O     O_R   0.485070 0.833600 0.293250 -0.502888
O17   O     O_R   0.166400 0.651470 0.206750 -0.502732
O18   O     O_3   0.666667 0.333333 0.750000 -0.288421
O19   O     O_3   0.333333 0.666667 0.250000 -0.288425
O20   O     O_R   0.859230 0.339580 0.796330 -0.450665
O21   O     O_R   0.480350 0.140770 0.703670 -0.450546
O22   O     O_R   0.660420 0.519650 0.796330 -0.450665
O23   O     O_R   0.859230 0.339580 0.703670 -0.450537
O24   O     O_R   0.140770 0.480350 0.296330 -0.450526
O25   O     O_R   0.519650 0.660420 0.203670 -0.450657
O26   O     O_R   0.339580 0.859230 0.296330 -0.450517

loop_
_geom_bond_atom_site_label_1
_geom_bond_atom_site_label_2
_ccdc_geom_bond_type
Cr6   O14   S    
C36   C76   S    
Br19  C86   S    
Cr4   O15   S    
C78   C91   A    
C19   C23   T    
C70   C83   A    
Br17  C95   S    
C28   C41   A    
C98   O24   A    
C21   C30   S    
C12   O16   A    
C36   C49   A    
Br27  C85   S    
C9    C50   S    
C35   C101  A    
C21   O6    A    
C18   C24   T    
C37   C103  A    
Cr3   O23   S    
Br29  C83   S    
C98   O14   A    
C48   C61   A    
C43   O8    A    
C4    N8    T    
C31   C97   A    
C12   O26   A    
C29   C42   A    
Cr6   O26   S    
C73   C86   A    
Br22  C90   S    
Br23  C66   S    
C27   C40   A    
C5    C46   S    
Cr4   O24   S    
C2    O25   A    
Cr6   O4    S    
C18   C77   S    
Cr2   O12   S    
C14   C74   S    
C27   C54   S    
C65   O10   A    
C84   C97   A    
C51   C64   A    
Br34  C55   S    
C13   O2    A    
Br6   C100  S    
C66   C79   A    
C39   C105  A    
C74   C88   A    
C5    N9    T    
C87   O4    A    
C17   C25   T    
Cr3   O18   S    
C80   C93   A    
Br33  C62   S    
Cr4   O19   S    
C37   C87   S    
C1    C29   S    
C54   O9    A    
C75   C89   A    
C49   C62   A    
C38   C51   A    
Br21  C91   S    
Cr5   O25   S    
C92   C105  A    
C55   C68   A    
C21   O23   A    
C65   O21   A    
C32   O1    A    
C40   C53   A    
C36   C102  A    
C76   O11   A    
C33   C99   A    
C2    O15   A    
Cr2   O9    S    
C53   C67   A    
C34   C100  A    
C7    C48   S    
C43   O12   A    
C8    N12   T    
C29   C95   A    
Cr6   O19   S    
C30   C96   A    
C2    C39   S    
C28   C65   S    
C58   C71   A    
Cr4   O11   S    
C45   C58   A    
C90   C103  A    
Cr2   O18   S    
C31   C32   S    
Cr4   O2    S    
Br20  C92   S    
C54   O20   A    
C88   C101  A    
Br2   C58   S    
Cr5   O3    S    
C20   C68   S    
C1    O5    A    
Br28  C84   S    
Br1   C61   S    
C26   C69   S    
C62   C75   A    
C77   C90   A    
Cr1   O1    S    
C42   C56   A    
C1    O22   A    
C38   C104  A    
Cr5   O19   S    
C79   C92   A    
Cr5   O13   S    
C14   C22   T    
C106  N1    T    
C108  N6    T    
C41   C107  S    
C34   C47   A    
C42   C108  S    
C57   C70   A    
C32   O7    A    
C39   C52   A    
C107  N5    T    
C87   O13   A    
C83   C96   A    
C64   C78   A    
Br3   C57   S    
C81   C94   A    
Br31  C64   S    
C85   C99   A    
C50   C63   A    
C86   C100  A    
C24   C71   S    
C72   C85   A    
C7    N11   T    
Cr3   O20   S    
Br35  C53   S    
C28   C94   A    
C31   C45   A    
Br24  C89   S    
C69   C82   A    
C33   C43   S    
C91   C104  A    
C8    C49   S    
Br11  C94   S    
C25   C70   S    
C71   C84   A    
Br7   C105  S    
Cr3   O10   S    
C35   C48   A    
Cr1   O5    S    
C16   C79   S    
C10   N3    T    
Cr2   O6    S    
Cr1   O8    S    
C41   C55   A    
C46   C59   A    
C19   C75   S    
C4    C45   S    
C6    N10   T    
C6    C47   S    
C15   C20   T    
C12   C34   S    
Br25  C81   S    
C63   C77   A    
C52   C66   A    
Br5   C101  S    
Br15  C97   S    
C11   N4    T    
C89   C102  A    
C30   C44   A    
C60   C73   A    
Cr1   O21   S    
C23   C72   S    
Br32  C63   S    
Cr2   O22   S    
Br8   C104  S    
C9    N2    T    
C11   C52   S    
C67   C80   A    
C76   O3    A    
C16   C26   T    
C3    C44   S    
C61   C74   A    
Br9   C103  S    
Br36  C59   S    
C82   C95   A    
C47   C60   A    
C38   C98   S    
Cr1   O18   S    
Cr5   O16   S    
C33   C46   A    
C27   C93   A    
Br16  C96   S    
Br26  C80   S    
C37   C50   A    
C59   C72   A    
C56   C69   A    
C15   C73   S    
C13   C35   S    
C10   C51   S    
Br30  C82   S    
Br13  C93   S    
Br12  C60   S    
C17   C78   S    
C22   C67   S    
Br10  C102  S    
Br4   C56   S    
C44   C57   A    
C68   C81   A    
C3    N7    T    
Br14  C99   S    
Cr3   O7    S    
Br18  C88   S    
Cr6   O17   S    
C13   O17   A    
C40   C106  S    
