data_mof_unit_65679.cif
_audit_creation_date              2012-12-10T21:03:47-0500
_audit_creation_method            fapswitch 2.2
_symmetry_space_group_name_H-M    P1
_symmetry_Int_Tables_number       1
_space_group_crystal_system       triclinic
_cell_length_a                    15.865028
_cell_length_b                    15.068355
_cell_length_c                    23.446848
_cell_angle_alpha                 90.088524
_cell_angle_beta                  89.897826
_cell_angle_gamma                 89.910999
_cell_volume                      5605.17813921

loop_
_atom_site_label
_atom_site_type_symbol
_atom_type_description
_atom_site_fract_x
_atom_site_fract_y
_atom_site_fract_z
_atom_type_partial_charge
C1    C     C_R   0.338944 0.500056 0.500027 0.905579
C2    C     C_R   0.556045 0.558828 0.702834 0.273490
C3    C     C_R   0.444483 0.442061 0.237582 0.382612
C4    C     C_R   0.555412 0.557938 0.762436 0.382598
C5    C     C_R   0.497372 0.501382 0.208604 -0.093680
C6    C     C_R   0.502517 0.498602 0.791397 -0.093680
C7    C     C_R   0.955845 0.522266 0.550216 0.329343
C8    C     C_R   0.044155 0.477731 0.449783 0.329344
C9    C     C_R   0.043676 0.522347 0.550255 0.328299
C10   C     C_R   0.956324 0.477651 0.449744 0.328296
C11   C     C_R   0.912985 0.499905 0.499963 -0.221946
C12   C     C_R   0.661056 0.499944 0.499973 0.905572
C13   C     C_R   0.087015 0.500093 0.500036 -0.221948
C14   C     C_1   0.823993 0.499833 0.499937 0.200030
C15   C     C_1   0.176006 0.500165 0.500062 0.200033
C16   C     C_1   0.250736 0.500162 0.500050 -0.038833
C17   C     C_1   0.749264 0.499838 0.499950 -0.038848
C18   C     C_R   0.498759 0.499904 0.389195 1.035172
C19   C     C_R   0.501236 0.500096 0.610805 1.035156
C20   C     C_R   0.481867 0.953015 0.449952 0.551947
C21   C     C_R   0.518133 0.046985 0.550049 0.551949
C22   C     C_R   0.518153 0.953189 0.550046 0.555726
C23   C     C_R   0.549316 0.560223 0.238528 0.343864
C24   C     C_R   0.481847 0.046811 0.449954 0.555726
C25   C     C_R   0.500016 0.905052 0.499998 -0.452528
C26   C     C_R   0.499984 0.094948 0.500002 -0.452529
C27   C     C_1   0.500011 0.807150 0.500000 0.444854
C28   C     C_1   0.499989 0.192850 0.500000 0.444862
C29   C     C_R   0.556301 0.444001 0.880259 0.711850
C30   C     C_R   0.443560 0.555955 0.119742 0.711861
C31   C     C_R   0.446313 0.552481 0.879765 0.707322
C32   C     C_R   0.553537 0.447464 0.120236 0.707308
C33   C     C_R   0.444387 0.554426 0.939392 -0.215265
C34   C     C_R   0.450600 0.439756 0.761457 0.343873
C35   C     C_R   0.555450 0.445505 0.060609 -0.215261
C36   C     C_R   0.500475 0.499253 0.969908 -0.111687
C37   C     C_R   0.499361 0.500678 0.030093 -0.111688
C38   C     C_R   0.557565 0.442795 0.940302 -0.194143
C39   C     C_R   0.442275 0.557139 0.059699 -0.194147
C40   C     C_R   0.388047 0.610128 0.968868 0.665886
C41   C     C_R   0.611776 0.389787 0.031133 0.665887
C42   C     C_R   0.386528 0.611970 0.028230 0.334969
C43   C     C_R   0.613295 0.387946 0.971771 0.334967
C44   C     C_R   0.548986 0.559493 0.297744 0.571048
C45   C     C_R   0.450964 0.440493 0.702241 0.571038
C46   C     C_R   0.497016 0.499819 0.327219 -0.427758
C47   C     C_R   0.502944 0.500178 0.672782 -0.427761
C48   C     C_R   0.443884 0.441178 0.297184 0.273479
Cl1   Cl    Cl    0.312480 0.685207 0.059660 -0.257020
Cl2   Cl    Cl    0.900718 0.449745 0.386875 -0.372238
Cl3   Cl    Cl    0.899623 0.550160 0.613019 -0.355456
Cl4   Cl    Cl    0.100377 0.449837 0.386981 -0.355434
Cl5   Cl    Cl    0.687316 0.314676 0.940342 -0.257017
Cl6   Cl    Cl    0.615576 0.634738 0.202010 -0.336527
Cl7   Cl    Cl    0.384333 0.365222 0.797953 -0.336527
Cl8   Cl    Cl    0.373376 0.369820 0.333406 -0.357595
Cl9   Cl    Cl    0.626561 0.630206 0.666634 -0.357550
Cl10  Cl    Cl    0.378913 0.369549 0.198525 -0.339810
Cl11  Cl    Cl    0.620950 0.630455 0.801515 -0.339822
Cl12  Cl    Cl    0.099282 0.550252 0.613124 -0.372244
F1    F     F_    0.333640 0.663642 0.940186 -0.508917
F2    F     F_    0.666171 0.336260 0.059814 -0.508916
F3    F     F_    0.600782 0.615529 0.326578 -0.554481
F4    F     F_    0.399193 0.384451 0.673391 -0.554490
F5    F     F_    0.464048 0.090692 0.400897 -0.525947
F6    F     F_    0.535952 0.909308 0.599103 -0.525944
F7    F     F_    0.535903 0.091036 0.599112 -0.532143
F8    F     F_    0.464097 0.908964 0.400888 -0.532147
N1    N     N_R   0.501555 0.498179 0.852134 -0.329631
N2    N     N_R   0.498311 0.501783 0.147867 -0.329630
N3    N     N_1   0.500000 0.270550 0.500000 -0.073023
N4    N     N_1   0.500000 0.729450 0.500000 -0.073029
O1    O     O_R   0.378020 0.573650 0.500020 -0.620964
O2    O     O_2   0.391079 0.607766 0.150480 -0.416862
O3    O     O_2   0.393769 0.604281 0.849117 -0.388107
O4    O     O_2   0.606082 0.395665 0.150884 -0.388118
O5    O     O_R   0.621980 0.426350 0.499980 -0.620957
O6    O     O_R   0.621980 0.573650 0.499980 -0.584423
O7    O     O_R   0.378020 0.426350 0.500020 -0.584405
O8    O     O_R   0.499980 0.573680 0.416160 -0.569726
O9    O     O_R   0.500020 0.426320 0.583840 -0.569713
O10   O     O_R   0.500020 0.573680 0.583840 -0.585267
O11   O     O_R   0.499980 0.426320 0.416160 -0.585268
O12   O     O_2   0.608801 0.392213 0.849521 -0.416873
Zn1   Zn    Zn3+2 0.500000 0.598370 0.500000 1.121982
Zn2   Zn    Zn3+2 0.500000 0.401630 0.500000 1.121998

loop_
_geom_bond_atom_site_label_1
_geom_bond_atom_site_label_2
_ccdc_geom_bond_type
C6    N1    S    
C21   C26   A    
C8    C13   A    
N4    Zn1   S    
C2    Cl9   S    
C7    C11   A    
C5    N2    S    
C36   C37   A    
C35   C37   A    
C24   C26   A    
C30   O2    S    
C11   C14   S    
C19   C47   S    
C20   C25   A    
C15   C16   T    
C3    C48   A    
C33   C36   A    
C48   Cl8   S    
C9    C13   A    
C22   F6    S    
C43   Cl5   S    
C20   C24   A    
C22   C25   A    
C12   O6    A    
C12   C17   S    
C31   C33   A    
C19   O10   A    
C8    Cl4   S    
O9    Zn2   S    
C40   C42   A    
C34   Cl7   S    
C21   C22   A    
C21   F7    S    
C41   C43   A    
C14   C17   T    
C41   F2    S    
C18   C46   S    
C30   N2    A    
C44   C46   A    
C39   C42   A    
C29   N1    A    
C45   C47   A    
C44   F3    S    
C46   C48   A    
C33   C40   A    
C32   C35   A    
C29   O12   S    
C4    C6    A    
C34   C45   A    
C32   N2    A    
C23   C44   A    
C6    C34   A    
C29   C38   A    
C2    C4    A    
O8    Zn1   S    
N3    Zn2   S    
C31   O3    S    
C5    C23   A    
C12   O5    A    
C18   O11   A    
C1    C16   S    
O1    Zn1   S    
C24   F5    S    
O6    Zn1   S    
C8    C10   A    
O5    Zn2   S    
C13   C15   S    
C1    O7    A    
C28   N3    T    
C10   Cl2   S    
C23   Cl6   S    
C7    C9    A    
C20   F8    S    
C3    C5    A    
C32   O4    S    
C2    C47   A    
C25   C27   S    
O10   Zn1   S    
C45   F4    S    
C26   C28   S    
C9    Cl12  S    
C1    O1    A    
C36   C38   A    
C7    Cl3   S    
C38   C43   A    
C37   C39   A    
C4    Cl11  S    
C30   C39   A    
C35   C41   A    
C10   C11   A    
C40   F1    S    
C42   Cl1   S    
C3    Cl10  S    
C31   N1    A    
O11   Zn2   S    
C18   O8    A    
C19   O9    A    
O7    Zn2   S    
C27   N4    T    
