data_mof_unit_30118.cif
_audit_creation_date              2012-12-10T18:57:11-0500
_audit_creation_method            fapswitch 2.2
_symmetry_space_group_name_H-M    P1
_symmetry_Int_Tables_number       1
_space_group_crystal_system       triclinic
_cell_length_a                    8.732876
_cell_length_b                    10.812197
_cell_length_c                    9.557654
_cell_angle_alpha                 90.422321
_cell_angle_beta                  97.559345
_cell_angle_gamma                 90.289408
_cell_volume                      894.564887807

loop_
_atom_site_label
_atom_site_type_symbol
_atom_type_description
_atom_site_fract_x
_atom_site_fract_y
_atom_site_fract_z
_atom_type_partial_charge
C1    C     C_R   0.491258 0.262483 0.498627 0.775469
C2    C     C_R   0.411369 0.931418 0.379427 -0.177109
C3    C     C_R   0.481618 0.870384 0.500192 -0.137436
C4    C     C_R   0.520757 0.938175 0.624094 0.138040
C5    C     C_3   0.663862 0.936350 0.728507 -0.469830
C6    C     C_3   0.660839 0.076791 0.725397 -0.430750
C7    C     C_R   0.574585 0.591604 0.083218 0.174473
C8    C     C_R   0.412909 0.417949 0.063020 -0.047820
C9    C     C_R   0.413080 0.417700 0.914352 -0.061834
C10   C     C_R   0.575063 0.591251 0.935821 0.246485
C11   C     C_3   0.743287 0.621234 0.949754 -0.566891
C12   C     C_R   0.204139 0.498526 0.464209 0.867622
C13   C     C_3   0.742831 0.621605 0.108712 -0.237539
C14   C     C_R   0.497979 0.737574 0.500247 0.832873
C15   C     C_R   0.796046 0.499920 0.536043 0.901626
C16   C     C_2   0.038818 0.494296 0.445045 -0.307115
C17   C     C_2   0.961806 0.501339 0.556296 -0.358302
C18   C     C_R   0.517646 0.064955 0.622037 0.135460
C19   C     C_R   0.470608 0.129021 0.497790 -0.192886
C20   C     C_R   0.400411 0.061167 0.378298 -0.016976
Cu1   Cu    Cu3+1 0.499990 0.499980 0.640670 0.950379
Cu2   Cu    Cu3+1 0.500010 0.500020 0.359330 0.959458
H1    H     H_    0.980538 0.484168 0.338515 0.164944
H2    H     H_    0.344943 0.349469 0.849916 0.146869
H3    H     H_    0.812641 0.544357 0.913314 0.219796
H4    H     H_    0.766346 0.712607 0.904382 0.186245
H5    H     H_    0.812257 0.545572 0.160973 0.186251
H6    H     H_    0.020751 0.509387 0.663534 0.169436
H7    H     H_    0.364702 0.878098 0.286942 0.198299
H8    H     H_    0.641274 0.898660 0.831697 0.195078
H9    H     H_    0.764311 0.895730 0.684538 0.205553
H10   H     H_    0.637816 0.119188 0.826831 0.209578
H11   H     H_    0.758915 0.118246 0.678347 0.196293
H12   H     H_    0.343963 0.350531 0.109345 0.141648
N1    N     N_R   0.500980 0.500930 0.148050 -0.196171
N2    N     N_R   0.500990 0.500890 0.852140 -0.184358
O1    O     O_R   0.500000 0.319640 0.618810 -0.578562
O2    O     O_R   0.500020 0.319680 0.381230 -0.596613
O3    O     O_R   0.274830 0.499980 0.591380 -0.582920
O4    O     O_R   0.274850 0.500020 0.353800 -0.591940
O5    O     O_R   0.499980 0.680320 0.618770 -0.576355
O6    O     O_R   0.500000 0.680360 0.381190 -0.580882
O7    O     O_R   0.725150 0.499980 0.646200 -0.592475
O8    O     O_R   0.725170 0.500020 0.408620 -0.567475
C21   C     C_2   0.773361 0.746541 0.176751 0.451387
H13   H     H_    0.709743 0.826911 0.134202 0.063120
O9    O     O_2   0.869653 0.758405 0.280764 -0.545000
C22   C     C_2   0.310694 0.122098 0.255823 0.379281
H14   H     H_    0.262103 0.212939 0.267987 0.061138
O10   O     O_2   0.286263 0.070153 0.141087 -0.559560

loop_
_geom_bond_atom_site_label_1
_geom_bond_atom_site_label_2
_ccdc_geom_bond_type
C12   O4    A    
C7    C10   A    
C6    H10   S    
C9    H2    S    
Cu1   O7    S    
C9    N2    A    
C19   C20   A    
Cu1   O3    S    
C6    H11   S    
C1    O1    A    
C14   O6    A    
Cu2   O4    S    
C12   O3    A    
C22   O10   D    
C2    C3    A    
C8    C9    A    
C4    C18   A    
Cu1   N2    S    
C8    H12   S    
Cu1   Cu2   S    
C13   C21   S    
Cu2   N1    S    
C11   C13   S    
Cu2   O6    S    
C3    C14   S    
C1    O2    A    
C14   O5    A    
Cu1   O5    S    
C22   H14   S    
C15   O8    A    
C18   C19   A    
C16   H1    S    
C2    H7    S    
C5    C6    S    
C6    C18   S    
Cu2   O8    S    
C1    C19   S    
C10   C11   S    
C11   H3    S    
C15   O7    A    
C3    C4    A    
Cu2   O2    S    
C7    C13   S    
Cu1   O1    S    
C5    H8    S    
C21   O9    D    
C15   C17   S    
C2    C20   A    
C4    C5    S    
C10   N2    A    
C20   C22   S    
C11   H4    S    
C21   H13   S    
C17   H6    S    
C7    N1    A    
C13   H5    S    
C12   C16   S    
C16   C17   D    
C5    H9    S    
C8    N1    A    
