data_mof_unit_15569.cif
_audit_creation_date              2012-12-11T15:48:02-0500
_audit_creation_method            fapswitch 2.2
_symmetry_space_group_name_H-M    P1
_symmetry_Int_Tables_number       1
_space_group_crystal_system       triclinic
_cell_length_a                    6.931222
_cell_length_b                    17.792544
_cell_length_c                    19.361266
_cell_angle_alpha                 108.495442
_cell_angle_beta                  88.981564
_cell_angle_gamma                 90.655027
_cell_volume                      2263.98232742

loop_
_atom_site_label
_atom_site_type_symbol
_atom_type_description
_atom_site_fract_x
_atom_site_fract_y
_atom_site_fract_z
_atom_type_partial_charge
O1    O     O_R   0.494330 0.415710 0.413720 -0.549311
O2    O     O_R   0.819360 0.430070 0.560210 -0.515925
O3    O     O_R   0.994320 0.584290 0.586280 -0.521370
C1    C     C_R   0.649048 0.416879 0.583770 0.877647
O4    O     O_R   0.823740 0.406290 0.412670 -0.544158
O5    O     O_R   0.998730 0.560340 0.437690 -0.551676
C2    C     C_R   0.654859 0.384702 0.383441 0.650871
O6    O     O_R   0.489920 0.439660 0.562310 -0.508826
O7    O     O_3   0.662330 0.550570 0.508380 -0.373997
V1    V     V_3+5 0.935370 0.490620 0.498440 1.593206
O8    O     O_R   0.328720 0.569930 0.439790 -0.559677
C3    C     C_R   0.161193 0.584988 0.418219 0.692883
O9    O     O_R   0.324340 0.593710 0.587330 -0.502019
C4    C     C_R   0.153890 0.615917 0.616251 0.832862
V2    V     V_3+5 0.435940 0.509380 0.501560 1.588095
O10   O     O_3   0.159110 0.449430 0.491620 -0.364090
C5    C     C_R   0.281925 0.744031 0.699391 -0.165329
H1    H     H_    0.393874 0.741038 0.658917 0.124599
C6    C     C_R   0.277167 0.809732 0.763058 -0.026206
C7    C     C_R   0.125954 0.817373 0.814955 -0.122387
C8    C     C_R   0.984328 0.758460 0.801394 -0.170732
H2    H     H_    0.868253 0.764294 0.840869 0.191986
C9    C     C_R   0.989434 0.692226 0.738591 0.343719
C10   C     C_R   0.140519 0.684042 0.685792 -0.159887
C11   C     C_R   0.307831 0.632801 0.319979 -0.203073
C12   C     C_R   0.154183 0.633761 0.368732 -0.070565
C13   C     C_R   0.991116 0.680105 0.368748 -0.214548
C14   C     C_R   0.982389 0.726080 0.321820 0.096152
C15   C     C_R   0.135373 0.723990 0.272226 0.114419
C16   C     C_R   0.297615 0.676385 0.270927 0.094812
C17   C     C_R   0.822105 0.773539 0.323161 -0.205175
C18   C     C_R   0.816601 0.821036 0.278055 -0.051699
C19   C     C_R   0.971259 0.822275 0.229979 -0.016265
C20   C     C_R   0.126055 0.769560 0.223992 -0.061879
C21   C     C_R   0.271850 0.762321 0.170366 -0.013447
C22   C     C_R   0.434401 0.715360 0.171009 -0.057769
C23   C     C_R   0.447197 0.673373 0.220705 -0.218052
C24   C     C_R   0.977391 0.875723 0.189048 0.324838
C25   C     C_R   0.110090 0.862540 0.129279 -0.331159
C26   C     C_R   0.250265 0.801373 0.117365 0.380487
H3    H     H_    0.433280 0.596584 0.318978 0.125127
H4    H     H_    0.871990 0.681366 0.406169 0.124761
H5    H     H_    0.700713 0.774272 0.359436 0.142321
H6    H     H_    0.687067 0.854868 0.279775 0.196006
H7    H     H_    0.556456 0.712501 0.134772 0.194126
H8    H     H_    0.574585 0.638233 0.219630 0.139959
C27   C     C_R   0.476815 0.187297 0.871849 -0.127343
C28   C     C_R   0.625431 0.133870 0.869164 -0.093630
C29   C     C_R   0.775023 0.124622 0.817172 -0.112751
C30   C     C_R   0.779543 0.169650 0.768519 -0.039428
C31   C     C_R   0.629209 0.224641 0.773201 0.041061
C32   C     C_R   0.475773 0.231272 0.823645 0.172127
C33   C     C_R   0.926126 0.160483 0.714319 0.450112
C34   C     C_R   0.926423 0.209534 0.669867 -0.229022
C35   C     C_R   0.780612 0.265425 0.675970 0.023655
C36   C     C_R   0.629098 0.272085 0.726613 0.017466
C37   C     C_R   0.476085 0.325479 0.730454 -0.007544
C38   C     C_R   0.315341 0.323382 0.775560 -0.082788
C39   C     C_R   0.317952 0.279031 0.823048 -0.161608
C40   C     C_R   0.781253 0.312563 0.630042 -0.163514
C41   C     C_R   0.636652 0.369191 0.635184 -0.189396
C42   C     C_R   0.486547 0.378558 0.688860 0.393485
H9    H     H_    0.358706 0.193558 0.910750 0.114227
H10   H     H_    0.884103 0.080998 0.814599 0.190355
H11   H     H_    0.039235 0.203137 0.629005 0.183716
H12   H     H_    0.895934 0.304902 0.589608 0.157121
H13   H     H_    0.183327 0.354140 0.773698 0.198390
H14   H     H_    0.193676 0.280726 0.858305 0.121319
C43   C     C_R   0.802200 0.269693 0.286357 -0.133221
H15   H     H_    0.935707 0.280069 0.316158 0.144803
C44   C     C_R   0.793925 0.207007 0.220934 -0.076389
H16   H     H_    0.923893 0.173715 0.201145 0.157998
C45   C     C_R   0.621068 0.187498 0.182056 -0.050583
C46   C     C_R   0.460580 0.236362 0.207345 -0.203958
H17   H     H_    0.328118 0.224460 0.176628 0.118291
C47   C     C_R   0.470757 0.302477 0.270502 -0.018447
C48   C     C_R   0.641406 0.318283 0.312917 -0.080875
O11   O     O_R   0.774940 0.060470 0.937800 -0.562202
O12   O     O_R   0.440880 0.093730 0.087350 -0.559903
O13   O     O_R   0.266130 0.939630 0.062280 -0.506901
C49   C     C_R   0.609721 0.117664 0.114741 0.742013
O14   O     O_R   0.445480 0.069960 0.939820 -0.548849
O15   O     O_R   0.270770 0.915690 0.913690 -0.523202
C50   C     C_R   0.615530 0.084742 0.918144 0.691108
O16   O     O_R   0.770300 0.084410 0.086380 -0.529782
O17   O     O_3   0.602600 0.949510 0.991670 -0.321764
V3    V     V_3+5 0.329470 0.009370 0.001550 1.581974
O18   O     O_R   0.940760 0.906160 0.912560 -0.550437
C51   C     C_R   0.111182 0.885208 0.883516 0.754401
O19   O     O_R   0.936150 0.929930 0.060100 -0.490708
C52   C     C_R   0.103892 0.913439 0.080692 0.911755
V4    V     V_3+5 0.828930 0.990450 0.998310 1.644425
O20   O     O_3   0.105670 0.050490 0.008320 -0.408668
S1    S     S_3+6 0.384370 0.767292 0.033590 0.020776
O21   O     O_2   0.277899 0.782758 0.972623 -0.344044
O22   O     O_2   0.576376 0.809095 0.042901 -0.318006
O23   O     O_3   0.420436 0.668971 0.010452 -0.497886
H18   H     H_    0.504224 0.655889 0.966298 0.396720
S2    S     S_3+6 0.100045 0.083787 0.695477 -0.003884
O24   O     O_2   0.241969 0.090157 0.637933 -0.309463
O25   O     O_2   0.207271 0.087937 0.763275 -0.369279
O26   O     O_3   0.984310 0.996079 0.665800 -0.487088
H19   H     H_    0.083602 0.955992 0.664419 0.362267
S3    S     S_3+6 0.322443 0.459588 0.709377 0.046038
O27   O     O_2   0.413011 0.529682 0.694549 -0.266226
O28   O     O_2   0.149289 0.432887 0.662183 -0.343452
O29   O     O_3   0.253446 0.489726 0.797690 -0.489411
H20   H     H_    0.169155 0.535961 0.803434 0.401220
C53   C     C_1   0.425280 0.869664 0.771766 0.337297
N1    N     N_1   0.544310 0.917498 0.778494 -0.329683
C54   C     C_1   0.307236 0.355168 0.287118 0.277668
N2    N     N_1   0.176808 0.397670 0.299981 -0.371089
S4    S     S_3+6 0.794863 0.625012 0.727832 0.075287
O30   O     O_2   0.868825 0.542164 0.710398 -0.285051
O31   O     O_2   0.671395 0.644023 0.795775 -0.287098
O32   O     O_3   0.660054 0.631890 0.659071 -0.455640
H21   H     H_    0.697062 0.682934 0.652085 0.280985
S5    S     S_3+6 0.843186 0.965642 0.219882 0.007023
O33   O     O_2   0.655659 0.955041 0.180039 -0.310260
O34   O     O_2   0.801583 0.989727 0.300417 -0.323309
O35   O     O_3   0.971051 0.038998 0.203502 -0.526867
H22   H     H_    0.089590 0.043899 0.232493 0.325911

loop_
_geom_bond_atom_site_label_1
_geom_bond_atom_site_label_2
_ccdc_geom_bond_type
O15   V3    S    
C35   C36   A    
C45   C46   A    
C43   C48   A    
C6    C7    A    
C1    O6    A    
O12   V3    S    
O23   H18   S    
O19   C52   A    
C37   C42   A    
C34   H11   S    
C33   C34   A    
C33   S2    S    
C12   C13   A    
C17   H5    S    
C8    H2    S    
C14   C15   A    
C31   C36   A    
O13   V3    S    
C27   H9    S    
C24   C25   A    
C4    C10   S    
O14   V3    S    
V3    O20   S    
C36   C37   A    
C5    H1    S    
C20   C21   A    
C25   C52   S    
C43   C44   A    
S5    O33   D    
O8    V2    S    
C27   C28   A    
O29   H20   S    
O1    V2    S    
O7    V1    S    
C41   C42   A    
C2    C48   S    
S4    O32   S    
C40   H12   S    
C29   H10   S    
O9    C4    A    
O26   H19   S    
C45   C49   S    
S3    O27   D    
O16   V4    S    
C19   C20   A    
C42   S3    S    
C6    C53   S    
O15   C51   A    
C30   C33   A    
C46   H17   S    
C31   C32   A    
C5    C10   A    
O18   V4    S    
C47   C48   A    
C11   H3    S    
C25   C26   A    
O12   C49   A    
O17   V3    S    
S1    O23   S    
O11   V4    S    
C11   C12   A    
C15   C20   A    
C28   C50   S    
C16   C23   A    
C3    C12   S    
C40   C41   A    
C21   C22   A    
O2    C1    A    
C14   C17   A    
C15   C16   A    
C32   C39   A    
C39   H14   S    
C9    S4    S    
O19   V4    S    
S2    O24   D    
C9    C10   A    
C30   C31   A    
C18   H6    S    
C22   H7    S    
O18   C51   A    
S1    O22   D    
O35   H22   S    
C27   C32   A    
O3    C4    A    
C46   C47   A    
C28   C29   A    
S2    O25   D    
S1    O21   D    
O14   C50   A    
C8    C9    A    
O2    V1    S    
O4    C2    A    
S4    O30   D    
C11   C16   A    
C34   C35   A    
C22   C23   A    
C54   N2    T    
O1    C2    A    
C17   C18   A    
C26   S1    S    
O5    V1    S    
O8    C3    A    
S3    O28   D    
O6    V2    S    
C7    C51   S    
C19   C24   A    
C18   C19   A    
O13   C52   A    
O9    V2    S    
C21   C26   A    
C38   C39   A    
C44   H16   S    
O3    V1    S    
V1    O10   S    
C53   N1    T    
O5    C3    A    
C13   H4    S    
C37   C38   A    
C47   C54   S    
C1    C41   S    
V4    O20   S    
C5    C6    A    
O32   H21   S    
O7    V2    S    
C43   H15   S    
S5    O34   D    
C24   S5    S    
O11   C50   A    
C38   H13   S    
O4    V1    S    
S2    O26   S    
C7    C8    A    
C29   C30   A    
C44   C45   A    
C13   C14   A    
O17   V4    S    
C23   H8    S    
C35   C40   A    
S5    O35   S    
S3    O29   S    
C49   O16   A    
V2    O10   S    
S4    O31   D    
