data_mof_unit_60587.cif
_audit_creation_date              2012-12-10T19:27:49-0500
_audit_creation_method            fapswitch 2.2
_symmetry_space_group_name_H-M    P1
_symmetry_Int_Tables_number       1
_space_group_crystal_system       triclinic
_cell_length_a                    17.723329
_cell_length_b                    16.437924
_cell_length_c                    10.75482
_cell_angle_alpha                 90.050166
_cell_angle_beta                  90.176033
_cell_angle_gamma                 89.984141
_cell_volume                      3133.23652942

loop_
_atom_site_label
_atom_site_type_symbol
_atom_type_description
_atom_site_fract_x
_atom_site_fract_y
_atom_site_fract_z
_atom_type_partial_charge
C1    C     C_R   0.355208 0.500004 0.499616 0.782219
C2    C     C_3   0.561986 0.440448 0.928416 -0.405538
C3    C     C_R   0.846359 0.573699 0.498119 -0.162465
C4    C     C_R   0.846380 0.426202 0.499631 -0.160242
C5    C     C_R   0.767711 0.573814 0.498688 -0.196074
C6    C     C_R   0.767731 0.426117 0.500196 -0.203968
C7    C     C_R   0.727715 0.499973 0.499679 -0.039582
C8    C     C_R   0.885580 0.499943 0.498555 0.151938
C9    C     C_1   0.966166 0.499930 0.498052 -0.069044
C10   C     C_1   0.033821 0.499932 0.497770 -0.068663
C11   C     C_R   0.153583 0.573705 0.499627 -0.160222
C12   C     C_R   0.153656 0.426222 0.496020 -0.156102
C13   C     C_R   0.232234 0.573827 0.500133 -0.200622
C14   C     C_R   0.232306 0.426143 0.496535 -0.196189
C15   C     C_R   0.272275 0.499995 0.498783 -0.038506
C16   C     C_R   0.500591 0.500058 0.259406 0.794687
C17   C     C_R   0.114407 0.499952 0.497678 0.151678
C18   C     C_R   0.546451 0.828922 0.581644 -0.279702
C19   C     C_R   0.547496 0.171138 0.579980 -0.278500
C20   C     C_R   0.545616 0.743073 0.580235 0.072564
C21   C     C_R   0.546643 0.256986 0.578609 0.072230
C22   C     C_R   0.454374 0.742996 0.419615 0.078314
C23   C     C_R   0.453312 0.256941 0.421284 0.070027
C24   C     C_R   0.453588 0.828843 0.418098 -0.280505
C25   C     C_R   0.452497 0.171094 0.419799 -0.277080
C26   C     C_R   0.500025 0.873052 0.499853 0.150205
C27   C     C_R   0.500006 0.126945 0.499862 0.149550
C28   C     C_1   0.500023 0.962695 0.499836 -0.047518
C29   C     C_1   0.500016 0.037302 0.499837 -0.047823
C30   C     C_R   0.644779 0.499991 0.499980 0.797171
C31   C     C_R   0.501572 0.500135 0.740487 0.784471
C32   C     C_3   0.522989 0.586801 0.071523 -0.006880
C33   C     C_3   0.420002 0.480863 0.069071 -0.051418
C34   C     C_3   0.520418 0.587119 0.928029 -0.431385
C35   C     C_3   0.423119 0.474536 0.925671 -0.344091
C36   C     C_3   0.559148 0.437392 0.071467 -0.367200
C37   C     C_3   0.500930 0.500343 0.121569 0.103976
C38   C     C_3   0.501842 0.500630 0.877951 0.092600
Cu1   Cu    Cu3+1 0.499980 0.580420 0.499990 0.936141
Cu2   Cu    Cu3+1 0.499980 0.419580 0.499990 0.923901
H1    H     H_    0.261582 0.631603 0.501732 0.148942
H2    H     H_    0.261712 0.368383 0.495212 0.149782
H3    H     H_    0.583162 0.860534 0.646253 0.130972
H4    H     H_    0.585044 0.139574 0.643266 0.131235
H5    H     H_    0.581724 0.709943 0.643737 0.111378
H6    H     H_    0.583557 0.290165 0.640842 0.112589
H7    H     H_    0.418263 0.709807 0.356132 0.109501
H8    H     H_    0.416359 0.290071 0.359144 0.114004
H9    H     H_    0.416898 0.860393 0.353445 0.131063
H10   H     H_    0.414953 0.139498 0.356485 0.132889
H11   H     H_    0.480171 0.631497 0.104817 0.134707
H12   H     H_    0.382315 0.532954 0.092519 0.129166
H13   H     H_    0.476329 0.630934 0.896793 0.162491
H14   H     H_    0.378615 0.514058 0.884314 0.135019
H15   H     H_    0.574910 0.608563 0.888571 0.166147
H16   H     H_    0.411092 0.411150 0.894784 0.191713
H17   H     H_    0.616209 0.449472 0.110453 0.164449
H18   H     H_    0.544810 0.374720 0.101561 0.167943
H19   H     H_    0.619190 0.459747 0.897849 0.155893
H20   H     H_    0.552042 0.378213 0.890946 0.174583
H21   H     H_    0.876548 0.631014 0.497334 0.128540
H22   H     H_    0.876585 0.368876 0.500032 0.128740
H23   H     H_    0.738326 0.631594 0.498295 0.150964
H24   H     H_    0.738362 0.368350 0.501026 0.149102
H25   H     H_    0.123357 0.631012 0.500887 0.128287
H26   H     H_    0.123487 0.368898 0.494452 0.128867
N1    N     N_R   0.499970 0.701220 0.499970 -0.163159
N2    N     N_R   0.499970 0.298780 0.499970 -0.164710
O1    O     O_R   0.391240 0.567930 0.499990 -0.588458
O2    O     O_R   0.391240 0.432070 0.499990 -0.588594
O3    O     O_R   0.499970 0.567910 0.317690 -0.571903
O4    O     O_R   0.499970 0.432090 0.317690 -0.599279
O5    O     O_R   0.608730 0.567880 0.500000 -0.579893
O6    O     O_R   0.608730 0.432120 0.500000 -0.588775
O7    O     O_R   0.500000 0.567910 0.682300 -0.591983
O8    O     O_R   0.500000 0.432090 0.682300 -0.591000
N3    N     N_3   0.596977 0.613396 0.118594 -0.574834
H27   H     H_    0.640321 0.583375 0.071422 0.221739
H28   H     H_    0.603051 0.675416 0.099366 0.215497
N4    N     N_3   0.385086 0.407394 0.121160 -0.594882
H29   H     H_    0.422108 0.358093 0.117974 0.230021
H30   H     H_    0.370088 0.417910 0.213721 0.218894

loop_
_geom_bond_atom_site_label_1
_geom_bond_atom_site_label_2
_ccdc_geom_bond_type
C27   C29   S    
C20   N1    A    
C16   O4    A    
C4    C8    A    
C13   H1    S    
N3    H27   S    
C33   H12   S    
Cu2   O2    S    
C36   C37   S    
C19   C21   A    
C24   C26   A    
C36   H18   S    
C30   O6    A    
C2    H20   S    
C10   C17   S    
C4    H22   S    
C5    H23   S    
C6    H24   S    
C25   H10   S    
C32   N3    S    
C11   C17   A    
C8    C9    S    
C18   C26   A    
C12   C17   A    
C1    C15   S    
Cu1   O7    S    
C19   C27   A    
C9    C10   T    
C20   H5    S    
C16   C37   S    
C14   H2    S    
C3    H21   S    
C22   H7    S    
C34   H15   S    
C7    C30   S    
C35   H14   S    
C16   O3    A    
N3    H28   S    
C35   C38   S    
C4    C6    A    
C36   H17   S    
Cu1   Cu2   S    
C5    C7    A    
C30   O5    A    
C2    H19   S    
C12   H26   S    
C1    O1    A    
Cu2   O8    S    
C32   C34   S    
C23   N2    A    
C32   H11   S    
C2    C38   S    
C31   O7    A    
Cu1   O1    S    
C32   C37   S    
N4    H30   S    
C12   C14   A    
C3    C8    A    
C13   C15   A    
C21   N2    A    
C22   C24   A    
C19   H4    S    
C21   H6    S    
C2    C36   S    
C24   H9    S    
C28   C29   T    
C23   H8    S    
Cu2   O4    S    
C35   H16   S    
C34   C38   S    
Cu1   N1    S    
N4    H29   S    
C3    C5    A    
C33   N4    S    
C6    C7    A    
C25   C27   A    
C26   C28   S    
C1    O2    A    
C31   C38   S    
C18   H3    S    
C11   C13   A    
C31   O8    A    
C33   C35   S    
Cu2   O6    S    
C18   C20   A    
Cu1   O5    S    
C33   C37   S    
C22   N1    A    
C23   C25   A    
C34   H13   S    
Cu2   N2    S    
Cu1   O3    S    
C14   C15   A    
C11   H25   S    
