data_mof_unit_19559.cif
_audit_creation_date              2012-12-10T17:05:45-0500
_audit_creation_method            fapswitch 2.2
_symmetry_space_group_name_H-M    P1
_symmetry_Int_Tables_number       1
_space_group_crystal_system       triclinic
_cell_length_a                    15.884742
_cell_length_b                    11.035382
_cell_length_c                    9.871964
_cell_angle_alpha                 111.074564
_cell_angle_beta                  98.083243
_cell_angle_gamma                 91.273505
_cell_volume                      1593.73819958

loop_
_atom_site_label
_atom_site_type_symbol
_atom_type_description
_atom_site_fract_x
_atom_site_fract_y
_atom_site_fract_z
_atom_type_partial_charge
C1    C     C_R   0.494019 0.254240 0.440739 0.851614
C2    C     C_2   0.502326 0.069621 0.516454 -0.159490
C3    C     C_2   0.509900 0.885197 0.592501 -0.344519
C4    C     C_R   0.340465 0.500805 0.501298 0.804708
C5    C     C_2   0.498908 0.930454 0.483584 -0.119940
C6    C     C_2   0.508244 0.510598 0.080929 0.457417
C7    C     C_2   0.492549 0.489615 0.919434 -0.115382
C8    C     C_R   0.506207 0.745768 0.559262 0.874668
C9    C     C_R   0.659477 0.499129 0.498613 0.842975
C10   C     C_3   0.060029 0.465216 0.625205 -0.490472
C11   C     C_3   0.036434 0.395673 0.348340 0.176327
C12   C     C_3   0.962038 0.461911 0.625468 -0.128661
C13   C     C_3   0.936766 0.395645 0.340708 0.631942
C14   C     C_1   0.748602 0.496707 0.495573 -0.108688
C15   C     C_3   0.082707 0.500264 0.495576 0.103278
C16   C     C_3   0.928272 0.334816 0.640759 -0.399888
C17   C     C_3   0.950465 0.339075 0.799157 -0.328727
C18   C     C_3   0.923743 0.209496 0.809842 -0.705037
C19   C     C_3   0.907847 0.708929 0.423075 -0.304620
C20   C     C_3   0.921525 0.857690 0.499631 -0.470810
C21   C     C_3   0.875814 0.925806 0.403767 -0.707013
C22   C     C_3   0.916016 0.494967 0.491320 0.071671
C23   C     C_3   0.954225 0.637361 0.518921 -0.142569
C24   C     C_3   0.051479 0.635838 0.510876 -0.386435
C25   C     C_1   0.823823 0.495150 0.493551 0.011902
C26   C     C_1   0.175448 0.502651 0.501087 0.021937
C27   C     C_1   0.251103 0.502481 0.503169 -0.138861
C28   C     C_2   0.490893 0.114826 0.407512 -0.326034
Cl1   Cl    Cl    0.590898 0.628066 0.193949 -0.610803
Cl2   Cl    Cl    0.073930 0.412293 0.191141 -0.617371
Cl3   Cl    Cl    0.892755 0.232744 0.299933 -0.656381
Cl4   Cl    Cl    0.883693 0.430953 0.186971 -0.570832
Cu1   Cu    Cu3+1 0.514650 0.521810 0.644910 0.969391
Cu2   Cu    Cu3+1 0.485350 0.478190 0.355090 1.021267
H1    H     H_    0.092863 0.538464 0.731262 0.193333
H2    H     H_    0.415940 0.378149 0.066291 0.158073
H3    H     H_    0.056403 0.299240 0.346912 0.139265
H4    H     H_    0.087011 0.711606 0.612443 0.161356
H5    H     H_    0.066568 0.661228 0.417213 0.223172
H6    H     H_    0.947867 0.698067 0.634293 0.164489
H7    H     H_    0.854113 0.184884 0.771916 0.253161
H8    H     H_    0.959148 0.130622 0.741756 0.223267
H9    H     H_    0.938709 0.216255 0.925727 0.314147
H10   H     H_    0.020283 0.360584 0.837402 0.255367
H11   H     H_    0.917218 0.417438 0.873226 0.267510
H12   H     H_    0.950797 0.542221 0.727220 0.173757
H13   H     H_    0.857883 0.319089 0.608923 0.236570
H14   H     H_    0.956897 0.249770 0.567956 0.243196
H15   H     H_    0.902435 0.901520 0.299747 0.270182
H16   H     H_    0.806380 0.895857 0.377800 0.270006
H17   H     H_    0.884531 0.032769 0.463413 0.255777
H18   H     H_    0.896113 0.888498 0.605296 0.231167
H19   H     H_    0.990773 0.888800 0.523451 0.232723
H20   H     H_    0.931481 0.681751 0.316258 0.261717
H21   H     H_    0.838134 0.682142 0.399483 0.244004
H22   H     H_    0.487056 0.864666 0.369122 0.210074
H23   H     H_    0.514137 0.135458 0.630923 0.185477
H24   H     H_    0.521640 0.951340 0.706771 0.156608
H25   H     H_    0.479137 0.048658 0.293249 0.161135
H26   H     H_    0.442437 0.417457 0.847655 0.133496
H27   H     H_    0.584732 0.622339 0.929656 0.258085
H28   H     H_    0.085126 0.370037 0.617953 0.186661
N1    N     N_2   0.463320 0.445430 0.137380 -0.308360
N2    N     N_2   0.536720 0.554500 0.862620 -0.268566
O1    O     O_R   0.507820 0.332330 0.577400 -0.580967
O2    O     O_R   0.483070 0.295500 0.332660 -0.574140
O3    O     O_R   0.391820 0.518430 0.622420 -0.583151
O4    O     O_R   0.367070 0.481600 0.377680 -0.557965
O5    O     O_R   0.516930 0.704500 0.667340 -0.579523
O6    O     O_R   0.492180 0.667670 0.422600 -0.534198
O7    O     O_R   0.632930 0.518400 0.622320 -0.580585
O8    O     O_R   0.608180 0.481570 0.377580 -0.502885

loop_
_geom_bond_atom_site_label_1
_geom_bond_atom_site_label_2
_ccdc_geom_bond_type
C6    N1    D    
C1    C28   S    
C24   H4    S    
C9    C14   S    
C6    C7    S    
Cu2   O8    S    
H27   N2    S    
H2    N1    S    
Cu2   O6    S    
C13   Cl4   S    
C1    O1    A    
C19   C20   S    
C9    O8    A    
Cu1   O5    S    
C23   C24   S    
Cu2   O2    S    
C11   C15   S    
C21   H15   S    
C17   C18   S    
C8    O5    A    
C2    H23   S    
Cu1   O1    S    
C20   H18   S    
C18   H9    S    
C9    O7    A    
C11   C13   S    
C16   H14   S    
C26   C27   T    
C10   H28   S    
C10   C12   S    
Cu1   N2    S    
C19   H20   S    
C15   C24   S    
C28   H25   S    
C22   C25   S    
C17   H11   S    
C13   C22   S    
Cu1   Cu2   S    
C21   H16   S    
C10   C15   S    
C18   H8    S    
C14   C25   T    
C10   H1    S    
C7    N2    D    
C17   H10   S    
C2    C5    S    
C16   C17   S    
Cu1   O7    S    
C19   H21   S    
C23   H6    S    
C3    H24   S    
C12   C22   S    
C7    H26   S    
C21   H17   S    
C6    Cl1   S    
C20   C21   S    
Cu1   O3    S    
C12   H12   S    
C3    C8    S    
C18   H7    S    
Cu2   O4    S    
C11   H3    S    
C16   H13   S    
C19   C23   S    
Cu2   N1    S    
C15   C26   S    
C2    C28   D    
C4    C27   S    
C5    H22   S    
C22   C23   S    
C8    O6    A    
C24   H5    S    
C13   Cl3   S    
C4    O4    A    
C12   C16   S    
C11   Cl2   S    
C20   H19   S    
C3    C5    D    
C4    O3    A    
C1    O2    A    
