data_mof_unit_34129.cif
_audit_creation_date              2012-12-11T20:19:19-0500
_audit_creation_method            fapswitch 2.2
_symmetry_space_group_name_H-M    P1
_symmetry_Int_Tables_number       1
_space_group_crystal_system       triclinic
_cell_length_a                    8.234498
_cell_length_b                    17.378585
_cell_length_c                    22.873599
_cell_angle_alpha                 99.752942
_cell_angle_beta                  89.503294
_cell_angle_gamma                 98.397911
_cell_volume                      3190.97010219

loop_
_atom_site_label
_atom_site_type_symbol
_atom_type_description
_atom_site_fract_x
_atom_site_fract_y
_atom_site_fract_z
_atom_type_partial_charge
Ba1   Ba    Ba6+2 0.857050 0.537370 0.474190 1.655639
Ba2   Ba    Ba6+2 0.332790 0.462700 0.525820 1.646785
C1    C     C_3   0.664194 0.818817 0.320599 -0.360645
C2    C     C_3   0.632886 0.738972 0.340621 0.383271
C3    C     C_3   0.478791 0.343454 0.342510 0.300227
C4    C     C_3   0.468558 0.320670 0.275309 -0.367493
C5    C     C_3   0.027467 0.284561 0.679078 0.350220
C6    C     C_3   0.039925 0.256848 0.738270 -0.374057
C7    C     C_3   0.491410 0.255726 0.660467 0.381208
C8    C     C_3   0.440343 0.181270 0.687092 -0.359229
C9    C     C_R   0.346270 0.518600 0.333400 -0.299154
C10   C     C_R   0.128378 0.562814 0.940842 -0.024110
C11   C     C_R   0.080776 0.558657 0.880618 0.589448
C12   C     C_3   0.164093 0.756040 0.327599 0.327397
C13   C     C_R   0.930481 0.428877 0.879760 0.576576
C14   C     C_R   0.971082 0.432440 0.940118 -0.015353
C15   C     C_R   0.071774 0.499418 0.970685 -0.054040
C16   C     C_R   0.231070 0.629043 0.972128 -0.077147
C17   C     C_R   0.273556 0.632694 0.031865 -0.075774
C18   C     C_R   0.215874 0.569964 0.062342 -0.021486
C19   C     C_R   0.116361 0.502716 0.031316 -0.053141
C20   C     C_R   0.913437 0.369665 0.970483 -0.075717
C21   C     C_R   0.958258 0.372530 0.029617 -0.076959
C22   C     C_R   0.061437 0.438541 0.060607 -0.022464
C23   C     C_3   0.096767 0.780005 0.272800 -0.340404
C24   C     C_R   0.111895 0.441179 0.119993 0.585410
C25   C     C_R   0.254918 0.573108 0.123085 0.584676
C26   C     C_2   0.784849 0.451643 0.766198 -0.091573
C27   C     C_3   0.757677 0.423745 0.700342 -0.064646
C28   C     C_1   0.007057 0.514280 0.686044 0.030078
C29   C     C_2   0.055384 0.516899 0.742212 -0.104701
C30   C     C_2   0.936321 0.486909 0.787117 0.192693
C31   C     C_R   0.415907 0.542233 0.234185 -0.103894
C32   C     C_R   0.459982 0.547186 0.293982 -0.036131
C33   C     C_R   0.189137 0.483196 0.314054 0.038443
C34   C     C_3   0.233009 0.702989 0.605179 0.322274
C35   C     C_R   0.141304 0.481100 0.254706 -0.079994
C36   C     C_R   0.253948 0.511015 0.213593 0.205957
C37   C     C_2   0.865280 0.474298 0.663887 -0.287066
C38   C     C_2   0.447280 0.719465 0.481857 -0.248136
C39   C     C_3   0.372674 0.769722 0.444764 -0.073891
C40   C     C_2   0.422814 0.856549 0.465045 -0.103568
C41   C     C_2   0.553714 0.883531 0.501974 0.013160
C42   C     C_2   0.635807 0.825713 0.527978 -0.126573
C43   C     C_1   0.575650 0.749627 0.517257 0.058978
C44   C     C_R   0.795609 0.136809 0.529878 -0.127234
C45   C     C_3   0.258161 0.792458 0.622178 -0.376358
C46   C     C_R   0.853274 0.217622 0.538233 0.006435
C47   C     C_R   0.617872 0.239590 0.484057 0.042731
C48   C     C_R   0.560322 0.158886 0.474846 -0.115017
C49   C     C_R   0.647094 0.107070 0.498524 0.014420
C50   C     C_2   0.616463 0.969095 0.518011 -0.073624
C51   C     C_2   0.588287 0.021743 0.483572 -0.071589
C52   C     C_R   0.760308 0.269098 0.517852 -0.279073
C53   C     C_3   0.963674 0.296349 0.395365 0.310133
C54   C     C_3   0.934785 0.206865 0.376589 -0.381373
C55   C     C_3   0.707115 0.636978 0.654882 0.363210
C56   C     C_3   0.699106 0.653810 0.722434 -0.022655
H1    H     H_    0.671916 0.747382 0.387971 0.053495
H2    H     H_    0.347426 0.811593 0.659839 0.106754
H3    H     H_    0.306064 0.819863 0.583913 0.076009
H4    H     H_    0.139313 0.813032 0.635235 0.130170
H5    H     H_    0.847019 0.317105 0.409995 0.002481
H6    H     H_    0.054471 0.311763 0.432679 0.076160
H7    H     H_    0.838154 0.189628 0.341147 0.131769
H8    H     H_    0.894778 0.177776 0.414808 0.062988
H9    H     H_    0.050562 0.185918 0.359645 0.125991
H10   H     H_    0.831259 0.624295 0.642034 -0.052198
H11   H     H_    0.615377 0.584427 0.638487 0.068652
H12   H     H_    0.796845 0.843938 0.326886 0.135259
H13   H     H_    0.796686 0.703473 0.740340 0.086112
H14   H     H_    0.725347 0.601056 0.740137 0.017473
H15   H     H_    0.499344 0.716713 0.335381 -0.093879
H16   H     H_    0.589791 0.860142 0.347602 0.060564
H17   H     H_    0.356502 0.356578 0.358600 0.020015
H18   H     H_    0.571736 0.397146 0.353893 0.052949
H19   H     H_    0.375038 0.267395 0.262408 0.135343
H20   H     H_    0.432534 0.369969 0.255486 0.066934
H21   H     H_    0.590190 0.307897 0.257743 0.131777
H22   H     H_    0.628591 0.812254 0.272751 0.126462
H23   H     H_    0.185026 0.771868 0.235937 0.105111
H24   H     H_    0.087005 0.347223 0.683494 0.063409
H25   H     H_    0.895274 0.280231 0.667828 -0.062239
H26   H     H_    0.164270 0.276105 0.757734 0.146584
H27   H     H_    0.950520 0.281924 0.769086 0.144432
H28   H     H_    0.012041 0.191898 0.732645 0.115217
H29   H     H_    0.627113 0.265010 0.659260 -0.079680
H30   H     H_    0.442134 0.246128 0.614228 0.076428
H31   H     H_    0.503238 0.132715 0.663128 0.063815
H32   H     H_    0.304627 0.162168 0.682536 0.147990
H33   H     H_    0.176628 0.692124 0.317221 0.020096
H34   H     H_    0.476316 0.192389 0.735270 0.123295
H35   H     H_    0.911105 0.322814 0.051104 0.122971
H36   H     H_    0.833234 0.317737 0.948553 0.122363
H37   H     H_    0.353000 0.684776 0.054029 0.119205
H38   H     H_    0.507774 0.562940 0.204033 0.116896
H39   H     H_    0.279261 0.678403 0.950466 0.117503
H40   H     H_    0.182944 0.538035 0.755134 0.133139
H41   H     H_    0.688855 0.433398 0.795980 0.125538
H42   H     H_    0.016863 0.455853 0.240814 0.133411
H43   H     H_    0.382629 0.521218 0.379127 0.077548
H44   H     H_    0.286563 0.792355 0.337271 -0.033044
H45   H     H_    0.839473 0.464150 0.616542 0.081317
H46   H     H_    0.517769 0.002589 0.442359 0.066779
H47   H     H_    0.743184 0.846849 0.556848 0.078079
H48   H     H_    0.871270 0.097454 0.544396 0.073161
H49   H     H_    0.689648 0.988534 0.558697 0.068456
H50   H     H_    0.354245 0.896026 0.446931 0.064755
H51   H     H_    0.450889 0.136249 0.447743 0.075175
H52   H     H_    0.408283 0.656206 0.472003 0.073818
H53   H     H_    0.806533 0.331498 0.523507 0.063914
H54   H     H_    0.978247 0.742900 0.258331 0.165660
H55   H     H_    0.079464 0.843049 0.282416 0.102529
H56   H     H_    0.352493 0.683211 0.594003 0.003363
H57   H     H_    0.148965 0.686059 0.565983 0.079510
N1    N     N_R   0.982765 0.491917 0.850050 -0.420160
N2    N     N_R   0.205799 0.508531 0.151488 -0.423334
O1    O     O_2   0.889310 0.456460 0.358460 -0.458357
O2    O     O_3   0.675957 0.703350 0.632033 -0.641591
O3    O     O_3   0.058465 0.770638 0.375875 -0.569952
O4    O     O_2   0.300380 0.543560 0.641570 -0.451215
O5    O     O_3   0.059830 0.542790 0.570460 -0.498260
O6    O     O_3   0.515070 0.399440 0.599070 -0.475742
O7    O     O_3   0.167156 0.669938 0.653441 -0.625128
O8    O     O_3   0.612780 0.404640 0.465950 -0.482710
O9    O     O_3   0.096040 0.358680 0.568240 -0.487768
O10   O     O_2   0.188419 0.219316 0.524993 -0.482421
O11   O     O_3   0.106675 0.236279 0.635973 -0.594883
O12   O     O_3   0.129890 0.457280 0.429550 -0.496295
O13   O     O_3   0.576930 0.595420 0.534060 -0.498321
O14   O     O_2   0.340570 0.306450 0.462190 -0.459307
O15   O     O_3   0.524075 0.280557 0.366837 -0.640074
O16   O     O_2   0.444851 0.473378 0.706875 -0.496957
O17   O     O_3   0.430749 0.320230 0.695074 -0.582995
O18   O     O_2   0.124883 0.615159 0.855932 -0.609638
O19   O     O_2   0.849891 0.368474 0.853520 -0.625390
O20   O     O_2   0.074465 0.382576 0.143143 -0.601578
O21   O     O_2   0.330759 0.634013 0.150793 -0.608867
O22   O     O_3   0.674650 0.600620 0.400940 -0.480837
O23   O     O_2   0.799418 0.545508 0.295870 -0.479366
O24   O     O_3   0.021347 0.330159 0.346530 -0.628509
O25   O     O_3   0.724386 0.686664 0.305980 -0.582195
O26   O     O_2   0.849130 0.693580 0.537840 -0.455209
O27   O     O_3   0.093680 0.641380 0.431770 -0.471420
O28   O     O_2   0.059123 0.782980 0.492129 -0.482071
P1    P     P_3+3 0.055640 0.433080 0.366120 0.996835
P2    P     P_3+3 0.671420 0.681950 0.554390 0.980000
P3    P     P_3+3 0.145554 0.743015 0.437381 0.965304
P4    P     P_3+3 0.134070 0.566990 0.633890 0.998351
P5    P     P_3+3 0.061412 0.256831 0.566393 0.951279
P6    P     P_3+3 0.664678 0.592784 0.323554 0.981950
P7    P     P_3+3 0.524956 0.305660 0.444253 0.950527
P8    P     P_3+3 0.537477 0.406894 0.675868 0.952623
N3    N     N_2   0.536456 0.670744 0.740688 -0.389888
H58   H     H_    0.473608 0.631560 0.765198 0.225721
C57   C     C_3   0.523369 0.752540 0.763358 -0.177418
H59   H     H_    0.391803 0.759609 0.768910 0.126540
H60   H     H_    0.578012 0.790918 0.731901 0.123603
H61   H     H_    0.587491 0.771211 0.807091 0.092236

loop_
_geom_bond_atom_site_label_1
_geom_bond_atom_site_label_2
_ccdc_geom_bond_type
C5    H25   S    
C53   C54   S    
C53   O24   S    
C46   P5    S    
C20   H36   S    
C39   C40   S    
C17   C18   A    
C9    C32   A    
C24   N2    Am   
O27   P3    S    
C24   O20   D    
C34   H56   S    
C45   H4    S    
O14   P7    D    
C5    C6    S    
C42   H47   S    
C42   C43   D    
O26   P2    D    
C10   C11   A    
O16   P8    D    
C6    H27   S    
C57   H59   S    
C33   C35   A    
C22   C24   A    
C16   C17   A    
Ba1   O12   S    
C7    H30   S    
C2    O25   S    
C28   C29   D    
C41   C50   S    
C12   H44   S    
O17   P8    S    
O12   P1    S    
C51   H46   S    
O2    P2    S    
C47   C52   A    
Ba2   O12   S    
C34   C45   S    
Ba1   Ba2   S    
C29   H40   S    
O22   P6    S    
C1    H16   S    
Ba1   O5    S    
C56   N3    S    
C23   H54   S    
C45   H2    S    
C36   N2    S    
C3    O15   S    
C50   H49   S    
C14   C15   A    
C53   H5    S    
C10   C15   A    
C52   H53   S    
C21   C22   A    
C16   H39   S    
C5    O11   S    
C7    C8    S    
N3    C57   S    
Ba1   O22   S    
C55   O2    S    
C7    O17   S    
Ba2   P4    S    
C25   N2    Am   
C8    H34   S    
C43   P2    S    
C23   H23   S    
C11   O18   D    
Ba1   P1    S    
C1    H22   S    
C20   C21   A    
Ba2   O14   S    
Ba2   O5    S    
C38   C43   D    
C44   C46   A    
C25   O21   D    
O5    P4    S    
O1    P1    D    
C1    H12   S    
C8    H31   S    
Ba1   O13   S    
C4    H19   S    
C38   H52   S    
C13   O19   D    
C48   C49   A    
Ba2   O6    S    
C44   C49   A    
C48   H51   S    
C15   C19   A    
C21   H35   S    
C49   C51   S    
C33   P1    S    
O25   P6    S    
C3    H17   S    
C46   C52   A    
C41   C42   S    
C35   C36   A    
Ba1   O26   S    
O8    P7    S    
C23   H55   S    
O7    P4    S    
C54   H7    S    
C29   C30   S    
C26   C30   D    
C53   H6    S    
C27   C37   S    
C31   C32   A    
N3    H58   S    
C9    H43   S    
C30   N1    S    
O23   P6    D    
C2    H15   S    
O24   P1    S    
Ba2   O9    S    
C26   H41   S    
O11   P5    S    
C38   C39   S    
O3    P3    S    
C12   O3    S    
O15   P7    S    
Ba1   P2    S    
C40   C41   D    
C55   H10   S    
C1    C2    S    
C31   H38   S    
O28   P3    D    
C17   H37   S    
C50   C51   D    
C27   P8    S    
O6    P8    S    
Ba2   O4    S    
C26   C27   S    
C14   C20   A    
C47   P7    S    
C34   O7    S    
O13   P2    S    
C6    H26   S    
C57   H61   S    
Ba1   O8    S    
C28   P4    S    
C45   H3    S    
C32   P6    S    
C37   H45   S    
C18   C25   A    
C54   H9    S    
C31   C36   A    
C3    H18   S    
C57   H60   S    
O10   P5    D    
Ba1   O27   S    
C7    H29   S    
O9    P5    S    
C56   H14   S    
C55   C56   S    
C3    C4    S    
C39   P3    S    
C54   H8    S    
C44   H48   S    
C2    H1    S    
C9    C33   A    
Ba2   O13   S    
O4    P4    D    
C28   C37   D    
C6    H28   S    
Ba1   O1    S    
C12   C23   S    
C56   H13   S    
C12   H33   S    
C11   N1    Am   
C4    H20   S    
C4    H21   S    
Ba2   O8    S    
C5    H24   S    
C18   C19   A    
C8    H32   S    
C47   C48   A    
C19   C22   A    
C10   C16   A    
C13   N1    Am   
C55   H11   S    
C34   H57   S    
C40   H50   S    
C35   H42   S    
C13   C14   A    
