data_mof_unit_20359.cif
_audit_creation_date              2012-12-11T17:39:26-0500
_audit_creation_method            fapswitch 2.2
_symmetry_space_group_name_H-M    P1
_symmetry_Int_Tables_number       1
_space_group_crystal_system       triclinic
_cell_length_a                    14.888101
_cell_length_b                    14.925674
_cell_length_c                    14.864035
_cell_angle_alpha                 109.354753
_cell_angle_beta                  109.280508
_cell_angle_gamma                 109.43487
_cell_volume                      2553.37836651

loop_
_atom_site_label
_atom_site_type_symbol
_atom_type_description
_atom_site_fract_x
_atom_site_fract_y
_atom_site_fract_z
_atom_type_partial_charge
C1    C     C_R   0.906067 0.975667 0.720077 -0.126368
C2    C     C_R   0.912155 0.706210 0.514416 -0.137557
C3    C     C_R   0.753020 0.779297 0.186861 -0.110858
C4    C     C_R   0.090514 0.315870 0.554836 -0.123798
C5    C     C_R   0.252021 0.936230 0.527450 -0.123452
C6    C     C_R   0.728637 0.676924 0.176406 0.140179
C7    C     C_R   0.275041 0.948613 0.447118 0.047607
C8    C     C_R   0.005353 0.709496 0.582812 0.072463
C9    C     C_R   0.995034 0.067310 0.196040 0.073379
C10   C     C_R   0.496135 0.577546 0.389648 -0.110027
C11   C     C_R   0.476509 0.655066 0.366986 -0.138802
C12   C     C_R   0.997559 0.328281 0.531928 0.058399
C13   C     C_R   0.467746 0.734234 0.441927 0.109728
C14   C     C_R   0.477748 0.733537 0.539168 -0.178043
C15   C     C_R   0.497210 0.655740 0.561337 -0.110672
C16   C     C_R   0.298354 0.210969 0.802900 -0.134835
C17   C     C_R   0.506417 0.577843 0.486667 -0.108807
C18   C     C_R   0.362098 0.832167 0.427536 -0.236976
C19   C     C_R   0.337467 0.907007 0.402589 0.069428
C20   C     C_R   0.382245 0.947102 0.344212 0.031630
C21   C     C_R   0.457202 0.920361 0.323860 -0.255215
C22   C     C_R   0.505642 0.875858 0.379870 0.051454
C23   C     C_R   0.359002 0.306667 0.807459 0.148449
C24   C     C_R   0.446785 0.816214 0.417495 0.035956
C25   C     C_R   0.306526 0.007253 0.213563 -0.175788
C26   C     C_R   0.295305 0.088888 0.193222 -0.122957
C27   C     C_R   0.350299 0.196542 0.279786 -0.124328
C28   C     C_R   0.691971 0.986006 0.397000 -0.135254
C29   C     C_R   0.414253 0.222264 0.386904 -0.088462
C30   C     C_R   0.424301 0.140782 0.407880 -0.156562
C31   C     C_R   0.371032 0.032728 0.321125 0.090618
C32   C     C_R   0.645927 0.239507 0.276412 -0.141823
C33   C     C_R   0.747022 0.331881 0.357567 -0.161831
C34   C     C_R   0.625349 0.918068 0.421233 0.057152
C35   C     C_R   0.791659 0.350926 0.465772 0.116944
C36   C     C_R   0.732736 0.282015 0.494208 -0.179478
C37   C     C_R   0.636166 0.186370 0.411704 -0.125649
C38   C     C_R   0.591824 0.164945 0.302786 -0.075367
C39   C     C_R   0.908498 0.543192 0.582582 -0.240085
C40   C     C_R   0.299073 0.302587 0.711314 -0.128397
C41   C     C_R   0.008224 0.634524 0.626609 0.051723
C42   C     C_R   0.105205 0.632522 0.679506 0.029988
C43   C     C_R   0.098918 0.530949 0.654630 -0.239086
C44   C     C_R   0.997843 0.433474 0.578446 0.063271
C45   C     C_R   0.753820 0.687029 0.278769 -0.155900
C46   C     C_R   0.901211 0.441905 0.548059 0.030881
C47   C     C_R   0.299393 0.751685 0.733900 -0.144402
C48   C     C_R   0.391377 0.856060 0.792227 -0.092968
C49   C     C_R   0.398863 0.942076 0.875675 -0.111409
C50   C     C_R   0.315569 0.923498 0.902717 -0.145565
C51   C     C_R   0.222250 0.819997 0.843002 -0.147060
C52   C     C_R   0.694052 0.898833 0.491338 -0.149247
C53   C     C_R   0.212292 0.734044 0.756281 0.103952
C54   C     C_2   0.537184 0.464877 0.881831 -0.080361
C55   C     C_2   0.470508 0.389079 0.893866 -0.217088
C56   C     C_R   0.238357 0.017732 0.426535 -0.137460
C57   C     C_2   0.634333 0.565785 0.977445 -0.085745
C58   C     C_2   0.678459 0.574085 0.076288 -0.232932
C59   C     C_R   0.372070 0.367311 0.091985 -0.129624
C60   C     C_R   0.285616 0.278158 0.077099 -0.198397
C61   C     C_R   0.180804 0.267291 0.041384 0.131738
C62   C     C_R   0.163625 0.346275 0.018713 -0.124958
C63   C     C_R   0.250206 0.435289 0.033374 -0.097666
C64   C     C_R   0.907257 0.222881 0.458999 -0.142128
C65   C     C_R   0.354515 0.446062 0.070477 -0.087560
C66   C     C_R   0.086630 0.171102 0.120291 -0.241854
C67   C     C_R   0.093440 0.796330 0.600466 -0.150410
C68   C     C_R   0.988985 0.100528 0.110863 0.055626
C69   C     C_R   0.888769 0.055298 0.013527 0.079272
C70   C     C_R   0.892365 0.054741 0.921455 -0.244212
C71   C     C_R   0.992617 0.101139 0.924921 0.054759
C72   C     C_R   0.088080 0.175346 0.027831 0.009217
C73   C     C_R   0.711245 0.887465 0.934110 -0.374252
C74   C     C_R   0.614567 0.834557 0.934808 0.772476
C75   C     C_R   0.584837 0.895222 0.001214 -0.240785
C76   C     C_R   0.088905 0.065173 0.812673 -0.128229
C77   C     C_R   0.648220 0.009310 0.062109 -0.249920
C78   C     C_R   0.907872 0.002856 0.201289 -0.146898
C79   C     C_R   0.744202 0.062982 0.060591 -0.152512
C80   C     C_R   0.778673 0.001667 0.000312 0.047256
C81   C     C_R   0.996668 0.054104 0.823090 0.061992
C82   C     C_R   0.088423 0.098543 0.290251 -0.142074
F1    F     F_    0.550695 0.724261 0.872724 -0.749279
H1    H     H_    0.820753 0.945210 0.696349 0.097721
H2    H     H_    0.503540 0.517300 0.332104 0.114168
H3    H     H_    0.468594 0.653770 0.291409 0.115469
H4    H     H_    0.175405 0.379079 0.605593 0.099444
H5    H     H_    0.471917 0.793967 0.598391 0.108418
H6    H     H_    0.505412 0.656046 0.636586 0.154251
H7    H     H_    0.319336 0.789964 0.459934 0.124771
H8    H     H_    0.490987 0.951757 0.279956 0.119343
H9    H     H_    0.264292 0.924430 0.146168 0.121415
H10   H     H_    0.243379 0.067850 0.110306 0.110964
H11   H     H_    0.343007 0.260646 0.265344 0.109136
H12   H     H_    0.226131 0.033558 0.359675 0.141063
H13   H     H_    0.455631 0.305175 0.453710 0.102513
H14   H     H_    0.473003 0.161264 0.491667 0.114715
H15   H     H_    0.516377 0.090722 0.238374 0.112457
H16   H     H_    0.327887 0.181609 0.857434 0.092166
H17   H     H_    0.611403 0.223966 0.192756 0.102395
H18   H     H_    0.791641 0.387154 0.336087 0.115326
H19   H     H_    0.766601 0.296911 0.577730 0.122589
H20   H     H_    0.598795 0.128616 0.433867 0.130342
H21   H     H_    0.833305 0.546536 0.555206 0.125631
H22   H     H_    0.174016 0.529405 0.690651 0.135396
H23   H     H_    0.178525 0.833092 0.657429 0.126738
H24   H     H_    0.292838 0.687007 0.666683 0.121390
H25   H     H_    0.456483 0.870660 0.772083 0.112382
H26   H     H_    0.469658 0.023009 0.919937 0.114670
H27   H     H_    0.321945 0.989992 0.967915 0.108330
H28   H     H_    0.664492 0.005674 0.333087 0.098831
H29   H     H_    0.155775 0.807983 0.861085 0.114522
H30   H     H_    0.511602 0.462358 0.803310 0.135648
H31   H     H_    0.493442 0.390612 0.971609 0.129321
H32   H     H_    0.656299 0.638096 0.968736 0.169829
H33   H     H_    0.663339 0.501931 0.084903 0.130710
H34   H     H_    0.822793 0.973154 0.154290 0.128364
H35   H     H_    0.421544 0.514978 0.081891 0.114511
H36   H     H_    0.452522 0.374802 0.119370 0.098369
H37   H     H_    0.299647 0.215680 0.088745 0.104974
H38   H     H_    0.083354 0.339398 0.990653 0.109543
H39   H     H_    0.236482 0.496080 0.016278 0.112869
H40   H     H_    0.327456 0.356974 0.681504 0.094264
H41   H     H_    0.161153 0.222372 0.198682 0.128254
H42   H     H_    0.815712 0.010803 0.845488 0.129042
H43   H     H_    0.736131 0.839372 0.886123 0.156355
H44   H     H_    0.511248 0.854058 0.003640 0.158899
H45   H     H_    0.171093 0.160252 0.321241 0.108428
H46   H     H_    0.623622 0.055758 0.111647 0.150266
H47   H     H_    0.794774 0.151075 0.111190 0.130064
H48   H     H_    0.671114 0.841454 0.519229 0.118072
H49   H     H_    0.822054 0.194845 0.414640 0.137091
H50   H     H_    0.173245 0.115349 0.876115 0.110983
H51   H     H_    0.745822 0.623266 0.300039 0.100024
H52   H     H_    0.828507 0.656962 0.492897 0.089959
H53   H     H_    0.743552 0.800504 0.123064 0.099519
H54   H     H_    0.266747 0.886628 0.562933 0.096116
H55   H     H_    0.521617 0.517765 0.504016 0.101813
N1    N     N_R   0.941940 0.944580 0.650780 -0.040912
N2    N     N_R   0.204460 0.150250 0.707090 -0.042393
N3    N     N_R   0.794270 0.003240 0.446420 -0.038849
N4    N     N_R   0.204920 0.207570 0.650770 -0.044932
N5    N     N_R   0.793810 0.945920 0.502740 -0.040053
N6    N     N_R   0.943620 0.152590 0.446420 -0.041720
N7    N     N_R   0.055110 0.000900 0.707100 -0.041324
N8    N     N_R   0.795080 0.792430 0.349230 -0.040231
N9    N     N_R   0.206190 0.054080 0.497260 -0.044479
N10   N     N_R   0.056380 0.847410 0.553580 -0.040477
N11   N     N_R   0.944890 0.999100 0.292900 -0.042571
N12   N     N_R   0.058060 0.055420 0.349220 -0.043066
N13   N     N_R   0.943200 0.791100 0.497260 -0.038322
N14   N     N_R   0.795540 0.849750 0.292910 -0.046491
N15   N     N_R   0.205730 0.996760 0.553580 -0.040584
N16   N     N_R   0.056800 0.208900 0.502740 -0.039470
Ni1   Ni    Ni4+2 0.869690 0.869690 0.500000 0.212689
Ni2   Ni    Ni4+2 0.130310 0.130310 0.500000 0.210633
Ni3   Ni    Ni4+2 0.129250 0.998840 0.629170 0.214441
Ni4   Ni    Ni4+2 0.870750 0.001160 0.370830 0.214106

loop_
_geom_bond_atom_site_label_1
_geom_bond_atom_site_label_2
_ccdc_geom_bond_type
C25   C31   A    
C56   H12   S    
C4    N16   A    
C63   C65   A    
C10   H2    S    
C51   H29   S    
C6    C45   A    
C40   N4    A    
C27   C29   A    
C41   C42   A    
C6    C58   S    
C66   C68   A    
C35   C36   A    
N10   N13   A    
C74   F1    S    
C38   H15   S    
C3    C6    A    
C54   C57   S    
C63   H39   S    
C39   H21   S    
C57   H32   S    
C4    H4    S    
C1    H1    S    
C9    C78   A    
C30   H14   S    
C45   H51   S    
C37   C38   A    
C18   C24   A    
C49   H26   S    
C36   C37   A    
N2    N4    A    
C18   C19   A    
N3    N5    A    
C42   C53   S    
C30   C31   A    
C12   C64   A    
C11   H3    S    
C1    C81   A    
C73   H43   S    
C54   H30   S    
C50   H27   S    
C36   H19   S    
C3    H53   S    
C43   H22   S    
C7    C19   S    
C66   C72   A    
N8    Ni1   S    
C64   H49   S    
C68   C69   A    
C65   H35   S    
N15   Ni3   S    
C17   H55   S    
C32   C38   A    
C4    C12   A    
C29   C30   A    
N11   Ni4   S    
N16   Ni2   S    
C61   C62   A    
C1    N1    A    
C9    C82   A    
C47   C53   A    
C26   H10   S    
C28   C34   A    
C59   C60   A    
N12   Ni2   S    
C13   C14   A    
C58   H33   S    
C16   N2    A    
C7    C56   A    
C44   C46   A    
C77   C79   A    
C28   H28   S    
C22   C34   S    
N14   Ni4   S    
C52   N5    A    
C74   C75   A    
C45   N8    A    
C18   H7    S    
C78   H34   S    
C8    C41   S    
C39   C41   A    
C5    C7    A    
C64   N6    A    
C25   C26   A    
C79   H47   S    
C32   H17   S    
C13   C24   S    
C60   C61   A    
C51   C53   A    
C43   C44   A    
C62   C63   A    
N2    Ni3   S    
C15   H6    S    
N7    Ni3   S    
N5    Ni1   S    
C47   C48   A    
N1    Ni1   S    
C50   C51   A    
C3    N14   A    
C16   H16   S    
C77   H46   S    
C5    H54   S    
N9    Ni2   S    
C75   C77   A    
C82   H45   S    
C82   N12   A    
C39   C46   A    
N8    N14   A    
C61   C72   S    
C48   C49   A    
C76   N7    A    
C16   C23   A    
N13   Ni1   S    
C26   C27   A    
C66   H41   S    
C33   H18   S    
C42   C43   A    
N6    Ni4   S    
C73   C74   A    
C70   C71   A    
C70   H42   S    
C37   H20   S    
C21   H8    S    
C2    N13   A    
C15   C17   A    
C40   H40   S    
C54   C55   D    
N1    N7    A    
C25   H9    S    
C59   H36   S    
C52   H48   S    
C34   C52   A    
C2    C8    A    
C69   C80   S    
C76   C81   A    
C29   H13   S    
C76   H50   S    
C67   H23   S    
C23   C55   S    
C55   H31   S    
C47   H24   S    
C2    H52   S    
C32   C33   A    
C19   C20   A    
C9    C68   S    
C14   H5    S    
C71   C72   A    
C12   C44   S    
N11   N12   A    
C59   C65   A    
C11   C13   A    
C57   C58   D    
C48   H25   S    
C56   N9    A    
C5    N15   A    
C33   C35   A    
C73   C80   A    
C60   H37   S    
C22   C24   A    
N10   Ni3   S    
N6    N16   A    
C69   C70   A    
N9    N15   A    
C10   C11   A    
C79   C80   A    
N3    Ni4   S    
C20   C21   A    
C8    C67   A    
C49   C50   A    
C67   N10   A    
C14   C15   A    
C27   H11   S    
C28   N3    A    
C10   C17   A    
N4    Ni2   S    
C21   C22   A    
C35   C46   S    
C20   C31   S    
C62   H38   S    
C23   C40   A    
C78   N11   A    
C71   C81   S    
C75   H44   S    
