data_mof_unit_45255.cif
_audit_creation_date              2012-12-11T18:07:16-0500
_audit_creation_method            fapswitch 2.2
_symmetry_space_group_name_H-M    P1
_symmetry_Int_Tables_number       1
_space_group_crystal_system       triclinic
_cell_length_a                    8.217287
_cell_length_b                    12.753487
_cell_length_c                    26.910016
_cell_angle_alpha                 96.979054
_cell_angle_beta                  92.418794
_cell_angle_gamma                 81.355319
_cell_volume                      2766.62436234

loop_
_atom_site_label
_atom_site_type_symbol
_atom_type_description
_atom_site_fract_x
_atom_site_fract_y
_atom_site_fract_z
_atom_type_partial_charge
Ba1   Ba    Ba6+2 0.859560 0.448380 0.523550 1.640965
Ba2   Ba    Ba6+2 0.330270 0.551530 0.476440 1.636816
C1    C     C_3   0.683546 0.081113 0.663852 -0.409464
C2    C     C_R   0.885986 0.592306 0.178712 0.576816
C3    C     C_2   0.737802 0.525339 0.269929 -0.069371
C4    C     C_3   0.231613 0.143616 0.660530 0.346961
C5    C     C_3   0.694643 0.518304 0.323658 -0.057068
C6    C     C_1   0.985786 0.478058 0.342793 0.042093
C7    C     C_2   0.027264 0.475084 0.295193 -0.107546
C8    C     C_2   0.897210 0.502666 0.255661 0.197955
C9    C     C_R   0.020099 0.504099 0.102021 -0.084259
C10   C     C_R   0.073567 0.414199 0.127251 -0.097653
C11   C     C_R   0.160913 0.323405 0.100671 -0.089772
C12   C     C_3   0.679659 0.184415 0.640759 0.317002
C13   C     C_R   0.924844 0.593508 0.127996 -0.014471
C14   C     C_2   0.842058 0.528146 0.358248 -0.283506
C15   C     C_2   0.355031 0.479272 0.641016 -0.266069
C16   C     C_3   0.274246 0.030950 0.675893 -0.397246
C17   C     C_R   0.215157 0.421427 0.975937 0.025801
C18   C     C_R   0.031726 0.592110 0.973239 0.021591
C19   C     C_R   0.143839 0.507323 0.949267 0.046405
C20   C     C_R   0.343084 0.347457 0.952672 -0.087941
C21   C     C_R   0.384616 0.349917 0.903170 -0.093387
C22   C     C_R   0.304932 0.428879 0.874979 -0.032780
C23   C     C_3   0.492501 0.719096 0.629292 0.298927
C24   C     C_R   0.186477 0.508984 0.898251 -0.078959
C25   C     C_R   0.111619 0.591151 0.870676 -0.032808
C26   C     C_R   0.154290 0.591405 0.820171 0.583036
C27   C     C_R   0.343107 0.429806 0.824193 0.572554
C28   C     C_3   0.213539 0.224370 0.418769 0.278219
C29   C     C_2   0.465037 0.493426 0.729056 -0.071257
C30   C     C_3   0.504552 0.493499 0.674322 -0.062188
C31   C     C_1   0.209787 0.525312 0.656981 0.050327
C32   C     C_2   0.171916 0.527827 0.704755 -0.113040
C33   C     C_2   0.306288 0.509860 0.744158 0.199347
C34   C     C_3   0.439427 0.764236 0.682126 -0.393972
C35   C     C_R   0.161064 0.414796 0.025343 -0.049020
C36   C     C_R   0.060716 0.504413 0.050728 0.000038
C37   C     C_R   0.998719 0.593998 0.025140 0.038002
C38   C     C_R   0.198265 0.320956 0.050228 0.394069
C39   C     C_R   0.870170 0.682660 0.102786 -0.060547
C40   C     C_3   0.220423 0.104192 0.407598 -0.341584
C41   C     C_R   0.956733 0.672508 0.944222 -0.105573
C42   C     C_R   0.995671 0.671784 0.894215 -0.063748
C43   C     C_R   0.905851 0.683018 0.052652 -0.098127
C44   C     C_R   0.758080 0.821314 0.479489 -0.285572
C45   C     C_3   0.030329 0.782629 0.338729 0.294896
C46   C     C_R   0.434234 0.189685 0.522154 -0.279667
C47   C     C_R   0.410790 0.010984 0.538182 -0.106056
C48   C     C_R   0.348484 0.118940 0.542230 -0.022674
C49   C     C_R   0.576939 0.152992 0.494982 0.068556
C50   C     C_R   0.639818 0.041796 0.489130 -0.058775
C51   C     C_R   0.555726 0.970578 0.511782 -0.051439
C52   C     C_3   0.978575 0.775476 0.580601 0.285983
C53   C     C_R   0.617075 0.860224 0.506515 0.045899
C54   C     C_R   0.845854 0.889934 0.459207 -0.003357
C55   C     C_R   0.784691 0.999132 0.462265 -0.089085
C56   C     C_3   0.063388 0.805733 0.286306 -0.327325
C57   C     C_3   0.987624 0.894192 0.589965 -0.349667
C58   C     C_3   0.714640 0.295523 0.373422 0.301727
C59   C     C_3   0.761805 0.247739 0.320430 -0.370370
C60   C     C_3   0.194553 0.227805 0.706336 -0.157783
C61   C     C_3   0.050584 0.208945 0.737116 -0.178436
C62   C     C_3   0.010292 0.297681 0.780009 -0.383902
C63   C     C_3   0.133171 0.173728 0.002310 0.147735
C64   C     C_3   0.537104 0.817038 0.360262 0.340815
C65   C     C_3   0.560117 0.917156 0.337535 -0.375558
C66   C     C_R   0.032760 0.414970 0.178026 0.610423
H1    H     H_    0.794061 0.179502 0.619738 0.117910
H2    H     H_    0.823541 0.324291 0.392906 0.026183
H3    H     H_    0.612611 0.362835 0.371983 0.034680
H4    H     H_    0.659508 0.015775 0.634509 0.091943
H5    H     H_    0.857986 0.176831 0.321777 0.141390
H6    H     H_    0.811425 0.306357 0.300393 0.075907
H7    H     H_    0.652159 0.222996 0.299292 0.124390
H8    H     H_    0.573661 0.193707 0.614237 -0.019996
H9    H     H_    0.589210 0.091539 0.692842 0.140202
H10   H     H_    0.390696 0.680490 0.610107 0.024976
H11   H     H_    0.604647 0.659194 0.631411 0.042380
H12   H     H_    0.292175 0.074976 0.373490 0.121045
H13   H     H_    0.314987 0.811591 0.680704 0.135317
H14   H     H_    0.433393 0.699703 0.705570 0.073342
H15   H     H_    0.528157 0.815708 0.700134 0.135955
H16   H     H_    0.804969 0.059460 0.682371 0.112915
H17   H     H_    0.355926 0.029668 0.709769 0.089697
H18   H     H_    0.099986 0.703522 0.344380 0.096026
H19   H     H_    0.897029 0.779773 0.341643 -0.024784
H20   H     H_    0.194637 0.815291 0.283435 0.149855
H21   H     H_    0.036734 0.738340 0.258657 0.120814
H22   H     H_    0.984252 0.880113 0.277597 0.119035
H23   H     H_    0.279687 0.063835 0.439269 0.083962
H24   H     H_    0.651605 0.790649 0.381483 -0.046590
H25   H     H_    0.432022 0.836819 0.386144 0.085451
H26   H     H_    0.666174 0.900041 0.312119 0.135871
H27   H     H_    0.583728 0.981022 0.367679 0.075844
H28   H     H_    0.447844 0.945229 0.315643 0.131326
H29   H     H_    0.154672 0.452403 0.284600 0.131736
H30   H     H_    0.196012 0.251203 0.118422 0.142675
H31   H     H_    0.566073 0.485845 0.756316 0.105400
H32   H     H_    0.481711 0.289838 0.887171 0.120843
H33   H     H_    0.418914 0.289070 0.972579 0.143456
H34   H     H_    0.093912 0.083977 0.401203 0.135099
H35   H     H_    0.639440 0.541010 0.242404 0.106705
H36   H     H_    0.798526 0.753271 0.121831 0.122686
H37   H     H_    0.863963 0.736439 0.958791 0.068881
H38   H     H_    0.341541 0.163356 0.643550 -0.029464
H39   H     H_    0.934045 0.735467 0.873953 0.119396
H40   H     H_    0.044024 0.540788 0.715339 0.127543
H41   H     H_    0.861610 0.755884 0.036769 0.068136
H42   H     H_    0.831829 0.578199 0.393972 0.068832
H43   H     H_    0.367233 0.434846 0.603940 0.071132
H44   H     H_    0.340893 0.959305 0.554251 0.095036
H45   H     H_    0.849207 0.763185 0.574886 0.001411
H46   H     H_    0.853649 0.049005 0.444506 0.107358
H47   H     H_    0.805736 0.737020 0.476900 0.059078
H48   H     H_    0.384108 0.273571 0.525148 0.065876
H49   H     H_    0.160794 0.999214 0.684006 0.126630
H50   H     H_    0.337767 0.977573 0.644844 0.121706
H51   H     H_    0.339008 0.243375 0.427182 0.008760
H52   H     H_    0.134727 0.251922 0.451687 0.074203
H53   H     H_    0.111166 0.293623 0.808682 0.130996
H54   H     H_    0.991998 0.377304 0.766199 0.147096
H55   H     H_    0.895356 0.287095 0.797850 0.146578
H56   H     H_    0.049176 0.742721 0.546495 0.076768
H57   H     H_    0.940525 0.205696 0.712461 0.188768
H58   H     H_    0.080126 0.131886 0.753142 0.106063
H59   H     H_    0.306859 0.228602 0.730816 0.125968
H60   H     H_    0.165581 0.307323 0.692638 0.109185
H61   H     H_    0.065990 0.221811 0.973952 0.032978
H62   H     H_    0.185405 0.095327 0.982440 0.078631
H63   H     H_    0.046295 0.158616 0.030382 0.039648
H64   H     H_    0.940076 0.926173 0.627415 0.122777
H65   H     H_    0.914042 0.937477 0.561420 0.084664
H66   H     H_    0.117316 0.907569 0.588855 0.119787
N1    N     N_R   0.940391 0.503686 0.203468 -0.423168
N2    N     N_R   0.267419 0.510348 0.796939 -0.423919
O1    O     O_2   0.907040 0.557650 0.617910 -0.470955
O2    O     O_2   0.184552 0.883381 0.466186 -0.480661
O3    O     O_3   0.081182 0.863027 0.373618 -0.609850
O4    O     O_3   0.139040 0.557570 0.557730 -0.492997
O5    O     O_3   0.571310 0.369620 0.475470 -0.485768
O6    O     O_2   0.348200 0.764910 0.523260 -0.461133
O7    O     O_3   0.528908 0.803004 0.604725 -0.656119
O8    O     O_2   0.352335 0.576493 0.326701 -0.500339
O9    O     O_3   0.504389 0.738028 0.321665 -0.586925
O10   O     O_2   0.077174 0.335685 0.199251 -0.597387
O11   O     O_2   0.441493 0.357322 0.804018 -0.604845
O12   O     O_3   0.661743 0.216074 0.397313 -0.641997
O13   O     O_2   0.804072 0.670646 0.200870 -0.602158
O14   O     O_2   0.092241 0.664968 0.797188 -0.602196
O15   O     O_3   0.684960 0.360550 0.588460 -0.486136
O16   O     O_2   0.847802 0.416138 0.672333 -0.490158
O17   O     O_3   0.041554 0.728976 0.623126 -0.631057
O18   O     O_3   0.664333 0.270135 0.679025 -0.598939
O19   O     O_2   0.841490 0.235060 0.476710 -0.473656
O20   O     O_3   0.099640 0.305100 0.564190 -0.465994
O21   O     O_2   0.012263 0.118258 0.532882 -0.484799
O22   O     O_3   0.263497 0.223255 0.025620 -0.656296
O23   O     O_3   0.093553 0.145934 0.627535 -0.602899
O24   O     O_2   0.282660 0.442310 0.382060 -0.461703
O25   O     O_3   0.050670 0.442340 0.442260 -0.496746
O26   O     O_3   0.504750 0.639360 0.411530 -0.476954
O27   O     O_3   0.150811 0.270939 0.376210 -0.627019
O28   O     O_3   0.618400 0.630290 0.524520 -0.478074
O29   O     O_3   0.090070 0.694820 0.435810 -0.490700
P1    P     P_3+3 0.072810 0.589830 0.610360 0.998161
P2    P     P_3+3 0.661990 0.251250 0.462170 0.971923
P3    P     P_3+3 0.142312 0.168421 0.567179 0.946537
P4    P     P_3+3 0.116900 0.410080 0.389630 0.992557
P5    P     P_3+3 0.049504 0.833533 0.433953 0.937866
P6    P     P_3+3 0.677270 0.388289 0.653507 0.977612
P7    P     P_3+3 0.532699 0.764727 0.540128 0.933771
P8    P     P_3+3 0.514537 0.616028 0.346179 0.973121

loop_
_geom_bond_atom_site_label_1
_geom_bond_atom_site_label_2
_ccdc_geom_bond_type
C19   C24   A    
C3    H35   S    
C26   O14   D    
O17   P1    S    
O2    P5    D    
C49   P2    S    
C31   P1    S    
C6    P4    S    
Ba2   O26   S    
C52   O17   S    
C4    O23   S    
C14   H42   S    
O26   P8    S    
C54   C55   A    
C40   H12   S    
C2    O13   D    
C10   C66   A    
C24   C25   A    
C60   C61   S    
C20   H33   S    
C44   H47   S    
C38   O22   S    
C17   C19   A    
C22   C24   A    
O7    P7    S    
Ba1   Ba2   S    
C35   C38   A    
C36   C37   A    
C62   H54   S    
C28   H51   S    
O20   P3    S    
C34   H15   S    
C62   H53   S    
C52   H45   S    
C40   H34   S    
O15   P6    S    
O23   P3    S    
Ba2   O25   S    
O3    P5    S    
C32   C33   S    
C41   H37   S    
C11   H30   S    
Ba1   O19   S    
C22   C27   A    
C64   O9    S    
C17   C35   A    
C9    C13   A    
C25   C42   A    
C46   C49   A    
Ba1   O28   S    
C34   H14   S    
C6    C7    D    
C11   C38   A    
C44   C53   A    
C65   H26   S    
O24   P4    D    
Ba1   O15   S    
C29   H31   S    
C7    C8    S    
C16   H50   S    
C37   C43   A    
O25   P4    S    
C46   C48   A    
C21   H32   S    
Ba1   O25   S    
C6    C14   D    
C26   N2    Am   
C12   O18   S    
C65   H27   S    
C23   O7    S    
C15   C31   D    
C28   O27   S    
C15   H43   S    
O21   P3    D    
O1    P1    D    
C63   H63   S    
C63   H62   S    
C52   C57   S    
C51   C53   A    
O4    P1    S    
C4    C16   S    
C57   H64   S    
O5    P2    S    
C16   H17   S    
C15   C30   S    
C49   C50   A    
C45   H18   S    
C17   C20   A    
C8    N1    S    
C13   C39   A    
O19   P2    D    
C3    C5    S    
O16   P6    D    
C64   H24   S    
Ba2   P4    S    
C58   H3    S    
C59   H5    S    
C57   H65   S    
C59   H7    S    
C23   H10   S    
C58   C59   S    
C12   H8    S    
O8    P8    D    
Ba1   O20   S    
C41   C42   A    
C35   C36   A    
C29   C30   S    
Ba2   O29   S    
C58   H2    S    
C34   H13   S    
C21   C22   A    
C31   C32   D    
C4    H38   S    
C18   C19   A    
C56   H22   S    
C16   H49   S    
C61   H57   S    
C1    C12   S    
C47   H44   S    
C66   O10   D    
C5    C14   S    
C30   P6    S    
O9    P8    S    
C2    N1    Am   
C48   P3    S    
C65   H28   S    
Ba2   O6    S    
C12   H1    S    
C29   C33   D    
O28   P7    S    
C45   O3    S    
Ba2   O28   S    
C1    H9    S    
C53   P7    S    
C25   C26   A    
C18   C41   A    
Ba1   O1    S    
C50   C51   A    
O6    P7    D    
C42   H39   S    
O29   P5    S    
O12   P2    S    
C52   H56   S    
C7    H29   S    
C54   P5    S    
C64   H25   S    
C23   H11   S    
C66   N1    Am   
C63   O22   S    
C56   H20   S    
C33   N2    S    
C27   O11   D    
C63   H61   S    
C9    C10   A    
C55   H46   S    
C59   H6    S    
C62   H55   S    
C57   H66   S    
C39   H36   S    
C46   H48   S    
Ba2   O4    S    
C4    C60   S    
C2    C13   A    
C1    H4    S    
C18   C37   A    
C32   H40   S    
C3    C8    D    
C39   C43   A    
C45   C56   S    
C60   H60   S    
C60   H59   S    
C28   H52   S    
Ba1   P1    S    
C47   C51   A    
C5    P8    S    
O18   P6    S    
C64   C65   S    
C43   H41   S    
O27   P4    S    
C56   H21   S    
C61   H58   S    
Ba1   O5    S    
C50   C55   A    
C23   C34   S    
C61   C62   S    
C27   N2    Am   
C10   C11   A    
Ba2   O24   S    
C47   C48   A    
C44   C54   A    
C1    H16   S    
Ba2   O5    S    
Ba1   P2    S    
C20   C21   A    
C28   C40   S    
C9    C36   A    
Ba1   O4    S    
C58   O12   S    
C40   H23   S    
C45   H19   S    
