data_mof_unit_21451.cif
_audit_creation_date              2012-12-10T20:30:09-0500
_audit_creation_method            fapswitch 2.2
_symmetry_space_group_name_H-M    P1
_symmetry_Int_Tables_number       1
_space_group_crystal_system       triclinic
_cell_length_a                    9.928368
_cell_length_b                    10.727399
_cell_length_c                    12.987372
_cell_angle_alpha                 90.982798
_cell_angle_beta                  69.592837
_cell_angle_gamma                 90.566621
_cell_volume                      1296.21184407

loop_
_atom_site_label
_atom_site_type_symbol
_atom_type_description
_atom_site_fract_x
_atom_site_fract_y
_atom_site_fract_z
_atom_type_partial_charge
C1    C     C_R   0.498823 0.739553 0.502992 0.906276
C2    C     C_R   0.427504 0.500232 0.987882 -0.043859
C3    C     C_R   0.435266 0.448430 0.885203 -0.233090
C4    C     C_R   0.532199 0.463148 0.032768 -0.019925
C5    C     C_R   0.618590 0.356288 0.988794 -0.124438
C6    C     C_R   0.610644 0.295287 0.894664 0.496395
C7    C     C_R   0.515815 0.337865 0.845280 0.356887
C8    C     C_R   0.559635 0.532126 0.116558 0.495114
C9    C     C_R   0.711611 0.366467 0.137963 -0.277755
C10   C     C_R   0.367147 0.512336 0.823150 -0.066591
C11   C     C_R   0.372112 0.934759 0.514428 0.088055
C12   C     C_R   0.419849 0.501110 0.704374 0.915040
C13   C     C_R   0.490907 0.870742 0.518640 -0.133153
C14   C     C_R   0.600720 0.935158 0.541052 -0.319635
C15   C     C_R   0.602709 0.065016 0.541982 0.500280
C16   C     C_R   0.493675 0.128343 0.516820 -0.157204
C17   C     C_R   0.376603 0.061567 0.509209 -0.111201
C18   C     C_3   0.294888 0.061258 0.430664 0.418823
C19   C     C_3   0.287510 0.919752 0.439352 -0.499864
C20   C     C_R   0.907940 0.595271 0.548804 -0.032597
C21   C     C_R   0.950555 0.410848 0.445403 -0.132439
C22   C     C_R   0.094275 0.411377 0.442851 0.419842
C23   C     C_R   0.498736 0.260154 0.502894 0.923119
C24   C     C_R   0.047834 0.593072 0.552395 0.012136
C25   C     C_3   0.999780 0.631812 0.671742 0.870872
C26   C     C_3   0.846163 0.636915 0.665956 0.089048
C27   C     C_R   0.580469 0.498779 0.295427 0.840608
C28   C     C_R   0.710556 0.311055 0.040873 -0.169329
C29   C     C_R   0.630915 0.473825 0.178213 -0.180442
C30   C     C_R   0.272429 0.609563 0.870117 -0.239650
C31   C     C_R   0.240087 0.641437 0.979619 -0.284374
C32   C     C_R   0.312262 0.584017 0.041449 0.676171
H1    H     H_    0.767943 0.321310 0.184993 0.161755
H2    H     H_    0.187157 0.104178 0.469172 0.139934
H3    H     H_    0.176967 0.884692 0.483658 0.194545
H4    H     H_    0.345358 0.867574 0.362098 0.223297
H5    H     H_    0.914746 0.338665 0.401532 0.185349
H6    H     H_    0.768389 0.567714 0.716505 0.148986
H7    H     H_    0.774348 0.228028 0.011074 0.185634
H8    H     H_    0.227087 0.663345 0.820615 0.207200
H9    H     H_    0.162336 0.714233 0.015637 0.156403
H10   H     H_    0.689041 0.885347 0.551098 0.197565
N1    N     N_R   0.856940 0.500860 0.500710 -0.133974
N2    N     N_R   0.142580 0.500820 0.500710 -0.144810
O1    O     O_R   0.385310 0.683210 0.499990 -0.585674
O2    O     O_R   0.614650 0.683240 0.500000 -0.603394
O3    O     O_R   0.328390 0.499940 0.653610 -0.566266
O4    O     O_R   0.557730 0.499980 0.653620 -0.582332
O5    O     O_R   0.385350 0.316760 0.500000 -0.637825
O6    O     O_R   0.614690 0.316790 0.500010 -0.551410
O7    O     O_R   0.442270 0.500020 0.346380 -0.605255
O8    O     O_R   0.671610 0.500060 0.346390 -0.628417
Zn1   Zn    Zn3+2 0.346870 0.499980 0.499990 1.013349
Zn2   Zn    Zn3+2 0.653130 0.500020 0.500010 0.980526
O9    O     O_3   0.713383 0.129667 0.560644 -0.723767
H11   H     H_    0.780150 0.069918 0.574991 0.320371
O10   O     O_3   0.365081 0.105537 0.321671 -0.554530
C33   C     C_3   0.513705 0.078949 0.274616 -0.215954
H12   H     H_    0.544947 0.987991 0.298694 0.132972
H13   H     H_    0.577190 0.155119 0.294457 0.136138
H14   H     H_    0.543622 0.076252 0.183969 0.201960
O11   O     O_3   0.181151 0.319644 0.379792 -0.759475
H15   H     H_    0.281180 0.342408 0.366930 0.405954
O12   O     O_3   0.027418 0.532633 0.732923 -0.624112
C34   C     C_3   0.944828 0.540470 0.846148 -0.374562
H16   H     H_    0.960109 0.453226 0.885132 0.204165
H17   H     H_    0.828076 0.549651 0.862745 0.148095
H18   H     H_    0.982492 0.616611 0.887873 0.182617
O13   O     O_3   0.071123 0.745488 0.679340 -0.625808
C35   C     C_3   0.997444 0.818998 0.773297 -0.309758
H19   H     H_    0.064334 0.828068 0.825854 0.169828
H20   H     H_    0.889531 0.783639 0.824135 0.194957
H21   H     H_    0.983484 0.914021 0.746256 0.187652
O14   O     O_3   0.688765 0.187959 0.854162 -0.573509
C36   C     C_3   0.817454 0.221261 0.769633 -0.227676
H22   H     H_    0.890057 0.273622 0.803434 0.143651
H23   H     H_    0.797459 0.276520 0.704571 0.213016
H24   H     H_    0.873952 0.134793 0.730348 0.172516
O15   O     O_3   0.786199 0.756782 0.676331 -0.748379
H25   H     H_    0.856260 0.812303 0.623092 0.333510
O16   O     O_3   0.524566 0.657218 0.133006 -0.725193
H26   H     H_    0.565848 0.694190 0.186028 0.305478
O17   O     O_3   0.272175 0.611724 0.152586 -0.561850
C37   C     C_3   0.131516 0.567954 0.208120 -0.287404
H27   H     H_    0.050732 0.611378 0.178629 0.141546
H28   H     H_    0.101477 0.595178 0.295804 0.195232
H29   H     H_    0.126375 0.464557 0.201921 0.175006
O18   O     O_3   0.498955 0.264762 0.762075 -0.699806
H30   H     H_    0.398717 0.273486 0.764272 0.308814

loop_
_geom_bond_atom_site_label_1
_geom_bond_atom_site_label_2
_ccdc_geom_bond_type
O9    H11   S    
C27   C29   S    
C37   H29   S    
C12   O4    A    
O16   H26   S    
O4    Zn2   S    
C11   C19   S    
O6    Zn2   S    
C8    C29   A    
C37   H28   S    
C3    C7    A    
C19   H4    S    
C30   C31   A    
C1    O2    A    
C23   O5    A    
C33   H13   S    
C15   C16   A    
C21   H5    S    
C2    C32   A    
C18   C19   S    
C4    C8    A    
N1    Zn2   S    
C21   N1    A    
N2    Zn1   S    
C22   N2    A    
O17   C37   S    
O8    Zn2   S    
C16   C17   A    
C34   H17   S    
C35   H19   S    
C9    C29   A    
O3    Zn1   S    
C33   H14   S    
O1    Zn1   S    
C13   C14   A    
C9    H1    S    
C12   O3    A    
C27   O7    A    
C6    O14   S    
O14   C36   S    
C8    O16   S    
C20   C24   A    
C37   H27   S    
C26   H6    S    
C23   O6    A    
C28   H7    S    
C33   H12   S    
O7    Zn1   S    
C25   O12   S    
C15   O9    S    
C2    C4    A    
C36   H22   S    
O11   H15   S    
C22   O11   S    
C5    C28   A    
C36   H23   S    
C10   C30   A    
C18   O10   S    
C7    O18   S    
C34   H18   S    
O2    Zn2   S    
C35   H21   S    
C17   C18   S    
C30   H8    S    
C24   C25   S    
C18   H2    S    
C10   C12   S    
C16   C23   S    
C24   N2    A    
C25   O13   S    
C20   N1    A    
C27   O8    A    
C32   O17   S    
C11   C17   A    
C31   H9    S    
C31   C32   A    
C4    C5    A    
C6    C7    A    
C26   O15   S    
C14   H10   S    
O12   C34   S    
C2    C3    A    
C25   C26   S    
C3    C10   A    
C19   H3    S    
C11   C13   A    
C1    O1    A    
O10   C33   S    
C5    C6    A    
C20   C26   S    
O5    Zn1   S    
O13   C35   S    
C36   H24   S    
O15   H25   S    
C1    C13   S    
O18   H30   S    
C34   H16   S    
C14   C15   A    
C35   H20   S    
C21   C22   A    
C9    C28   A    
