data_mof_unit_62082.cif
_audit_creation_date              2013-03-05T15:55:40-0500
_audit_creation_method            fapswitch 2.2
_symmetry_space_group_name_H-M    P1
_symmetry_Int_Tables_number       1
_space_group_crystal_system       triclinic
_cell_length_a                    23.56902
_cell_length_b                    31.89668
_cell_length_c                    23.573973
_cell_angle_alpha                 89.992086
_cell_angle_beta                  89.998443
_cell_angle_gamma                 90.071669
_cell_volume                      17722.2738881

loop_
_atom_site_label
_atom_site_type_symbol
_atom_site_description
_atom_site_fract_x
_atom_site_fract_y
_atom_site_fract_z
_atom_type_partial_charge
O1    O     O_R   0.546670 1.000000 0.417240 -0.617229
O2    O     O_R   0.546670 0.000000 0.582760 -0.617563
O3    O     O_R   0.046670 0.500000 0.917240 -0.617132
O4    O     O_R   0.046670 0.500000 0.082760 -0.617659
O5    O     O_R   0.453230 0.000000 0.417310 -0.611487
O6    O     O_R   0.453230 0.000000 0.582690 -0.611446
O7    O     O_R   0.953230 0.500000 0.917310 -0.611518
O8    O     O_R   0.953230 0.500000 0.082690 -0.611423
C1    C     C_R   0.499934 0.000003 0.390433 0.910354
C2    C     C_R   0.499933 0.000003 0.609567 0.909977
C3    C     C_R   0.999934 0.500003 0.890433 0.910520
C4    C     C_R   0.999933 0.500004 0.109567 0.909800
O9    O     O_R   0.546670 0.938190 0.500000 -0.613279
O10   O     O_R   0.546670 0.061810 0.500000 -0.631568
O11   O     O_R   0.046670 0.438190 0.000000 -0.613281
O12   O     O_R   0.046670 0.561810 0.000000 -0.631524
O13   O     O_R   0.453220 0.938690 0.500000 -0.608834
O14   O     O_R   0.453220 0.061310 0.500000 -0.601908
O15   O     O_R   0.953220 0.438690 0.000000 -0.608834
O16   O     O_R   0.953220 0.561310 0.000000 -0.601943
C5    C     C_R   0.499727 0.918616 0.500000 0.901516
C6    C     C_R   0.499822 0.081348 0.499988 0.904659
C7    C     C_R   0.999728 0.418616 0.000000 0.901516
C8    C     C_R   0.999823 0.581347 0.999986 0.904665
Zn1   Zn    Zn3+2 0.562350 0.000000 0.500000 0.969533
Zn2   Zn    Zn3+2 0.062350 0.500000 0.000000 0.969566
Zn3   Zn    Zn3+2 0.437550 0.000000 0.500000 0.992835
Zn4   Zn    Zn3+2 0.937550 0.500000 0.000000 0.992812
C9    C     C_3   0.525807 0.736416 0.453557 0.312130
C10   C     C_3   0.528333 0.264520 0.546822 0.367669
C11   C     C_3   0.529789 0.264440 0.454620 0.372268
C12   C     C_3   0.524934 0.736403 0.546898 0.312145
C13   C     C_3   0.025356 0.236415 0.953302 0.312122
C14   C     C_3   0.026464 0.764533 0.047940 0.367995
C15   C     C_3   0.031465 0.764441 0.955877 0.372741
C16   C     C_3   0.025387 0.236404 0.046646 0.312159
C17   C     C_3   0.472058 0.763679 0.453566 0.382194
C18   C     C_3   0.475521 0.235962 0.545856 0.390825
C19   C     C_3   0.476942 0.235964 0.453881 0.391971
C20   C     C_3   0.471194 0.763666 0.545889 0.382173
C21   C     C_3   0.971608 0.263678 0.953830 0.382175
C22   C     C_3   0.973742 0.735960 0.044955 0.391192
C23   C     C_3   0.978712 0.735946 0.953112 0.392771
C24   C     C_3   0.971640 0.263667 0.046158 0.382193
H1    H     H_    0.399580 0.723396 0.499054 0.163153
H2    H     H_    0.402500 0.274301 0.498745 0.167810
H3    H     H_    0.899575 0.223395 0.000020 0.163150
H4    H     H_    0.902561 0.774258 0.995043 0.167874
C25   C     C_1   0.499262 0.874211 0.499994 -0.168466
C26   C     C_1   0.499891 0.125682 0.500026 -0.184725
C27   C     C_1   0.999262 0.374211 0.999995 -0.168468
C28   C     C_1   0.999892 0.625681 0.000090 -0.184633
C29   C     C_1   0.499513 0.625900 0.499985 -0.184159
C30   C     C_1   0.499958 0.374188 0.500035 -0.176982
C31   C     C_1   0.999513 0.125900 0.999988 -0.184159
C32   C     C_1   0.999924 0.874190 0.000045 -0.176951
C33   C     C_3   0.552659 0.763454 0.500484 0.218744
C34   C     C_3   0.557365 0.237464 0.501241 0.208067
C35   C     C_3   0.052661 0.263454 0.999964 0.218748
C36   C     C_3   0.057244 0.737474 0.003522 0.207215
C37   C     C_3   0.498950 0.791382 0.499984 -0.097793
C38   C     C_3   0.504314 0.208402 0.500258 -0.184604
C39   C     C_3   0.998949 0.291382 0.999985 -0.097799
C40   C     C_3   0.004289 0.708399 0.000516 -0.184900
C41   C     C_3   0.498364 0.708709 0.499973 -0.091612
C42   C     C_3   0.500766 0.291469 0.500229 -0.104152
C43   C     C_3   0.998364 0.208709 0.999982 -0.091614
C44   C     C_3   0.000694 0.791472 0.000316 -0.104561
C45   C     C_3   0.443530 0.735912 0.499464 -0.466788
C46   C     C_3   0.447045 0.263076 0.499417 -0.474834
C47   C     C_3   0.943528 0.235912 0.000004 -0.466793
C48   C     C_3   0.947060 0.763060 0.997444 -0.475430
C49   C     C_1   0.499024 0.836767 0.499989 0.139970
C50   C     C_1   0.501344 0.163076 0.500097 0.070896
C51   C     C_1   0.999023 0.336767 0.999990 0.139966
C52   C     C_1   0.001338 0.663075 0.000243 0.070697
C53   C     C_1   0.498969 0.663342 0.499977 0.105413
C54   C     C_1   0.500155 0.336778 0.500109 0.115324
C55   C     C_1   0.998969 0.163343 0.999984 0.105413
C56   C     C_1   0.000098 0.836780 0.000146 0.115037
C57   C     C_1   0.499929 0.000000 0.330298 -0.183689
C58   C     C_1   0.499925 0.000009 0.669701 -0.184098
C59   C     C_1   0.999929 0.500000 0.830299 -0.183559
C60   C     C_1   0.999925 0.500009 0.169701 -0.184231
C61   C     C_1   0.500043 0.999997 0.279593 0.010179
C62   C     C_1   0.500039 0.000012 0.720407 0.009880
C63   C     C_1   0.000043 0.499997 0.779593 0.010274
C64   C     C_1   0.000039 0.500012 0.220407 0.009786
C65   C     C_1   0.500290 0.999993 0.220402 0.009177
C66   C     C_1   0.500288 0.000012 0.779598 0.008979
C67   C     C_1   0.000290 0.499993 0.720402 0.009228
C68   C     C_1   0.000288 0.500012 0.279598 0.008935
C69   C     C_1   0.500565 0.999993 0.169696 -0.185440
C70   C     C_1   0.500564 0.000008 0.830304 -0.185579
C71   C     C_1   0.000565 0.499993 0.669696 -0.185414
C72   C     C_1   0.000564 0.500008 0.330304 -0.185594
O17   O     O_R   0.582830 0.500000 0.453340 -0.611669
O18   O     O_R   0.582830 0.500000 0.546660 -0.611688
O19   O     O_R   0.082830 0.000000 0.953340 -0.611725
O20   O     O_R   0.082830 0.000000 0.046660 -0.611641
C73   C     C_R   0.609853 0.499999 0.499999 0.913347
C74   C     C_R   0.109853 0.999999 0.999999 0.913327
O21   O     O_R   0.500060 0.561660 0.453320 -0.613347
O22   O     O_R   0.500060 0.438340 0.546680 -0.612511
O23   O     O_R   0.500060 0.438340 0.453320 -0.612942
O24   O     O_R   0.500060 0.561660 0.546680 -0.613170
O25   O     O_R   0.000060 0.061660 0.953320 -0.613267
O26   O     O_R   0.000060 0.938340 0.046680 -0.612095
O27   O     O_R   0.000060 0.938340 0.953320 -0.613373
O28   O     O_R   0.000060 0.061660 0.046680 -0.613246
C75   C     C_R   0.500026 0.581495 0.499996 0.900688
C76   C     C_R   0.499939 0.418536 0.500006 0.903027
C77   C     C_R   0.000026 0.081495 0.999996 0.900688
C78   C     C_R   0.999934 0.918537 0.000007 0.903046
Zn5   Zn    Zn3+2 0.500080 0.500000 0.437650 0.981299
Zn6   Zn    Zn3+2 0.500080 0.500000 0.562350 0.981791
Zn7   Zn    Zn3+2 0.000080 1.000000 0.937650 0.981027
Zn8   Zn    Zn3+2 0.000080 0.000000 0.062350 0.982074
O29   O     O_R   0.417300 0.500000 0.453300 -0.617827
O30   O     O_R   0.417300 0.500000 0.546700 -0.617689
O31   O     O_R   0.917300 0.000000 0.953300 -0.617851
O32   O     O_R   0.917300 0.000000 0.046700 -0.617653
C79   C     C_R   0.390614 0.500004 0.500001 0.904292
C80   C     C_R   0.890614 0.000004 0.000001 0.904298
O33   O     O_R   0.418390 0.964110 0.000000 -0.609570
O34   O     O_R   0.418390 0.035890 0.000000 -0.612427
O35   O     O_R   0.918390 0.464110 0.500000 -0.609557
O36   O     O_R   0.918390 0.535890 0.500000 -0.612430
C81   C     C_R   0.392014 0.999978 0.000000 0.890198
C82   C     C_R   0.892014 0.499978 0.500000 0.890194
O37   O     O_R   0.501120 0.965270 0.082820 -0.613844
O38   O     O_R   0.501120 0.034730 0.917180 -0.614842
O39   O     O_R   0.501120 0.034730 0.082820 -0.614755
O40   O     O_R   0.501120 0.965270 0.917180 -0.613846
O41   O     O_R   0.001120 0.465270 0.582820 -0.613882
O42   O     O_R   0.001120 0.534730 0.417180 -0.614894
O43   O     O_R   0.001120 0.534730 0.582820 -0.614699
O44   O     O_R   0.001120 0.465270 0.417180 -0.613803
C83   C     C_R   0.500918 0.999997 0.109560 0.905966
C84   C     C_R   0.500919 0.000002 0.890440 0.905917
C85   C     C_R   0.000918 0.499997 0.609560 0.905956
C86   C     C_R   0.000919 0.500003 0.390440 0.905919
Zn9   Zn    Zn3+2 0.501530 0.953610 0.000000 0.975561
Zn10  Zn    Zn3+2 0.501530 0.046390 0.000000 0.971303
Zn11  Zn    Zn3+2 0.001530 0.453610 0.500000 0.975589
Zn12  Zn    Zn3+2 0.001530 0.546390 0.500000 0.971316
O45   O     O_R   0.583860 0.966430 0.000000 -0.616543
O46   O     O_R   0.583860 0.033570 0.000000 -0.616970
O47   O     O_R   0.083860 0.466430 0.500000 -0.616542
O48   O     O_R   0.083860 0.533570 0.500000 -0.616967
C87   C     C_R   0.610978 0.000024 0.000000 0.920619
C88   C     C_R   0.110979 0.500024 0.500000 0.920614
C89   C     C_1   0.670296 0.499974 0.499998 -0.181507
C90   C     C_1   0.170296 0.999974 0.999998 -0.181526
C91   C     C_1   0.721188 0.499950 0.499997 0.014361
C92   C     C_1   0.221188 0.999950 0.999997 0.014344
C93   C     C_1   0.280676 0.999931 0.999998 0.013500
C94   C     C_1   0.780676 0.499931 0.499998 0.013513
C95   C     C_1   0.331568 0.999935 0.999999 -0.177484
C96   C     C_1   0.831568 0.499935 0.499999 -0.177472
C97   C     C_1   0.330781 0.500035 0.500002 -0.189961
C98   C     C_1   0.830781 0.000035 0.000002 -0.189948
C99   C     C_1   0.280250 0.500062 0.500002 0.003311
C100  C     C_1   0.780250 0.000062 0.000003 0.003316
C101  C     C_1   0.721346 0.000079 0.000002 0.003828
C102  C     C_1   0.221346 0.500079 0.500002 0.003828
C103  C     C_1   0.670814 0.000070 0.000001 -0.194097
C104  C     C_1   0.170814 0.500070 0.500001 -0.194093
O49   O     O_3   0.445873 0.781455 0.405445 -0.604873
C105  C     C_3   0.414861 0.750303 0.376393 0.112663
H5    H     H_    0.376340 0.741583 0.400993 0.150077
H6    H     H_    0.440913 0.721744 0.368560 0.164199
C106  C     C_3   0.395994 0.767519 0.319288 -0.825665
H7    H     H_    0.433619 0.776190 0.293434 0.250751
H8    H     H_    0.371111 0.743368 0.296177 0.208286
H9    H     H_    0.369061 0.795693 0.325535 0.266545
O50   O     O_3   0.449246 0.218163 0.593952 -0.595827
C107  C     C_3   0.419595 0.249490 0.623930 0.128449
H10   H     H_    0.381117 0.259083 0.599913 0.144686
H11   H     H_    0.446577 0.277541 0.632088 0.171357
C108  C     C_3   0.400950 0.231983 0.680953 -0.825958
H12   H     H_    0.438686 0.222525 0.706099 0.255257
H13   H     H_    0.377117 0.256255 0.704839 0.206000
H14   H     H_    0.373103 0.204265 0.674568 0.265367
O51   O     O_3   0.452016 0.218200 0.405054 -0.596617
C109  C     C_3   0.423570 0.249612 0.374076 0.124586
H15   H     H_    0.451105 0.277464 0.366515 0.170670
H16   H     H_    0.384542 0.259524 0.396941 0.145561
C110  C     C_3   0.406326 0.232038 0.316660 -0.824524
H17   H     H_    0.378007 0.204508 0.322428 0.265345
H18   H     H_    0.383441 0.256378 0.291978 0.206134
H19   H     H_    0.444640 0.222277 0.292629 0.255108
O52   O     O_3   0.444111 0.781429 0.593514 -0.604848
C111  C     C_3   0.412565 0.750268 0.621981 0.112742
H20   H     H_    0.438466 0.721705 0.630283 0.164217
H21   H     H_    0.374504 0.741561 0.596672 0.150106
C112  C     C_3   0.392649 0.767462 0.678734 -0.825723
H22   H     H_    0.365845 0.795643 0.672004 0.266511
H23   H     H_    0.367338 0.743304 0.701373 0.208346
H24   H     H_    0.429792 0.776117 0.705279 0.250752
O53   O     O_3   0.944957 0.281453 0.905965 -0.604854
C113  C     C_3   0.913667 0.250299 0.877216 0.112752
H25   H     H_    0.875383 0.241584 0.902185 0.150064
H26   H     H_    0.939642 0.221738 0.869140 0.164190
C114  C     C_3   0.894258 0.267509 0.820291 -0.825899
H27   H     H_    0.931637 0.276174 0.794078 0.250770
H28   H     H_    0.869153 0.243357 0.797423 0.208231
H29   H     H_    0.867392 0.295686 0.826788 0.266526
O54   O     O_3   0.945655 0.718161 0.092018 -0.595628
C115  C     C_3   0.914854 0.749483 0.120820 0.128646
H30   H     H_    0.877338 0.759075 0.095326 0.144577
H31   H     H_    0.941494 0.777536 0.130022 0.171381
C116  C     C_3   0.894005 0.731970 0.177073 -0.825930
H32   H     H_    0.930733 0.722504 0.203667 0.255275
H33   H     H_    0.869266 0.756241 0.200017 0.205955
H34   H     H_    0.866420 0.704256 0.169605 0.265360
O55   O     O_3   0.955759 0.718171 0.903336 -0.596301
C117  C     C_3   0.928472 0.749558 0.871288 0.125606
H35   H     H_    0.956200 0.777459 0.864851 0.170929
H36   H     H_    0.888540 0.759392 0.892602 0.145223
C118  C     C_3   0.913572 0.731993 0.813215 -0.824698
H37   H     H_    0.885127 0.704414 0.817828 0.265291
H38   H     H_    0.891611 0.756312 0.787671 0.206080
H39   H     H_    0.952838 0.722309 0.790711 0.255211
O56   O     O_3   0.945022 0.281432 0.094044 -0.604866
C119  C     C_3   0.913749 0.250273 0.122814 0.112633
H40   H     H_    0.939728 0.221711 0.130875 0.164222
H41   H     H_    0.875449 0.241562 0.097870 0.150117
C120  C     C_3   0.894371 0.267472 0.179750 -0.825462
H42   H     H_    0.867501 0.295650 0.173269 0.266521
H43   H     H_    0.869278 0.243316 0.202633 0.208414
H44   H     H_    0.931764 0.276133 0.205940 0.250738
O57   O     O_3   0.553374 0.718476 0.406290 -0.616499
C121  C     C_3   0.570677 0.750302 0.368441 0.113723
H45   H     H_    0.592680 0.776544 0.390522 0.176135
H46   H     H_    0.533560 0.762886 0.345011 0.182955
C122  C     C_3   0.611713 0.731822 0.325460 -0.842910
H47   H     H_    0.590820 0.706017 0.301670 0.265398
H48   H     H_    0.625241 0.756453 0.295015 0.211571
H49   H     H_    0.649771 0.719358 0.347513 0.256390
O58   O     O_3   0.552683 0.282981 0.595489 -0.595942
C123  C     C_3   0.579450 0.252065 0.628832 0.136811
H50   H     H_    0.621947 0.244871 0.610971 0.185689
H51   H     H_    0.554210 0.222586 0.631808 0.153032
C124  C     C_3   0.587417 0.268861 0.688651 -0.834828
H52   H     H_    0.545483 0.276076 0.707799 0.255791
H53   H     H_    0.609168 0.245037 0.715202 0.206651
H54   H     H_    0.613572 0.297847 0.687699 0.267800
O59   O     O_3   0.556112 0.282707 0.406838 -0.596260
C125  C     C_3   0.582863 0.251424 0.374094 0.137356
H55   H     H_    0.555302 0.223455 0.367588 0.159792
H56   H     H_    0.623048 0.241505 0.394714 0.191514
C126  C     C_3   0.597114 0.269335 0.316047 -0.835629
H57   H     H_    0.625716 0.296832 0.320636 0.268859
H58   H     H_    0.618680 0.245149 0.289951 0.207085
H59   H     H_    0.557618 0.279241 0.294129 0.256315
O60   O     O_3   0.551608 0.718447 0.594669 -0.616448
C127  C     C_3   0.568211 0.750264 0.632831 0.113501
H60   H     H_    0.530665 0.762864 0.655548 0.182995
H61   H     H_    0.590657 0.776494 0.611166 0.176154
C128  C     C_3   0.608401 0.731763 0.676591 -0.842613
H62   H     H_    0.646861 0.719279 0.655269 0.256409
H63   H     H_    0.621370 0.756389 0.707275 0.211654
H64   H     H_    0.587030 0.705970 0.699989 0.265405
O61   O     O_3   0.052462 0.218473 0.905770 -0.616482
C129  C     C_3   0.069402 0.250299 0.867758 0.113655
H65   H     H_    0.091629 0.276535 0.889625 0.176145
H66   H     H_    0.032061 0.262890 0.844694 0.182966
C130  C     C_3   0.110008 0.231815 0.824375 -0.842829
H67   H     H_    0.088874 0.206016 0.800786 0.265390
H68   H     H_    0.123246 0.256447 0.793804 0.211609
H69   H     H_    0.148276 0.219342 0.846052 0.256397
O62   O     O_3   0.048910 0.782963 0.097534 -0.596070
C131  C     C_3   0.074466 0.752034 0.131800 0.137757
H70   H     H_    0.117729 0.745065 0.115695 0.185709
H71   H     H_    0.049355 0.722439 0.133542 0.152679
C132  C     C_3   0.079769 0.768653 0.192002 -0.835189
H72   H     H_    0.037001 0.775590 0.209417 0.255726
H73   H     H_    0.100611 0.744838 0.219296 0.206772
H74   H     H_    0.105671 0.797766 0.192326 0.267798
O63   O     O_3   0.059536 0.782637 0.909052 -0.596880
C133  C     C_3   0.087895 0.751356 0.877679 0.140071
H75   H     H_    0.061352 0.722840 0.871219 0.158667
H76   H     H_    0.127859 0.742378 0.899489 0.191517
C134  C     C_3   0.102963 0.768728 0.819539 -0.837054
H77   H     H_    0.130583 0.796769 0.824095 0.268732
H78   H     H_    0.125894 0.744574 0.794574 0.207272
H79   H     H_    0.063693 0.777648 0.796467 0.256247
O64   O     O_3   0.052526 0.218452 0.094156 -0.616469
C135  C     C_3   0.069490 0.250269 0.132160 0.113609
H80   H     H_    0.032164 0.262847 0.155259 0.182975
H81   H     H_    0.091694 0.276514 0.110279 0.176135
C136  C     C_3   0.110135 0.231778 0.175505 -0.842696
H82   H     H_    0.148390 0.219318 0.153792 0.256380
H83   H     H_    0.123391 0.256403 0.206068 0.211623
H84   H     H_    0.089026 0.205969 0.199107 0.265424
O65   O     O_3   0.607494 0.781309 0.500996 -0.613723
C137  C     C_3   0.648738 0.749290 0.501374 0.122836
H85   H     H_    0.645484 0.729282 0.462940 0.182193
H86   H     H_    0.644744 0.729248 0.539713 0.182186
C138  C     C_3   0.707390 0.769149 0.501949 -0.846232
H87   H     H_    0.712492 0.788898 0.540422 0.262139
H88   H     H_    0.740327 0.744284 0.502251 0.210836
H89   H     H_    0.713232 0.788932 0.463606 0.262189
O66   O     O_3   0.616414 0.229693 0.501543 -0.598017
C139  C     C_3   0.627609 0.187102 0.512106 0.078304
H90   H     H_    0.613860 0.167758 0.475316 0.154619
H91   H     H_    0.606268 0.176284 0.551658 0.135574
C140  C     C_3   0.691148 0.181201 0.519670 -0.814987
H92   H     H_    0.706374 0.200027 0.556278 0.252379
H93   H     H_    0.700582 0.147617 0.527682 0.209605
H94   H     H_    0.713895 0.191359 0.480748 0.258595
O67   O     O_3   0.107498 0.281310 0.999945 -0.613721
C141  C     C_3   0.148744 0.249291 0.999930 0.122856
H95   H     H_    0.145103 0.229266 0.961547 0.182190
H96   H     H_    0.145138 0.229266 0.038323 0.182190
C142  C     C_3   0.207399 0.269150 0.999898 -0.846257
H97   H     H_    0.212889 0.288916 0.038303 0.262159
H98   H     H_    0.240338 0.244285 0.999886 0.210835
H99   H     H_    0.212854 0.288917 0.961483 0.262168
O68   O     O_3   0.116246 0.729741 0.006087 -0.598471
C143  C     C_3   0.127081 0.687124 0.016821 0.078282
H100  H     H_    0.114678 0.667879 0.979462 0.154645
H101  H     H_    0.104341 0.676197 0.055530 0.135727
C144  C     C_3   0.190311 0.681220 0.026635 -0.815285
H102  H     H_    0.204193 0.699935 0.063873 0.252426
H103  H     H_    0.199479 0.647614 0.034792 0.209678
H104  H     H_    0.214437 0.691506 0.988612 0.258443

loop_
_geom_bond_atom_site_label_1
_geom_bond_atom_site_label_2
_geom_bond_distance
_ccdc_geom_bond_type
O38   Zn10  1.987578 S    
C143  H101  1.113922 S    
C8    C28   1.414102 S    
C63   C67   1.395381 S    
C135  C136  1.520197 S    
C111  H21   1.112318 S    
C14   C22   1.541694 S    
O46   C87   1.247057 A    
O28   Zn8   2.001090 S    
C138  H87   1.110787 S    
C133  H75   1.113759 S    
C35   O67   1.411718 S    
C17   C45   1.550933 S    
C108  H14   1.110694 S    
C143  C144  1.520074 S    
C9    C17   1.537464 S    
O44   Zn11  1.987481 S    
C125  H56   1.110944 S    
C4    C60   1.417600 S    
C131  H70   1.110793 S    
C112  H23   1.110483 S    
O16   C8    1.270106 A    
O25   C77   1.269345 A    
O40   Zn9   1.987481 S    
Zn12  O48   1.983558 S    
C10   O58   1.411283 S    
C123  H51   1.114247 S    
O4    C4    1.269934 A    
C24   O56   1.410673 S    
O52   C111  1.410313 S    
O24   C75   1.269349 A    
C125  C126  1.520190 S    
C106  H8    1.110498 S    
C13   C35   1.538504 S    
C124  H52   1.110906 S    
C91   C94   1.402065 S    
C14   C36   1.539293 S    
C121  H46   1.110102 S    
C12   C33   1.538509 S    
C97   C99   1.190970 T    
C98   C100  1.190970 T    
C108  H13   1.110501 S    
C123  C124  1.520144 S    
C41   C53   1.447119 S    
C113  H25   1.112319 S    
H1    C45   1.109720 S    
O43   Zn12  1.987474 S    
C43   C55   1.447123 S    
C62   C66   1.395382 S    
C14   C44   1.539089 S    
O16   Zn4   1.989700 S    
O34   C81   1.302620 A    
C141  H95   1.110900 S    
C108  H12   1.110894 S    
C2    C58   1.417602 S    
O13   C5    1.270139 A    
O7    Zn4   1.984044 S    
C15   C36   1.540008 S    
C121  C122  1.520223 S    
C142  H99   1.110770 S    
O15   C7    1.270141 A    
C120  H42   1.110684 S    
C69   C83   1.417657 S    
O4    Zn2   1.985663 S    
C44   C48   1.555953 S    
C22   C48   1.548647 S    
C139  H90   1.112443 S    
C30   C76   1.414564 S    
C9    O57   1.411495 S    
C22   O54   1.410765 S    
O35   Zn11  1.988356 S    
O23   C76   1.268886 A    
O39   C83   1.274574 A    
C130  H68   1.110506 S    
O8    Zn4   1.984062 S    
C25   C49   1.194349 T    
C16   C24   1.537461 S    
C137  H85   1.110900 S    
C21   C39   1.542366 S    
C22   C40   1.546103 S    
O37   Zn9   1.987580 S    
C128  H63   1.110511 S    
C138  H89   1.110771 S    
O3    Zn2   1.985685 S    
C60   C64   1.195338 T    
C33   C37   1.548855 S    
O29   C79   1.267902 A    
C34   O66   1.413949 S    
C35   C39   1.548854 S    
C36   C40   1.555626 S    
C13   C21   1.537463 S    
C134  H78   1.110482 S    
C42   C46   1.555883 S    
C87   C103  1.410265 S    
H2    C46   1.109811 S    
O3    C3    1.269936 A    
C111  C112  1.520500 S    
O33   C81   1.302734 A    
O68   C143  1.406361 S    
C124  H54   1.110789 S    
C109  H15   1.113846 S    
O42   Zn12  1.987578 S    
C12   C41   1.547591 S    
C18   C38   1.546135 S    
C144  H104  1.110771 S    
C5    C25   1.416407 S    
C107  H10   1.112334 S    
O51   C109  1.410025 S    
C10   C18   1.541688 S    
O59   C125  1.410934 S    
C136  H82   1.110782 S    
C82   C96   1.424635 S    
C120  H44   1.110706 S    
C33   O65   1.411716 S    
C26   C50   1.193194 T    
C17   O49   1.410663 S    
C128  H62   1.110772 S    
C79   C97   1.410216 S    
C105  H5    1.112318 S    
C68   C72   1.195357 T    
C11   O59   1.411410 S    
O60   C127  1.411266 S    
Zn8   O32   1.985626 S    
C144  H103  1.110497 S    
O5    Zn3   1.984044 S    
C7    C27   1.416401 S    
C15   C23   1.540592 S    
O57   C121  1.411260 S    
C21   C47   1.550935 S    
C29   C75   1.416439 S    
C101  C103  1.190985 T    
C18   O50   1.410770 S    
O22   Zn6   2.001193 S    
C122  H47   1.110685 S    
C102  C104  1.190985 T    
C144  H102  1.110735 S    
H4    C48   1.109814 S    
O64   C135  1.411276 S    
C20   O52   1.410672 S    
C140  H93   1.110485 S    
C16   O64   1.411475 S    
C14   O62   1.411284 S    
O13   Zn3   1.990611 S    
O22   C76   1.268798 A    
O55   C117  1.409998 S    
C20   C37   1.542356 S    
Zn6   O30   1.985626 S    
O45   C87   1.246991 A    
O5    C1    1.270089 A    
C118  H37   1.110690 S    
O19   Zn7   1.985112 S    
C117  H36   1.112383 S    
O8    C4    1.270090 A    
O54   C115  1.410016 S    
O15   Zn4   1.990611 S    
C129  H66   1.110100 S    
O27   C78   1.268896 A    
C9    C41   1.547579 S    
O50   C107  1.410022 S    
Zn5   O29   1.985607 S    
O17   Zn5   1.985112 S    
O32   C80   1.267901 A    
C117  C118  1.520237 S    
O39   Zn10  1.987474 S    
O14   C6    1.270103 A    
O23   Zn5   2.001092 S    
C28   C52   1.193179 T    
C129  C130  1.520208 S    
C128  H64   1.110690 S    
C115  C116  1.520231 S    
C115  H31   1.113829 S    
C32   C56   1.193279 T    
O53   C113  1.410321 S    
O10   C6    1.268560 A    
C132  H73   1.110474 S    
C127  H60   1.110097 S    
O36   Zn12  1.987530 S    
C39   C51   1.447611 S    
O33   Zn9   1.988356 S    
O34   Zn10  1.987530 S    
C111  H20   1.114614 S    
C131  H71   1.114277 S    
C65   C69   1.195357 T    
C112  H22   1.110678 S    
O37   C83   1.274588 A    
C67   C71   1.195357 T    
O41   C85   1.274588 A    
C133  C134  1.520168 S    
C119  H40   1.114615 S    
C132  H74   1.110702 S    
C57   C61   1.195338 T    
C34   C38   1.555746 S    
C59   C63   1.195338 T    
C18   C46   1.548569 S    
C131  C132  1.520154 S    
C70   C84   1.417658 S    
C16   C35   1.538501 S    
O27   Zn7   2.001092 S    
C116  H32   1.110916 S    
C113  H26   1.114623 S    
C100  C101  1.388308 S    
C36   O68   1.413929 S    
C118  H39   1.110895 S    
C140  H94   1.110748 S    
C141  H96   1.110888 S    
O21   C75   1.269335 A    
C135  H80   1.110103 S    
O49   C105  1.410327 S    
O26   C78   1.268767 A    
C142  H98   1.110503 S    
O42   C86   1.274581 A    
O41   Zn11  1.987580 S    
C113  C114  1.520500 S    
C139  H91   1.113939 S    
C89   C91   1.199473 T    
C74   C90   1.424595 S    
C90   C92   1.199473 T    
O30   C79   1.267901 A    
C6    C26   1.414129 S    
C141  C142  1.519935 S    
C116  H33   1.110462 S    
C143  H100  1.112486 S    
C93   C95   1.199489 T    
C130  H67   1.110690 S    
C94   C96   1.199489 T    
C137  H86   1.110892 S    
C88   C104  1.410265 S    
C23   C40   1.544441 S    
C66   C70   1.195357 T    
C80   C98   1.410216 S    
C138  H88   1.110501 S    
C24   C39   1.542361 S    
O12   Zn2   2.006323 S    
C42   C54   1.445302 S    
C139  C140  1.520083 S    
C106  H7    1.110699 S    
C99   C102  1.388308 S    
O1    C1    1.269935 A    
O44   C86   1.274581 A    
C61   C65   1.395381 S    
C3    C59   1.417600 S    
C125  H55   1.113528 S    
C114  H27   1.110692 S    
C15   O63   1.411343 S    
O24   Zn6   2.001090 S    
C137  C138  1.519933 S    
C112  H24   1.110703 S    
O7    C3    1.270090 A    
C134  H77   1.110791 S    
C126  H59   1.110874 S    
C31   C55   1.194376 T    
C123  H50   1.110740 S    
C136  H84   1.110687 S    
C9    C33   1.538501 S    
C71   C85   1.417657 S    
C124  H53   1.110380 S    
O20   Zn8   1.985092 S    
C121  H45   1.113344 S    
C21   O53   1.410664 S    
C116  H34   1.110730 S    
C19   C38   1.544520 S    
O43   C85   1.274574 A    
C92   C93   1.402065 S    
C133  H76   1.110969 S    
O36   C82   1.302620 A    
O6    C2    1.270090 A    
C107  H11   1.113833 S    
O38   C84   1.274581 A    
O18   C73   1.271045 A    
C37   C49   1.447607 S    
C109  C110  1.520239 S    
C120  H43   1.110489 S    
C58   C62   1.195338 T    
O67   C141  1.410871 S    
C126  H57   1.110841 S    
C105  H6    1.114621 S    
C41   C45   1.557589 S    
O2    Zn1   1.985663 S    
C43   C47   1.557589 S    
O10   Zn1   2.006323 S    
C110  H17   1.110674 S    
C107  C108  1.520231 S    
O19   C74   1.271045 A    
C118  H38   1.110449 S    
O66   C139  1.406406 S    
C130  H69   1.110756 S    
C13   O61   1.411491 S    
C38   C50   1.447345 S    
O25   Zn7   2.001191 S    
Zn11  O47   1.982557 S    
C30   C54   1.193283 T    
C105  C106  1.520506 S    
C44   C56   1.445243 S    
C11   C42   1.539123 S    
C23   C48   1.548688 S    
O65   C137  1.410873 S    
O21   Zn5   2.001191 S    
Zn10  O46   1.983558 S    
C16   C43   1.547590 S    
C140  H92   1.110735 S    
Zn9   O45   1.982557 S    
C11   C34   1.540086 S    
C12   O60   1.411470 S    
C27   C51   1.194349 T    
O58   C123  1.410541 S    
C134  H79   1.110894 S    
O40   C84   1.274581 A    
C24   C47   1.550939 S    
C110  H18   1.110477 S    
Zn7   O31   1.985607 S    
O31   C80   1.267902 A    
C64   C68   1.395382 S    
O61   C129  1.411252 S    
O11   C7    1.269714 A    
O12   C8    1.268547 A    
O1    Zn1   1.985685 S    
O9    Zn1   2.005417 S    
C23   O55   1.410846 S    
C20   C45   1.550933 S    
O9    C5    1.269716 A    
O26   Zn8   2.001193 S    
O47   C88   1.246991 A    
C126  H58   1.110432 S    
O11   Zn2   2.005417 S    
C31   C77   1.416442 S    
O63   C133  1.411073 S    
C110  H19   1.110869 S    
C127  H61   1.113312 S    
O18   Zn6   1.985092 S    
O6    Zn3   1.984062 S    
C73   C89   1.424595 S    
H3    C47   1.109725 S    
O20   C74   1.271045 A    
O56   C119  1.410317 S    
C40   C52   1.447307 S    
O28   C77   1.269339 A    
C10   C42   1.539016 S    
C119  H41   1.112316 S    
C122  H48   1.110512 S    
C29   C53   1.194376 T    
O48   C88   1.247057 A    
C122  H49   1.110763 S    
C127  C128  1.520185 S    
O2    C2    1.269933 A    
C81   C95   1.424635 S    
C13   C43   1.547578 S    
C114  H29   1.110687 S    
O14   Zn3   1.989700 S    
C17   C37   1.542373 S    
C119  C120  1.520503 S    
O35   C82   1.302734 A    
C136  H83   1.110510 S    
C117  H35   1.113841 S    
C15   C44   1.539033 S    
C10   C34   1.539253 S    
C106  H9    1.110697 S    
C19   C46   1.548684 S    
C11   C19   1.540719 S    
C135  H81   1.113322 S    
C12   C20   1.537469 S    
C142  H97   1.110786 S    
C129  H65   1.113337 S    
C72   C86   1.417660 S    
C19   O51   1.410863 S    
C115  H30   1.112335 S    
C32   C78   1.414525 S    
C132  H72   1.110894 S    
C114  H28   1.110500 S    
C109  H16   1.112372 S    
O17   C73   1.271045 A    
C1    C57   1.417602 S    
O62   C131  1.410608 S    
