data_mof_unit_30791.cif
_audit_creation_date              2012-12-11T15:10:50-0500
_audit_creation_method            fapswitch 2.2
_symmetry_space_group_name_H-M    P1
_symmetry_Int_Tables_number       1
_space_group_crystal_system       triclinic
_cell_length_a                    21.016757
_cell_length_b                    7.226669
_cell_length_c                    18.571123
_cell_angle_alpha                 90.033537
_cell_angle_beta                  92.82726
_cell_angle_gamma                 90.027477
_cell_volume                      2817.16931428

loop_
_atom_site_label
_atom_site_type_symbol
_atom_type_description
_atom_site_fract_x
_atom_site_fract_y
_atom_site_fract_z
_atom_type_partial_charge
O1    O     O_R   0.448880 0.506250 0.415280 -0.537619
O2    O     O_R   0.551120 0.006250 0.584720 -0.538930
O3    O     O_R   0.434830 0.174000 0.557310 -0.513995
O4    O     O_R   0.565170 0.674000 0.442690 -0.513111
C1    C     C_R   0.418894 0.343957 0.582020 0.766126
C2    C     C_R   0.581120 0.843934 0.417998 0.766575
O5    O     O_R   0.441680 0.176440 0.414130 -0.524875
O6    O     O_R   0.558320 0.676440 0.585870 -0.522941
O7    O     O_R   0.558020 0.007570 0.440520 -0.514053
O8    O     O_R   0.441980 0.507570 0.559480 -0.513593
C3    C     C_R   0.425767 0.345445 0.390271 0.700187
C4    C     C_R   0.574290 0.845665 0.609720 0.697214
O9    O     O_3   0.538160 0.339670 0.508820 -0.367545
O10   O     O_3   0.461840 0.839670 0.491180 -0.367848
V1    V     V_3+5 0.492920 0.064260 0.498360 1.511962
V2    V     V_3+5 0.507080 0.564260 0.501640 1.517448
C5    C     C_R   0.879631 0.062946 0.694477 -0.070145
C6    C     C_R   0.119909 0.558896 0.305863 -0.069288
C7    C     C_R   0.891405 0.949417 0.818215 -0.138407
C8    C     C_R   0.108719 0.449290 0.181533 -0.141116
C9    C     C_R   0.586246 0.847621 0.740694 -0.205804
C10   C     C_R   0.412700 0.333210 0.259281 -0.215293
C11   C     C_R   0.616724 0.894824 0.806519 -0.026176
C12   C     C_R   0.381201 0.367373 0.192746 -0.035429
C13   C     C_R   0.682649 0.936907 0.809958 -0.082006
C14   C     C_R   0.316967 0.426410 0.190245 -0.075271
C15   C     C_R   0.719043 0.911028 0.747511 0.027488
C16   C     C_R   0.280802 0.407313 0.252946 0.032937
C17   C     C_R   0.685337 0.889786 0.678665 0.013241
C18   C     C_R   0.314606 0.388624 0.321721 0.009218
C19   C     C_R   0.787674 0.925746 0.750581 0.069553
C20   C     C_R   0.212308 0.424544 0.249495 0.078483
C21   C     C_R   0.817923 0.981444 0.687939 0.014405
C22   C     C_R   0.181838 0.478825 0.312267 0.012558
C23   C     C_R   0.786751 0.947125 0.620257 -0.080107
C24   C     C_R   0.213148 0.445635 0.379995 -0.080488
C25   C     C_R   0.721279 0.902864 0.615804 -0.159418
C26   C     C_R   0.278775 0.403570 0.384546 -0.159674
C27   C     C_R   0.828091 0.881823 0.812375 -0.109275
C28   C     C_R   0.172393 0.384900 0.186729 -0.099776
C29   C     C_R   0.916007 0.048414 0.760105 -0.075951
C30   C     C_R   0.083572 0.544496 0.240218 -0.077487
C31   C     C_R   0.617417 0.856809 0.676265 -0.098071
C32   C     C_R   0.382474 0.355128 0.323931 -0.096791
H1    H     H_    0.535333 0.820950 0.738683 0.130501
H2    H     H_    0.462867 0.296874 0.260937 0.137159
C33   C     C_1   0.863855 0.938938 0.131253 -0.153588
C34   C     C_1   0.136154 0.438922 0.868757 -0.152363
C35   C     C_1   0.820608 0.924597 0.174503 0.051146
C36   C     C_1   0.179403 0.424585 0.825510 0.052085
C37   C     C_1   0.769576 0.905042 0.225981 0.047886
C38   C     C_1   0.230441 0.405049 0.774038 0.046714
C39   C     C_1   0.726599 0.888055 0.269442 0.038542
C40   C     C_1   0.273421 0.388082 0.730580 0.036187
C41   C     C_1   0.675651 0.868630 0.321029 0.051883
C42   C     C_1   0.324370 0.368677 0.678995 0.049343
C43   C     C_1   0.632730 0.854597 0.364702 -0.087796
C44   C     C_1   0.367290 0.354649 0.635322 -0.089534
O11   O     O_R   0.058070 0.289240 0.940580 -0.514152
O12   O     O_R   0.941930 0.789240 0.059420 -0.514843
O13   O     O_R   0.058330 0.616740 0.085880 -0.539577
O14   O     O_R   0.941670 0.116740 0.914120 -0.539287
C45   C     C_R   0.071510 0.449227 0.111505 0.722818
C46   C     C_R   0.928498 0.949121 0.888413 0.720992
O15   O     O_R   0.065180 0.619040 0.942700 -0.520678
O16   O     O_R   0.934820 0.119040 0.057300 -0.520679
O17   O     O_R   0.948870 0.787780 0.915270 -0.525798
O18   O     O_R   0.051130 0.287780 0.084730 -0.525667
C47   C     C_R   0.083417 0.450340 0.920456 0.709764
C48   C     C_R   0.916589 0.950345 0.079549 0.709129
O19   O     O_3   0.961870 0.453310 0.991210 -0.366053
O20   O     O_3   0.038130 0.953310 0.008790 -0.366172
V3    V     V_3+5 0.007070 0.728770 0.001630 1.544412
V4    V     V_3+5 0.992930 0.228770 0.998370 1.544773
C49   C     C_2   0.980222 0.135850 0.767844 0.816344
O21   O     O_2   0.026460 0.043649 0.788214 -0.552826
O22   O     O_R   0.987373 0.323871 0.752401 -0.645604
H3    H     H_    0.033207 0.366793 0.758856 0.299008
C50   C     C_2   0.018944 0.629281 0.232818 0.815534
O23   O     O_2   0.973140 0.535473 0.212166 -0.552656
O24   O     O_R   0.010915 0.816675 0.248831 -0.645431
H4    H     H_    0.964881 0.857694 0.242518 0.299742
C51   C     C_2   0.824961 0.924139 0.555075 0.827311
O25   O     O_2   0.869876 0.816374 0.556884 -0.520998
O26   O     O_R   0.810142 0.026256 0.492567 -0.634501
H5    H     H_    0.839725 0.998010 0.452491 0.323221
C52   C     C_2   0.175062 0.421732 0.445224 0.828044
O27   O     O_2   0.130478 0.312688 0.443477 -0.520592
O28   O     O_R   0.189653 0.524348 0.507723 -0.634449
H6    H     H_    0.160200 0.495352 0.547842 0.323241
C53   C     C_2   0.903265 0.179752 0.635336 0.846679
O29   O     O_2   0.956851 0.156534 0.614069 -0.506706
O30   O     O_R   0.863416 0.314912 0.603597 -0.638293
H7    H     H_    0.884361 0.384803 0.563788 0.346725
C54   C     C_2   0.095912 0.674400 0.365211 0.847024
O31   O     O_2   0.042508 0.648813 0.386654 -0.506672
O32   O     O_R   0.135216 0.811099 0.396923 -0.637669
H8    H     H_    0.114068 0.879916 0.436879 0.346693
C55   C     C_1   0.808064 0.749545 0.865318 0.328410
N1    N     N_1   0.792411 0.643178 0.907533 -0.299360
C56   C     C_1   0.193952 0.264197 0.130520 0.317196
N2    N     N_1   0.210897 0.167492 0.085610 -0.303973
C57   C     C_2   0.710874 0.033219 0.874933 0.803357
O33   O     O_2   0.702604 0.972867 0.935293 -0.528092
O34   O     O_R   0.747712 0.192275 0.866604 -0.647667
H9    H     H_    0.765321 0.243418 0.914372 0.315987
C58   C     C_2   0.293033 0.550108 0.130164 0.772789
O35   O     O_2   0.306631 0.521500 0.067926 -0.519738
O36   O     O_R   0.255005 0.702504 0.145701 -0.654870
H10   H     H_    0.241053 0.775184 0.101003 0.320403
C59   C     C_2   0.575970 0.914878 0.869125 0.839794
O37   O     O_2   0.537902 0.792899 0.882307 -0.533469
O38   O     O_R   0.578658 0.076172 0.910812 -0.632133
H11   H     H_    0.547846 0.073650 0.951128 0.321476
C60   C     C_2   0.417965 0.346095 0.127159 0.852368
O39   O     O_2   0.472445 0.405419 0.126338 -0.545582
O40   O     O_R   0.391470 0.250065 0.067554 -0.615500
H12   H     H_    0.421499 0.242269 0.026573 0.320227
C61   C     C_2   0.692079 0.880480 0.543159 0.762443
O41   O     O_2   0.685368 0.725588 0.517728 -0.532483
O42   O     O_R   0.677689 0.036619 0.501158 -0.635294
H13   H     H_    0.685763 0.156945 0.528186 0.295743
C62   C     C_2   0.308042 0.382279 0.457184 0.763197
O43   O     O_2   0.314722 0.227698 0.482820 -0.533181
O44   O     O_R   0.322407 0.538940 0.498993 -0.634711
H14   H     H_    0.314229 0.658914 0.471832 0.295438

loop_
_geom_bond_atom_site_label_1
_geom_bond_atom_site_label_2
_ccdc_geom_bond_type
C52   O27   D    
O30   H7    S    
C15   C17   A    
C54   O31   D    
C5    C53   S    
C34   C47   S    
O2    C4    A    
C2    O7    A    
O32   H8    S    
C62   O43   D    
C33   C35   T    
O26   H5    S    
O5    C3    A    
C56   N2    T    
C1    C44   S    
C51   O25   D    
C23   C25   A    
C12   C14   A    
C4    C31   S    
C6    C30   A    
C8    C28   A    
C62   O44   S    
C53   O30   S    
O18   V4    S    
C60   O39   D    
O16   V4    S    
O12   V3    S    
O15   V3    S    
C18   C26   A    
O13   C45   A    
O14   C46   A    
C28   C56   S    
C9    C31   A    
C10   C32   A    
C59   O37   D    
C42   C44   T    
C35   C37   S    
O1    C3    A    
C36   C38   S    
C58   O35   D    
C19   C21   A    
O17   V3    S    
C26   C62   S    
C34   C36   T    
C30   C50   S    
O6    V2    S    
C17   C31   A    
C6    C54   S    
C58   O36   S    
C2    C43   S    
C18   C32   A    
C5    C21   A    
C38   C40   T    
O24   H4    S    
C9    H1    S    
C39   C41   S    
C24   C52   S    
C40   C42   S    
C15   C19   A    
C46   O17   A    
C16   C20   A    
C59   O38   S    
C53   O29   D    
C50   O24   S    
C23   C51   S    
C13   C57   S    
O5    V1    S    
C60   O40   S    
O22   H3    S    
C37   C39   T    
C20   C22   A    
O4    V2    S    
C49   O21   D    
C33   C48   S    
C29   C49   S    
C49   O22   S    
C27   C55   S    
C55   N1    T    
C25   C61   S    
O12   C48   A    
C7    C46   S    
O6    C4    A    
C3    C32   S    
C57   O34   S    
O1    V2    S    
O2    V1    S    
C6    C22   A    
O11   V4    S    
O42   H13   S    
C61   O42   S    
C7    C27   A    
O11   C47   A    
O4    C2    A    
C10   H2    S    
C41   C43   T    
O44   H14   S    
C10   C12   A    
O3    V1    S    
O38   H11   S    
C45   O18   A    
C51   O26   S    
O20   V3    S    
O3    C1    A    
C14   C58   S    
O19   V4    S    
C8    C30   A    
C61   O41   D    
C54   O32   S    
C13   C15   A    
C11   C59   S    
O34   H9    S    
C14   C16   A    
O13   V3    S    
C8    C45   S    
C9    C11   A    
O7    V1    S    
C16   C18   A    
O8    V2    S    
O40   H12   S    
O16   C48   A    
O15   C47   A    
C24   C26   A    
C21   C23   A    
C19   C27   A    
C22   C24   A    
C20   C28   A    
C5    C29   A    
C50   O23   D    
C1    O8    A    
C11   C13   A    
C12   C60   S    
O9    V2    S    
C17   C25   A    
C57   O33   D    
C52   O28   S    
O10   V1    S    
O14   V4    S    
O28   H6    S    
O36   H10   S    
C7    C29   A    
