data_mof_unit_53601.cif
_audit_creation_date              2012-12-11T16:32:29-0500
_audit_creation_method            fapswitch 2.2
_symmetry_space_group_name_H-M    P1
_symmetry_Int_Tables_number       1
_space_group_crystal_system       triclinic
_cell_length_a                    6.939209
_cell_length_b                    14.402624
_cell_length_c                    15.92522
_cell_angle_alpha                 90.081764
_cell_angle_beta                  89.895677
_cell_angle_gamma                 90.059311
_cell_volume                      1591.606258

loop_
_atom_site_label
_atom_site_type_symbol
_atom_type_description
_atom_site_fract_x
_atom_site_fract_y
_atom_site_fract_z
_atom_type_partial_charge
O1    O     O_R   0.361630 0.167340 0.164570 -0.538575
O2    O     O_R   0.638370 0.832660 0.835430 -0.538225
O3    O     O_R   0.690860 0.157560 0.338690 -0.540626
O4    O     O_R   0.309140 0.842440 0.661310 -0.541107
O5    O     O_R   0.861260 0.336420 0.339380 -0.539489
O6    O     O_R   0.138740 0.663580 0.660620 -0.539045
C1    C     C_R   0.521805 0.134009 0.367352 0.682152
C2    C     C_R   0.478239 0.865774 0.632524 0.675813
O7    O     O_R   0.691330 0.156310 0.165190 -0.535745
O8    O     O_R   0.308670 0.843690 0.834810 -0.537996
O9    O     O_R   0.861730 0.335160 0.164640 -0.537510
O10   O     O_R   0.138270 0.664840 0.835360 -0.537662
C3    C     C_R   0.522430 0.134147 0.136405 0.699739
C4    C     C_R   0.477638 0.866092 0.863346 0.696517
O11   O     O_R   0.361150 0.168600 0.339320 -0.539716
O12   O     O_R   0.638850 0.831400 0.660680 -0.538033
O13   O     O_3   0.527950 0.310560 0.252000 -0.365162
O14   O     O_3   0.472050 0.689440 0.748000 -0.365034
V1    V     V_3+5 0.802770 0.240990 0.251980 1.404313
V2    V     V_3+5 0.197230 0.759010 0.748020 1.403705
O15   O     O_R   0.191450 0.346190 0.165260 -0.537370
O16   O     O_R   0.808550 0.653810 0.834740 -0.537384
C5    C     C_R   0.022857 0.367948 0.136583 0.702166
C6    C     C_R   0.977175 0.632181 0.863510 0.701506
O17   O     O_R   0.190980 0.347440 0.338770 -0.541369
O18   O     O_R   0.809020 0.652560 0.661230 -0.541525
C7    C     C_R   0.022187 0.369493 0.367712 0.670599
C8    C     C_R   0.977873 0.630196 0.632523 0.671902
V3    V     V_3+5 0.302780 0.262760 0.251980 1.407579
V4    V     V_3+5 0.697220 0.737240 0.748020 1.409569
O19   O     O_3   0.027730 0.193200 0.251960 -0.369603
O20   O     O_3   0.972270 0.806800 0.748040 -0.368530
C9    C     C_3   0.924339 0.418362 0.524974 -0.139172
C10   C     C_3   0.075891 0.580913 0.475525 -0.140603
C11   C     C_3   0.098074 0.467675 0.566844 -0.141466
C12   C     C_3   0.902133 0.531626 0.433681 -0.143430
H1    H     H_    0.178743 0.441609 0.622113 0.097754
H2    H     H_    0.821431 0.557586 0.378385 0.095303
H3    H     H_    0.862186 0.350799 0.544882 0.096121
H4    H     H_    0.138230 0.648429 0.455609 0.095685
C13   C     C_3   0.988360 0.560373 0.562439 -0.005265
C14   C     C_3   0.011830 0.438958 0.438056 -0.003497
C15   C     C_3   0.814407 0.511865 0.521400 -0.114931
C16   C     C_3   0.185798 0.487418 0.479115 -0.113867
H5    H     H_    0.661194 0.522193 0.539253 0.106299
H6    H     H_    0.339002 0.477051 0.461267 0.106274
H7    H     H_    0.254306 0.339788 0.761896 0.112214
H8    H     H_    0.757739 0.662813 0.239409 0.108039
C17   C     C_R   0.848813 0.679910 0.030711 -0.151844
C18   C     C_R   0.154501 0.320860 0.969695 -0.152648
C19   C     C_R   0.789405 0.705360 0.111134 -0.118411
C20   C     C_R   0.217510 0.296094 0.889612 -0.119014
C21   C     C_R   0.802872 0.642475 0.176929 -0.138350
C22   C     C_R   0.205298 0.359258 0.824000 -0.142162
C23   C     C_R   0.875815 0.553666 0.162772 -0.139266
C24   C     C_R   0.129073 0.447428 0.837856 -0.138674
C25   C     C_R   0.936406 0.525647 0.081627 0.070411
C26   C     C_R   0.065496 0.474891 0.918710 0.070748
C27   C     C_R   0.922905 0.590025 0.014339 0.058153
C28   C     C_R   0.078610 0.410433 0.985940 0.058415
C29   C     C_R   0.013343 0.435831 0.067200 -0.187987
C30   C     C_R   0.987069 0.564420 0.932973 -0.187815
H9    H     H_    0.837819 0.731885 0.981999 0.117770
H10   H     H_    0.164919 0.268732 0.018294 0.118073
H11   H     H_    0.734273 0.774537 0.122592 0.136447
H12   H     H_    0.274789 0.227301 0.878291 0.137629
H13   H     H_    0.885869 0.507780 0.216294 0.098721
H14   H     H_    0.119813 0.493391 0.784367 0.099699
C31   C     C_3   0.321563 0.025087 0.476509 -0.146459
C32   C     C_3   0.679119 0.974137 0.523357 -0.140641
C33   C     C_3   0.402089 0.924445 0.473721 -0.226360
C34   C     C_3   0.598486 0.075124 0.526249 -0.179421
H15   H     H_    0.322240 0.862235 0.451608 0.104420
H16   H     H_    0.678847 0.137092 0.548579 0.103701
H17   H     H_    0.173967 0.046632 0.458437 0.119952
H18   H     H_    0.826893 0.953647 0.542441 0.119818
C35   C     C_3   0.489093 0.937555 0.562292 -0.089781
C36   C     C_3   0.511375 0.061935 0.437443 -0.060548
C37   C     C_3   0.409366 0.037339 0.564979 0.194808
C38   C     C_3   0.591205 0.962044 0.434757 0.199268
H19   H     H_    0.247761 0.840859 0.238480 0.110397
H20   H     H_    0.765456 0.156856 0.762235 0.114664
C39   C     C_R   0.657067 0.178758 0.969098 -0.150822
C40   C     C_R   0.347313 0.820746 0.030826 -0.149521
C41   C     C_R   0.722772 0.202431 0.889209 -0.118863
C42   C     C_R   0.285590 0.796308 0.111077 -0.114898
C43   C     C_R   0.714388 0.138105 0.824233 -0.135622
C44   C     C_R   0.294063 0.860552 0.176075 -0.148479
C45   C     C_R   0.638726 0.049853 0.838493 -0.149047
C46   C     C_R   0.364266 0.949757 0.161341 -0.146191
C47   C     C_R   0.569809 0.023842 0.918826 0.072829
C48   C     C_R   0.431324 0.976212 0.080862 0.075096
C49   C     C_R   0.580579 0.089400 0.985687 0.060091
C50   C     C_R   0.421028 0.910604 0.014047 0.060608
C51   C     C_R   0.488438 0.934749 0.932850 -0.188704
C52   C     C_R   0.511793 0.065510 0.066790 -0.189089
H21   H     H_    0.665123 0.231706 0.017202 0.117107
H22   H     H_    0.339504 0.767811 0.982700 0.116775
H23   H     H_    0.779451 0.271276 0.877568 0.135945
H24   H     H_    0.232209 0.726905 0.122997 0.135678
H25   H     H_    0.633615 0.002751 0.785603 0.100231
H26   H     H_    0.367696 0.997096 0.214065 0.102576
C53   C     C_3   0.300811 0.079857 0.639205 -0.361782
C54   C     C_3   0.231570 0.178028 0.619819 -0.780350
H27   H     H_    0.356209 0.224371 0.606995 0.222262
H28   H     H_    0.133979 0.177800 0.564616 0.219948
H29   H     H_    0.150661 0.205646 0.674588 0.214284
H30   H     H_    0.174392 0.035509 0.654347 0.181895
H31   H     H_    0.397023 0.081831 0.694647 0.170700
C55   C     C_3   0.687461 0.913700 0.360116 -0.377647
C56   C     C_3   0.898408 0.940961 0.350243 -0.758140
H32   H     H_    0.915137 0.017424 0.347705 0.245601
H33   H     H_    0.983657 0.913042 0.403369 0.210084
H34   H     H_    0.955297 0.911063 0.290991 0.216529
H35   H     H_    0.678614 0.837307 0.368985 0.174481
H36   H     H_    0.608434 0.931602 0.302054 0.171411

loop_
_geom_bond_atom_site_label_1
_geom_bond_atom_site_label_2
_ccdc_geom_bond_type
C26   C30   A    
C41   C43   A    
C17   H9    S    
O13   V3    S    
C12   C14   S    
C56   H32   S    
O4    C2    A    
V1    O19   S    
C54   H28   S    
O9    V1    S    
C9    H3    S    
C10   H4    S    
C9    C14   S    
C11   H1    S    
C40   C42   A    
C34   C37   S    
O3    C1    A    
C36   C38   S    
C25   C27   A    
O12   V4    S    
H20   C43   S    
C39   C49   A    
C8    C13   S    
C48   C52   A    
C18   H10   S    
C19   H11   S    
C31   C33   S    
O7    C3    A    
C55   C56   S    
C46   H26   S    
C34   C36   S    
C9    C11   S    
O5    C7    A    
O7    V1    S    
O6    C8    A    
C16   H6    S    
C17   C19   A    
C18   C20   A    
O3    V1    S    
C53   H30   S    
O14   V4    S    
C45   C47   A    
C42   H24   S    
O14   V2    S    
C35   C37   S    
C2    O12   A    
C32   C35   S    
C13   C15   S    
C37   C53   S    
C31   C36   S    
C10   C13   S    
C14   C16   S    
C11   C13   S    
O1    V3    S    
C33   C38   S    
C20   C22   A    
O11   V3    S    
C21   C23   A    
O15   C5    A    
O17   V3    S    
H8    C21   S    
C22   C24   A    
C3    C52   S    
C32   C38   S    
C9    C15   S    
C10   C16   S    
C34   H16   S    
O8    C4    A    
O8    V2    S    
C33   H15   S    
C1    O11   A    
C24   H14   S    
O15   V3    S    
C28   C29   A    
C19   C21   A    
C41   H23   S    
C47   C49   A    
C46   C48   A    
O10   V2    S    
C48   C50   A    
C56   H33   S    
C40   C50   A    
C11   C16   S    
C15   H5    S    
H7    C22   S    
C39   C41   A    
C44   C46   A    
O18   V4    S    
C49   C52   A    
C1    C36   S    
C32   H18   S    
C2    C35   S    
O16   C6    A    
C31   C37   S    
O1    C3    A    
C12   H2    S    
C55   H36   S    
C4    C51   S    
C33   C35   S    
C20   H12   S    
V2    O20   S    
C27   C30   A    
C6    C30   S    
O16   V4    S    
C45   H25   S    
C54   H27   S    
C23   H13   S    
C25   C29   A    
O5    V1    S    
O17   C7    A    
O6    V2    S    
O10   C6    A    
O18   C8    A    
C17   C27   A    
C53   H31   S    
O2    V4    S    
C40   H22   S    
C23   C25   A    
C18   C28   A    
V3    O19   S    
V4    O20   S    
C7    C14   S    
O9    C5    A    
O13   V1    S    
C10   C12   S    
C24   C26   A    
C31   H17   S    
C56   H34   S    
C42   C44   A    
C50   C51   A    
O2    C4    A    
H19   C44   S    
C47   C51   A    
O4    V2    S    
C5    C29   S    
C39   H21   S    
C38   C55   S    
C53   C54   S    
C43   C45   A    
C12   C15   S    
C32   C34   S    
C26   C28   A    
C55   H35   S    
C54   H29   S    
