data_mof_unit_56338.cif
_audit_creation_date              2012-12-11T16:53:27-0500
_audit_creation_method            fapswitch 2.2
_symmetry_space_group_name_H-M    P1
_symmetry_Int_Tables_number       1
_space_group_crystal_system       triclinic
_cell_length_a                    14.858043
_cell_length_b                    14.845876
_cell_length_c                    17.045997
_cell_angle_alpha                 109.082526
_cell_angle_beta                  106.593445
_cell_angle_gamma                 107.874228
_cell_volume                      3054.75520414

loop_
_atom_site_label
_atom_site_type_symbol
_atom_type_description
_atom_site_fract_x
_atom_site_fract_y
_atom_site_fract_z
_atom_type_partial_charge
C1    C     C_R   0.091959 0.282534 0.063774 -0.125902
C2    C     C_R   0.066249 0.473658 0.249422 -0.140441
C3    C     C_R   0.222705 0.798104 0.188251 -0.126148
C4    C     C_R   0.934790 0.456793 0.735066 -0.112364
C5    C     C_R   0.742340 0.468580 0.052131 0.085739
C6    C     C_R   0.239892 0.803394 0.274730 0.055902
C7    C     C_R   0.721269 0.551016 0.043901 -0.006033
C8    C     C_R   0.976959 0.402747 0.245233 0.071046
C9    C     C_R   0.997619 0.803667 0.944378 0.024072
C10   C     C_R   0.516153 0.638462 0.031597 0.042392
C11   C     C_R   0.469024 0.587337 0.075167 0.070543
C12   C     C_R   0.026094 0.482861 0.723292 0.063690
C13   C     C_R   0.527569 0.560658 0.136389 -0.185885
C14   C     C_R   0.625778 0.570388 0.142451 -0.166107
C15   C     C_R   0.661750 0.599275 0.082463 0.070092
C16   C     C_R   0.721697 0.214060 0.823240 -0.128461
C17   C     C_R   0.613315 0.645833 0.036362 0.048863
C18   C     C_3   0.653608 0.761810 0.059571 -0.230239
C19   C     C_3   0.545499 0.751813 0.049538 -0.230938
C20   C     C_R   0.965684 0.357051 0.308621 0.058606
C21   C     C_R   0.030474 0.446358 0.634126 0.065259
C22   C     C_R   0.129158 0.412857 0.545995 -0.202658
C23   C     C_R   0.664991 0.216389 0.744533 0.066422
C24   C     C_R   0.121590 0.441321 0.629294 -0.192078
C25   C     C_R   0.943367 0.415322 0.552950 -0.026636
C26   C     C_R   0.946616 0.372806 0.468362 0.107543
C27   C     C_R   0.043090 0.382894 0.465042 0.103017
C28   C     C_R   0.298908 0.588180 0.998005 -0.133544
C29   C     C_R   0.052363 0.372960 0.382890 -0.008943
C30   C     C_R   0.865977 0.318784 0.307043 -0.187910
C31   C     C_R   0.856556 0.327738 0.386709 -0.197310
C32   C     C_R   0.556328 0.142001 0.677897 0.127588
C33   C     C_R   0.281746 0.898982 0.361688 0.133849
C34   C     C_R   0.357850 0.553826 0.048315 0.056908
C35   C     C_R   0.384495 0.089694 0.448320 -0.222572
C36   C     C_R   0.317908 0.999767 0.365000 -0.170811
C37   C     C_R   0.300787 0.890664 0.443946 -0.272651
C38   C     C_R   0.373890 0.978841 0.526843 0.185725
C39   C     C_R   0.419269 0.078217 0.528146 0.188665
C40   C     C_R   0.726083 0.309863 0.746805 -0.140942
C41   C     C_R   0.507575 0.160559 0.605292 -0.275461
C42   C     C_R   0.504675 0.046819 0.680278 -0.169999
C43   C     C_R   0.412350 0.966193 0.605574 -0.218632
C44   C     C_R   0.107269 0.099462 0.099714 0.161315
C45   C     C_R   0.217435 0.701483 0.264792 -0.121837
C46   C     C_R   0.011510 0.098954 0.054961 0.033279
C47   C     C_R   0.919885 0.014913 0.038400 -0.204407
C48   C     C_R   0.926776 0.946771 0.078883 -0.175778
C49   C     C_R   0.024323 0.960650 0.135852 0.033405
C50   C     C_R   0.112976 0.031253 0.138101 0.159491
C51   C     C_3   0.216563 0.109611 0.215582 -0.502008
C52   C     C_R   0.294788 0.493943 0.076280 -0.122396
C53   C     C_3   0.210331 0.186020 0.175473 -0.512463
C54   C     C_R   0.109433 0.547862 0.810431 -0.129079
C55   C     C_R   0.917808 0.196893 0.989910 -0.123976
C56   C     C_R   0.755075 0.570119 0.980266 -0.150462
C57   C     C_R   0.007178 0.185681 0.031204 0.065796
C58   C     C_1   0.187972 0.855485 0.010195 -0.002935
C59   C     C_1   0.690671 0.396605 0.082206 -0.008503
C60   C     C_1   0.739592 0.831739 0.153120 0.134610
C61   C     C_1   0.538968 0.817142 0.132537 0.143752
C62   C     C_1   0.150596 0.385358 0.377555 -0.002297
C63   C     C_1   0.858743 0.444317 0.555455 0.015289
C64   C     C_R   0.895113 0.384113 0.169237 -0.121241
C65   C     C_R   0.082991 0.795183 0.995159 0.058992
C66   C     C_R   0.912200 0.712683 0.921839 -0.162743
H1    H     H_    0.748783 0.627507 0.955932 0.109262
H2    H     H_    0.417459 0.165913 0.448600 0.132334
H3    H     H_    0.269568 0.814320 0.443451 0.119787
H4    H     H_    0.856440 0.886369 0.069367 0.129136
H5    H     H_    0.214044 0.134227 0.283643 0.207230
H6    H     H_    0.202703 0.253983 0.220219 0.208419
H7    H     H_    0.701957 0.345920 0.704240 0.093125
H8    H     H_    0.191957 0.582365 0.827151 0.095600
H9    H     H_    0.837315 0.142490 0.966773 0.087308
H10   H     H_    0.221574 0.674655 0.316728 0.096038
H11   H     H_    0.172681 0.308308 0.107037 0.099456
H12   H     H_    0.496005 0.527165 0.175660 0.123959
H13   H     H_    0.819052 0.317142 0.134785 0.102727
H14   H     H_    0.833511 0.686292 0.872570 0.107685
H15   H     H_    0.146289 0.498549 0.294074 0.108582
H16   H     H_    0.231125 0.862549 0.170708 0.103999
H17   H     H_    0.673096 0.777367 0.005587 0.110059
H18   H     H_    0.203307 0.417416 0.546076 0.142356
H19   H     H_    0.779613 0.308636 0.385707 0.141651
H20   H     H_    0.543521 0.234566 0.603347 0.119282
H21   H     H_    0.377291 0.890753 0.605987 0.129629
H22   H     H_    0.302449 0.008713 0.303189 0.116250
H23   H     H_    0.667884 0.545390 0.187208 0.138413
H24   H     H_    0.843122 0.005733 0.999916 0.124918
H25   H     H_    0.279413 0.085891 0.210327 0.190985
H26   H     H_    0.326847 0.647945 0.976519 0.096457
H27   H     H_    0.271122 0.207365 0.150249 0.194866
H28   H     H_    0.318956 0.465962 0.125994 0.088049
H29   H     H_    0.856153 0.401573 0.684207 0.112722
H30   H     H_    0.502020 0.757451 0.987755 0.117137
H31   H     H_    0.795568 0.296045 0.248751 0.133182
H32   H     H_    0.188662 0.463342 0.690516 0.128546
H33   H     H_    0.693247 0.161125 0.850783 0.087244
H34   H     H_    0.538402 0.031210 0.736583 0.116109
N1    N     N_R   0.055640 0.348550 0.045600 -0.040548
N2    N     N_R   0.811290 0.303400 0.871650 -0.039823
N3    N     N_R   0.205180 0.552990 0.997660 -0.040344
N4    N     N_R   0.814810 0.361830 0.823710 -0.040854
N5    N     N_R   0.201660 0.494570 0.045600 -0.040820
N6    N     N_R   0.068420 0.560530 0.871650 -0.041699
N7    N     N_R   0.948050 0.295860 0.997660 -0.040837
N8    N     N_R   0.185190 0.638170 0.176290 -0.042647
N9    N     N_1   0.272540 0.904012 0.022332 -0.093164
N10   N     N_1   0.647715 0.338704 0.105683 -0.102597
N11   N     N_1   0.806824 0.886334 0.226233 -0.084379
N12   N     N_R   0.798340 0.505430 0.954400 -0.047672
N13   N     N_1   0.533558 0.868060 0.197315 -0.088379
N14   N     N_1   0.229781 0.395769 0.374528 -0.106799
N15   N     N_1   0.791402 0.467561 0.556811 -0.094469
N16   N     N_R   0.931580 0.439470 0.128350 -0.044823
N17   N     N_R   0.051950 0.704140 0.002340 -0.061104
N18   N     N_R   0.944360 0.651450 0.954400 -0.047292
N19   N     N_R   0.039170 0.492150 0.176290 -0.043283
N20   N     N_R   0.188710 0.696600 0.128350 -0.040783
N21   N     N_R   0.794820 0.447010 0.002340 -0.062388
N22   N     N_R   0.960830 0.507850 0.823710 -0.043868
Ni1   Ni    Ni4+2 0.119330 0.493420 0.109950 0.209737
Ni2   Ni    Ni4+2 0.880670 0.506580 0.890050 0.209606
Ni3   Ni    Ni4+2 0.872590 0.372590 0.000000 0.212352
Ni4   Ni    Ni4+2 0.127410 0.627410 0.000000 0.225317

loop_
_geom_bond_atom_site_label_1
_geom_bond_atom_site_label_2
_ccdc_geom_bond_type
N1    N7    A    
C31   H19   S    
C6    C45   A    
C37   H3    S    
C27   C29   A    
C58   N9    T    
C1    H11   S    
N8    N20   A    
C35   C36   A    
N2    Ni3   S    
C59   N10   T    
C39   C41   A    
C20   C30   A    
C36   H22   S    
C41   H20   S    
C30   H31   S    
C26   C27   A    
N1    Ni1   S    
C45   H10   S    
C24   H32   S    
N12   Ni2   S    
C42   H34   S    
C30   C31   A    
N20   Ni4   S    
C10   C17   A    
C44   C50   A    
C23   C40   A    
C5    N21   A    
C33   C36   A    
C40   H7    S    
N5    Ni1   S    
C18   C19   S    
C25   C63   S    
N3    Ni4   S    
C9    C66   A    
C51   H25   S    
C54   H8    S    
C44   C53   S    
C32   C41   A    
C52   H28   S    
C4    C12   A    
N17   Ni4   S    
C45   N8    A    
C55   H9    S    
C3    C6    A    
C7    C15   S    
C28   C34   A    
C26   C31   A    
C13   C14   A    
C51   H5    S    
C7    C56   A    
C44   C46   A    
C18   H17   S    
C20   C29   A    
C54   N6    A    
C53   H27   S    
N7    Ni3   S    
N3    N5    A    
C3    N20   A    
C5    C7    A    
C5    C59   S    
N18   Ni2   S    
C50   C51   S    
C25   C26   A    
C64   N16   A    
C33   C37   A    
C55   N7    A    
C51   C53   S    
C22   H18   S    
C35   C39   A    
C14   H23   S    
N21   Ni3   S    
C37   C38   A    
C1    C57   A    
C40   N4    A    
C4    H29   S    
C58   C65   S    
C47   C48   A    
C10   C19   S    
N6    N22   A    
C3    H16   S    
C17   C18   S    
C4    N22   A    
C28   H26   S    
C8    C20   S    
N2    N4    A    
C8    C64   A    
C18   C60   S    
C48   C49   A    
C52   N5    A    
C16   C23   A    
C22   C27   A    
C55   C57   A    
C46   C57   S    
C61   N13   T    
C47   H24   S    
C22   C24   A    
C42   C43   A    
N8    Ni1   S    
N22   Ni2   S    
C1    N1    A    
C16   N2    A    
C15   C17   A    
C21   C25   A    
C29   C62   S    
C32   C42   A    
C11   C34   S    
C2    C8    A    
C48   H4    S    
C2    N19   A    
C6    C33   S    
C16   H33   S    
C62   N14   T    
N4    Ni2   S    
N19   Ni1   S    
C56   H1    S    
C66   H14   S    
N6    Ni4   S    
C34   C52   A    
N16   N19   A    
N16   Ni3   S    
C43   H21   S    
C23   C32   S    
C63   N15   T    
C38   C43   A    
C60   N11   T    
N17   N18   A    
C11   C13   A    
C28   N3    A    
C38   C39   A    
C35   H2    S    
C19   C61   S    
C12   C21   S    
C64   H13   S    
C9    C65   A    
C46   C47   A    
C10   C11   A    
C13   H12   S    
N12   N21   A    
C49   C50   A    
C66   N18   A    
C21   C24   A    
C65   N17   A    
C14   C15   A    
C2    H15   S    
C53   H6    S    
C56   N12   A    
C12   C54   A    
C19   H30   S    
