data_mof_unit_17149.cif
_audit_creation_date              2012-12-11T18:11:30-0500
_audit_creation_method            fapswitch 2.2
_symmetry_space_group_name_H-M    P1
_symmetry_Int_Tables_number       1
_space_group_crystal_system       triclinic
_cell_length_a                    8.170318
_cell_length_b                    12.655765
_cell_length_c                    18.733318
_cell_angle_alpha                 99.493121
_cell_angle_beta                  90.906317
_cell_angle_gamma                 98.707528
_cell_volume                      1886.85428357

loop_
_atom_site_label
_atom_site_type_symbol
_atom_type_description
_atom_site_fract_x
_atom_site_fract_y
_atom_site_fract_z
_atom_type_partial_charge
Ba1   Ba    Ba6+2 0.852780 0.548340 0.465070 1.654427
Ba2   Ba    Ba6+2 0.337060 0.451750 0.534940 1.646942
C1    C     C_3   0.571695 0.888854 0.241586 0.200551
C2    C     C_R   0.902187 0.383250 0.095248 -0.075352
C3    C     C_R   0.767083 0.402840 0.952476 -0.082139
C4    C     C_3   0.132299 0.761149 0.265502 0.357627
C5    C     C_R   0.931776 0.447096 0.976483 0.024437
C6    C     C_R   0.709310 0.403539 0.882437 -0.091518
C7    C     C_R   0.812505 0.448385 0.832588 -0.041844
C8    C     C_R   0.975081 0.500010 0.855934 -0.005624
C9    C     C_R   0.034738 0.500192 0.928334 0.023845
C10   C     C_R   0.757821 0.443321 0.760011 -0.013695
C11   C     C_R   0.866544 0.484743 0.710903 -0.297430
C12   C     C_3   0.635731 0.820402 0.292422 0.421629
C13   C     C_R   0.023092 0.542549 0.733242 0.043649
C14   C     C_R   0.077001 0.552698 0.807222 -0.036607
C15   C     C_R   0.156510 0.495458 0.070876 0.027125
C16   C     C_3   0.115477 0.785865 0.189202 -0.311625
C17   C     C_R   0.216267 0.495710 0.143273 0.003947
C18   C     C_R   0.113693 0.444158 0.192252 -0.039496
C19   C     C_R   0.961079 0.383513 0.165451 -0.009591
C20   C     C_R   0.228813 0.614197 0.834363 -0.010297
C21   C     C_R   0.287988 0.613881 0.904455 -0.081643
C22   C     C_R   0.196586 0.553574 0.951918 0.009760
C23   C     C_3   0.462085 0.274161 0.314393 0.304012
C24   C     C_R   0.259503 0.548413 0.022688 0.017308
C25   C     C_R   0.424497 0.592128 0.046501 -0.087380
C26   C     C_R   0.379167 0.546889 0.166496 -0.046653
C27   C     C_R   0.482496 0.591286 0.116503 -0.093558
C28   C     C_3   0.233521 0.787796 0.619526 0.278285
C29   C     C_R   0.433948 0.551965 0.239095 -0.008189
C30   C     C_R   0.325890 0.509817 0.288101 -0.290031
C31   C     C_R   0.167892 0.454374 0.266152 0.031065
C32   C     C_R   0.762185 0.183529 0.531594 -0.274807
C33   C     C_R   0.428954 0.807034 0.469515 -0.266262
C34   C     C_3   0.447732 0.239018 0.232605 -0.353428
C35   C     C_R   0.402809 0.984392 0.444762 -0.111262
C36   C     C_R   0.338367 0.875690 0.440394 -0.012008
C37   C     C_R   0.577790 0.848092 0.509279 0.066832
C38   C     C_R   0.641739 0.960519 0.517657 -0.061475
C39   C     C_R   0.553654 0.028656 0.483508 -0.063757
C40   C     C_3   0.244249 0.910134 0.635053 -0.315163
C41   C     C_R   0.616764 0.139978 0.490389 0.043401
C42   C     C_R   0.854224 0.117115 0.562009 -0.018056
C43   C     C_R   0.791971 0.006905 0.557463 -0.089306
C44   C     C_3   0.959215 0.214592 0.382909 0.288663
C45   C     C_3   0.054282 0.231613 0.736000 0.394938
C46   C     C_3   0.912490 0.092156 0.365872 -0.342371
C47   C     C_3   0.728042 0.706515 0.682500 0.300203
C48   C     C_3   0.743621 0.742970 0.764224 -0.353696
C49   C     C_3   0.085552 0.209870 0.812380 0.245633
C50   C     C_3   0.549529 0.177536 0.702912 0.313128
C51   C     C_3   0.597329 0.099167 0.750017 -0.363367
C52   C     C_R   0.994365 0.442446 0.047412 0.012363
Cl1   Cl    Cl    0.736129 0.951631 0.193950 -0.673863
Cl2   Cl    Cl    0.005130 0.073244 0.820046 -0.685265
H1    H     H_    0.726566 0.872700 0.332855 0.062955
H2    H     H_    0.847307 0.684583 0.663076 0.009924
H3    H     H_    0.629234 0.634826 0.670187 0.065908
H4    H     H_    0.509476 0.952581 0.273105 0.025518
H5    H     H_    0.846183 0.812195 0.778254 0.182175
H6    H     H_    0.769825 0.675706 0.791541 0.047798
H7    H     H_    0.626049 0.768529 0.784288 0.126913
H8    H     H_    0.529386 0.787754 0.322790 -0.184079
H9    H     H_    0.480914 0.836296 0.201260 0.049362
H10   H     H_    0.340379 0.293094 0.333492 0.008751
H11   H     H_    0.557141 0.348017 0.326949 0.058256
H12   H     H_    0.331941 0.944042 0.681635 0.123481
H13   H     H_    0.351042 0.166388 0.218100 0.144977
H14   H     H_    0.413303 0.305403 0.206309 0.047480
H15   H     H_    0.568263 0.219197 0.212178 0.148930
H16   H     H_    0.160677 0.722387 0.149774 0.057106
H17   H     H_    0.117942 0.314649 0.732739 0.010486
H18   H     H_    0.919266 0.227788 0.726683 -0.101035
H19   H     H_    0.024931 0.265353 0.851890 -0.004597
H20   H     H_    0.220446 0.224741 0.826296 0.096351
H21   H     H_    0.662709 0.210650 0.676903 -0.048663
H22   H     H_    0.459863 0.132672 0.659185 0.083862
H23   H     H_    0.288419 0.945581 0.587363 0.066910
H24   H     H_    0.688200 0.143516 0.793396 0.161718
H25   H     H_    0.653222 0.033945 0.716623 0.115557
H26   H     H_    0.049324 0.684123 0.268537 0.091116
H27   H     H_    0.486543 0.062581 0.776001 0.150953
H28   H     H_    0.825057 0.477208 0.654914 0.071056
H29   H     H_    0.582070 0.367781 0.868147 0.108275
H30   H     H_    0.883841 0.335654 0.198406 0.107485
H31   H     H_    0.305395 0.662963 0.801720 0.098140
H32   H     H_    0.610052 0.626426 0.130627 0.120518
H33   H     H_    0.367978 0.516469 0.343943 0.072904
H34   H     H_    0.120375 0.931956 0.648281 0.161976
H35   H     H_    0.677421 0.368169 0.987024 0.075890
H36   H     H_    0.783715 0.333873 0.079832 0.073760
H37   H     H_    0.405862 0.663874 0.920212 0.072022
H38   H     H_    0.262415 0.750744 0.275810 -0.094446
H39   H     H_    0.514183 0.626280 0.011735 0.083790
H40   H     H_    0.329741 0.033469 0.419628 0.105719
H41   H     H_    0.864701 0.958954 0.583639 0.107758
H42   H     H_    0.810206 0.268940 0.535759 0.063455
H43   H     H_    0.377986 0.722058 0.465099 0.068168
H44   H     H_    0.983753 0.787696 0.174955 0.195013
H45   H     H_    0.854230 0.250795 0.407205 -0.000077
H46   H     H_    0.189510 0.865774 0.185469 0.131220
H47   H     H_    0.356352 0.766922 0.605376 -0.002026
H48   H     H_    0.143024 0.755940 0.573404 0.070947
H49   H     H_    0.066421 0.234685 0.421976 0.078114
H50   H     H_    0.789037 0.071254 0.337414 0.145414
H51   H     H_    0.907011 0.057525 0.416380 0.073509
H52   H     H_    0.006003 0.056135 0.331361 0.180999
O1    O     O_2   0.873090 0.425890 0.325140 -0.464347
O2    O     O_2   0.193066 0.121091 0.550457 -0.485702
O3    O     O_3   0.116178 0.154279 0.685284 -0.570653
O4    O     O_3   0.122420 0.434370 0.414380 -0.499317
O5    O     O_3   0.578370 0.633800 0.536380 -0.490151
O6    O     O_2   0.341510 0.231850 0.465510 -0.470243
O7    O     O_3   0.507574 0.189492 0.346272 -0.641467
O8    O     O_2   0.417668 0.455627 0.756731 -0.495598
O9    O     O_3   0.473496 0.256631 0.746127 -0.595203
O10   O     O_3   0.659500 0.627100 0.368810 -0.467092
O11   O     O_2   0.773556 0.542843 0.243702 -0.499774
O12   O     O_3   0.689198 0.792372 0.650473 -0.633648
O13   O     O_3   0.998254 0.253088 0.318631 -0.619553
O14   O     O_3   0.715639 0.740602 0.251928 -0.585487
O15   O     O_2   0.848200 0.768190 0.534530 -0.474843
O16   O     O_3   0.081160 0.685950 0.404810 -0.487929
O17   O     O_2   0.999744 0.879563 0.449399 -0.484886
O18   O     O_3   0.087626 0.846816 0.315250 -0.586750
O19   O     O_2   0.316610 0.574140 0.674900 -0.468581
O20   O     O_3   0.067290 0.565720 0.585630 -0.499976
O21   O     O_3   0.530210 0.372990 0.631200 -0.465539
O22   O     O_3   0.185552 0.747086 0.682198 -0.626445
O23   O     O_3   0.611340 0.366290 0.463630 -0.478179
O24   O     O_3   0.108550 0.314140 0.595200 -0.481339
P1    P     P_3+3 0.041040 0.394770 0.336330 0.978480
P2    P     P_3+3 0.672880 0.754030 0.556100 0.974679
P3    P     P_3+3 0.127302 0.823882 0.403056 0.958689
P4    P     P_3+3 0.148670 0.605320 0.663680 0.977592
P5    P     P_3+3 0.066095 0.175266 0.598065 0.964535
P6    P     P_3+3 0.644866 0.613547 0.274862 0.959658
P7    P     P_3+3 0.523054 0.230056 0.440403 0.936398
P8    P     P_3+3 0.545264 0.384480 0.724822 0.951965

loop_
_geom_bond_atom_site_label_1
_geom_bond_atom_site_label_2
_ccdc_geom_bond_type
C42   P5    S    
C4    H26   S    
C25   C27   A    
C25   H39   S    
C17   C18   A    
C23   H11   S    
Ba1   O20   S    
O4    P1    S    
C32   H42   S    
C42   C43   A    
C5    C9    A    
C10   C11   A    
C11   H28   S    
Ba2   O4    S    
C24   C25   A    
C16   H44   S    
C12   O14   S    
C15   C24   A    
C6    H29   S    
C26   C27   A    
C49   H19   S    
C49   Cl2   S    
O20   P4    S    
Ba1   O4    S    
Ba2   O5    S    
C50   H22   S    
C47   O12   S    
C4    O18   S    
C13   C14   A    
C44   H49   S    
C9    C22   A    
Ba2   O21   S    
C51   H25   S    
Ba1   Ba2   S    
C16   H46   S    
C27   H32   S    
Ba1   O1    S    
C1    Cl1   S    
C46   H50   S    
C29   C30   A    
C6    C7    A    
C4    H38   S    
C28   H47   S    
Ba2   O24   S    
C21   C22   A    
C10   P8    S    
C44   O13   S    
C41   P7    S    
C7    C8    A    
C34   H15   S    
C2    H36   S    
C1    H4    S    
O17   P3    D    
C40   H23   S    
C40   H12   S    
C48   H7    S    
C39   C41   A    
O6    P7    D    
C1    H9    S    
Ba1   O5    S    
Ba1   P1    S    
C34   H14   S    
C26   C29   A    
C16   H16   S    
C38   C43   A    
C4    C16   S    
C44   H45   S    
C44   C46   S    
C32   C41   A    
O15   P2    D    
O1    P1    D    
C33   C36   A    
C32   C42   A    
C49   H20   S    
O14   P6    S    
C37   C38   A    
C3    C5    A    
C45   C49   S    
C13   P4    S    
O24   P5    S    
C28   O22   S    
Ba2   P4    S    
C47   H2    S    
C21   H37   S    
C35   H40   S    
C40   H34   S    
C33   C37   A    
Ba1   O15   S    
C35   C36   A    
C30   H33   S    
C12   H8    S    
C51   H24   S    
Ba2   O23   S    
C36   P3    S    
O19   P4    D    
C29   P6    S    
C17   C26   A    
C33   H43   S    
C45   H17   S    
C3    H35   S    
C1    C12   S    
C18   C31   A    
C38   C39   A    
O7    P7    S    
O18   P3    S    
O5    P2    S    
C11   C13   A    
C48   H6    S    
O9    P8    S    
Ba1   P2    S    
C50   C51   S    
O3    P5    S    
C12   H1    S    
C19   H30   S    
C14   C20   A    
O16   P3    S    
C2    C52   A    
O11   P6    D    
O2    P5    D    
O22   P4    S    
C23   H10   S    
C45   H18   S    
C22   C24   A    
Ba1   O23   S    
C20   H31   S    
C3    C6    A    
C47   H3    S    
C51   H27   S    
C30   C31   A    
C23   O7    S    
Ba1   O16   S    
C8    C14   A    
Ba2   O19   S    
C2    C19   A    
Ba2   O6    S    
C46   H52   S    
O21   P8    S    
C45   O3    S    
C15   C17   A    
O12   P2    S    
Ba1   O10   S    
C35   C39   A    
C34   H13   S    
C7    C10   A    
O23   P7    S    
C8    C9    A    
C23   C34   S    
C46   H51   S    
C31   P1    S    
C18   C19   A    
C47   C48   S    
C50   O9    S    
C28   H48   S    
C48   H5    S    
C20   C21   A    
C28   C40   S    
C43   H41   S    
C5    C52   A    
O13   P1    S    
O10   P6    S    
C15   C52   A    
C50   H21   S    
O8    P8    D    
C37   P2    S    
Ba2   O20   S    
