data_mof_unit_40935.cif
_audit_creation_date              2012-12-10T20:27:59-0500
_audit_creation_method            fapswitch 2.2
_symmetry_space_group_name_H-M    P1
_symmetry_Int_Tables_number       1
_space_group_crystal_system       triclinic
_cell_length_a                    12.890732
_cell_length_b                    10.658091
_cell_length_c                    9.863204
_cell_angle_alpha                 89.22723
_cell_angle_beta                  97.991448
_cell_angle_gamma                 90.470969
_cell_volume                      1341.80214498

loop_
_atom_site_label
_atom_site_type_symbol
_atom_type_description
_atom_site_fract_x
_atom_site_fract_y
_atom_site_fract_z
_atom_type_partial_charge
C1    C     C_R   0.504166 0.259819 0.501579 0.908833
C2    C     C_R   0.568030 0.937950 0.399978 0.486267
C3    C     C_R   0.528838 0.871166 0.506849 -0.239648
C4    C     C_R   0.297368 0.502092 0.472031 0.912976
C5    C     C_R   0.515525 0.933981 0.625849 0.066116
C6    C     C_3   0.432036 0.922432 0.716235 -0.428533
C7    C     C_3   0.432519 0.064433 0.719302 -0.483042
C8    C     C_R   0.469776 0.395233 0.067779 0.212245
C9    C     C_R   0.538766 0.598964 0.077352 -0.127553
C10   C     C_R   0.539887 0.598471 0.933804 -0.143728
C11   C     C_R   0.466111 0.396952 0.924273 0.231005
C12   C     C_R   0.029659 0.516615 0.566860 0.194824
C13   C     C_3   0.357010 0.345025 0.906529 -0.525024
C14   C     C_3   0.365424 0.334982 0.060864 -0.512271
C15   C     C_R   0.506539 0.739972 0.500630 0.897195
C16   C     C_R   0.701927 0.503892 0.527702 0.852682
C17   C     C_R   0.814058 0.515890 0.545782 -0.048467
C18   C     C_R   0.183929 0.513054 0.454371 -0.165965
C19   C     C_R   0.015724 0.554877 0.321118 -0.351126
C20   C     C_R   0.123255 0.533851 0.324845 0.518992
C21   C     C_R   0.136352 0.505928 0.573666 -0.360732
C22   C     C_3   0.112602 0.480874 0.092029 0.067921
C23   C     C_R   0.969195 0.540276 0.439443 0.122585
C24   C     C_3   0.090114 0.340749 0.117992 -0.394925
C25   C     C_3   0.050186 0.273492 0.985164 -0.940263
C26   C     C_3   0.706156 0.833425 0.333382 0.098837
C27   C     C_3   0.788290 0.936909 0.323590 -0.388508
C28   C     C_3   0.899189 0.884691 0.352438 -0.925995
C29   C     C_R   0.861870 0.542494 0.430261 -0.265065
C30   C     C_R   0.873799 0.498984 0.674500 -0.208687
C31   C     C_R   0.982155 0.500714 0.685141 -0.209584
C32   C     C_R   0.515199 0.061622 0.627384 0.138428
C33   C     C_R   0.524666 0.128795 0.507983 -0.181102
C34   C     C_R   0.561149 0.068271 0.398329 -0.314106
H1    H     H_    0.815650 0.558884 0.331130 0.153251
H2    H     H_    0.370687 0.236780 0.100544 0.203943
H3    H     H_    0.837148 0.481139 0.765315 0.157890
H4    H     H_    0.966812 0.578938 0.226490 0.136635
H5    H     H_    0.028518 0.485421 0.784045 0.131819
H6    H     H_    0.181840 0.488878 0.672885 0.175206
H7    H     H_    0.580668 0.120577 0.310235 0.185541
H8    H     H_    0.357801 0.882016 0.662900 0.203691
H9    H     H_    0.159714 0.488456 0.006264 0.162677
H10   H     H_    0.039893 0.532658 0.053968 0.125044
H11   H     H_    0.162387 0.293845 0.167723 0.230249
H12   H     H_    0.461284 0.878620 0.817069 0.206502
H13   H     H_    0.029944 0.330947 0.187886 0.217592
H14   H     H_    0.975230 0.315375 0.936858 0.260396
H15   H     H_    0.036206 0.172875 0.007577 0.269650
H16   H     H_    0.108903 0.280014 0.912843 0.267034
H17   H     H_    0.720584 0.757336 0.262784 0.152965
H18   H     H_    0.716236 0.790575 0.438231 0.114195
H19   H     H_    0.776182 0.979766 0.219241 0.232368
H20   H     H_    0.779626 0.011230 0.399072 0.218007
H21   H     H_    0.913043 0.841191 0.456368 0.271516
H22   H     H_    0.956870 0.961910 0.346889 0.265171
H23   H     H_    0.358125 0.106908 0.669323 0.195208
H24   H     H_    0.911272 0.813302 0.275211 0.262427
H25   H     H_    0.464087 0.101230 0.821745 0.204400
H26   H     H_    0.567396 0.680186 0.135052 0.185757
H27   H     H_    0.570978 0.678724 0.884226 0.151508
H28   H     H_    0.298345 0.415174 0.861951 0.205292
H29   H     H_    0.349093 0.252806 0.856398 0.201636
H30   H     H_    0.310714 0.395181 0.106464 0.253767
N1    N     N_R   0.499290 0.499140 0.142710 -0.105677
N2    N     N_R   0.499290 0.499180 0.857070 -0.106821
O1    O     O_R   0.500010 0.316790 0.614690 -0.614645
O2    O     O_3   0.603471 0.878778 0.291424 -0.647450
O3    O     O_R   0.500000 0.316760 0.385350 -0.626435
O4    O     O_R   0.346360 0.499990 0.595720 -0.628045
O5    O     O_R   0.346350 0.499960 0.366370 -0.568555
O6    O     O_R   0.500000 0.683240 0.614650 -0.627170
O7    O     O_R   0.499990 0.683210 0.385310 -0.582944
O8    O     O_R   0.653650 0.500040 0.633630 -0.625848
O9    O     O_R   0.653640 0.500010 0.404280 -0.635479
O10   O     O_3   0.171756 0.539318 0.206983 -0.633934
Zn1   Zn    Zn3+2 0.500010 0.500020 0.653130 0.939057
Zn2   Zn    Zn3+2 0.499990 0.499980 0.346870 0.968028

loop_
_geom_bond_atom_site_label_1
_geom_bond_atom_site_label_2
_ccdc_geom_bond_type
C16   O9    A    
C17   C29   A    
C19   C20   A    
O1    Zn1   S    
C22   O10   S    
C4    O4    A    
C28   H22   S    
C27   H20   S    
C1    C33   S    
C15   O6    A    
C12   C23   A    
C26   C27   S    
C16   O8    A    
C24   H11   S    
C23   C29   A    
C2    O2    S    
C14   H2    S    
C30   C31   A    
C18   C21   A    
C20   O10   S    
C25   H16   S    
C22   H10   S    
C13   H28   S    
C16   C17   S    
O8    Zn1   S    
O7    Zn2   S    
N1    Zn2   S    
C9    C10   A    
C11   N2    A    
C5    C32   A    
C4    C18   S    
C2    C34   A    
C8    N1    A    
C13   C14   S    
O4    Zn1   S    
C17   C30   A    
O3    Zn2   S    
C34   H7    S    
C7    H25   S    
C28   H21   S    
C9    N1    A    
C10   N2    A    
C24   C25   S    
C12   C21   A    
C1    O3    A    
C30   H3    S    
C19   C23   A    
O6    Zn1   S    
C19   H4    S    
C26   H18   S    
C22   H9    S    
C13   H29   S    
C14   H30   S    
C33   C34   A    
C25   H14   S    
C15   O7    A    
C12   C31   A    
C22   C24   S    
C10   H27   S    
C3    C15   S    
N2    Zn1   S    
C8    C14   S    
C7    C32   S    
C6    H12   S    
C24   H13   S    
C3    C5    A    
C27   H19   S    
C6    C7    S    
C28   H24   S    
C29   H1    S    
C9    H26   S    
C26   O2    S    
C32   C33   A    
C2    C3    A    
C26   H17   S    
C11   C13   S    
C5    C6    S    
C21   H6    S    
C8    C11   A    
C1    O1    A    
C31   H5    S    
C18   C20   A    
O5    Zn2   S    
O9    Zn2   S    
C25   H15   S    
C6    H8    S    
C27   C28   S    
C7    H23   S    
C4    O5    A    
