data_mof_unit_64174.cif
_audit_creation_date              2012-12-10T19:37:51-0500
_audit_creation_method            fapswitch 2.2
_symmetry_space_group_name_H-M    P1
_symmetry_Int_Tables_number       1
_space_group_crystal_system       triclinic
_cell_length_a                    27.18075
_cell_length_b                    27.135245
_cell_length_c                    18.319748
_cell_angle_alpha                 89.996965
_cell_angle_beta                  89.996371
_cell_angle_gamma                 90.001055
_cell_volume                      13511.8456964

loop_
_atom_site_label
_atom_site_type_symbol
_atom_type_description
_atom_site_fract_x
_atom_site_fract_y
_atom_site_fract_z
_atom_type_partial_charge
C1    C     C_R   0.067372 0.432549 0.500000 0.910473
C2    C     C_R   0.932624 0.567445 0.500000 0.910493
C3    C     C_R   0.932632 0.432545 0.500003 0.910473
C4    C     C_R   0.067376 0.567447 0.499997 0.910481
C5    C     C_R   0.567366 0.932544 0.499999 0.910491
C6    C     C_R   0.432628 0.067451 0.500000 0.910488
C7    C     C_R   0.432631 0.932546 0.500003 0.910471
C8    C     C_R   0.567371 0.067452 0.499997 0.910479
C9    C     C_R   0.000000 0.499999 0.156905 0.077161
C10   C     C_R   1.000000 0.500000 0.843095 0.077150
C11   C     C_R   0.500001 1.000000 0.156905 0.077140
C12   C     C_R   0.500002 1.000000 0.843094 0.077155
C13   C     C_R   0.999996 0.455606 0.196783 -0.233573
C14   C     C_R   0.000004 0.544394 0.803217 -0.233572
C15   C     C_R   0.000004 0.544393 0.196775 -0.233608
C16   C     C_R   0.999995 0.455607 0.803224 -0.233592
C17   C     C_R   0.499801 0.955607 0.196782 -0.233550
C18   C     C_R   0.500098 0.044394 0.803217 -0.233571
C19   C     C_R   0.500201 0.044392 0.196775 -0.233601
C20   C     C_R   0.499904 0.955606 0.803224 -0.233612
C21   C     C_R   0.999997 0.456442 0.273537 0.030907
C22   C     C_R   0.000004 0.543558 0.726463 0.030931
C23   C     C_R   0.000004 0.543558 0.273529 0.030858
C24   C     C_R   0.999995 0.456442 0.726470 0.030887
C25   C     C_R   0.499806 0.956442 0.273537 0.030945
C26   C     C_R   0.500093 0.043558 0.726463 0.030903
C27   C     C_R   0.500196 0.043557 0.273530 0.030888
C28   C     C_R   0.499907 0.956442 0.726470 0.030859
C29   C     C_R   0.876981 0.376135 0.566298 -0.207397
C30   C     C_R   0.123188 0.623701 0.433706 -0.207413
C31   C     C_R   0.123396 0.623489 0.566274 -0.207816
C32   C     C_R   0.876612 0.376498 0.433734 -0.207844
C33   C     C_R   0.122888 0.376007 0.433721 -0.207406
C34   C     C_R   0.877165 0.624052 0.566268 -0.207393
C35   C     C_R   0.876227 0.623102 0.433717 -0.207876
C36   C     C_R   0.123592 0.376707 0.566279 -0.207856
C37   C     C_R   0.376817 0.876298 0.566299 -0.207448
C38   C     C_R   0.623152 0.123735 0.433704 -0.207444
C39   C     C_R   0.623331 0.123557 0.566269 -0.207850
C40   C     C_R   0.376792 0.876319 0.433733 -0.207854
C41   C     C_R   0.622617 0.875747 0.433715 -0.207358
C42   C     C_R   0.377127 0.124007 0.566285 -0.207399
C43   C     C_R   0.376406 0.123293 0.433728 -0.207834
C44   C     C_R   0.623708 0.876815 0.566259 -0.207891
C45   C     C_R   0.840931 0.339970 0.566678 0.166436
C46   C     C_R   0.159300 0.659805 0.433333 0.166430
C47   C     C_R   0.159497 0.659603 0.566641 0.166431
C48   C     C_R   0.840569 0.340326 0.433371 0.166431
C49   C     C_R   0.158956 0.339861 0.433346 0.166498
C50   C     C_R   0.841054 0.660155 0.566636 0.166531
C51   C     C_R   0.840104 0.659193 0.433339 0.166463
C52   C     C_R   0.159663 0.340564 0.566649 0.166454
C53   C     C_R   0.340778 0.840122 0.566678 0.166455
C54   C     C_R   0.659231 0.159871 0.433325 0.166467
C55   C     C_R   0.659403 0.159701 0.566635 0.166465
C56   C     C_R   0.340761 0.840133 0.433368 0.166475
C57   C     C_R   0.658624 0.839543 0.433328 0.166504
C58   C     C_R   0.341065 0.160158 0.566662 0.166496
C59   C     C_R   0.340340 0.159442 0.433359 0.166438
C60   C     C_R   0.659729 0.840622 0.566620 0.166451
C61   C     C_R   0.822686 0.322085 0.500031 -0.037002
C62   C     C_R   0.177487 0.677741 0.499984 -0.037003
C63   C     C_R   0.177385 0.322157 0.499994 -0.037055
C64   C     C_R   0.822480 0.677708 0.499987 -0.037083
C65   C     C_R   0.322712 0.822056 0.500029 -0.037033
C66   C     C_R   0.677395 0.177837 0.499976 -0.037033
C67   C     C_R   0.677227 0.822002 0.499965 -0.037057
C68   C     C_R   0.322629 0.177857 0.500015 -0.037055
C69   C     C_R   0.000000 0.500000 0.925162 0.316622
C70   C     C_R   1.000000 0.499999 0.074838 0.316620
C71   C     C_R   0.500002 1.000000 0.925162 0.316616
C72   C     C_R   0.500002 1.000000 0.074838 0.316617
C73   C     C_R   0.894898 0.394561 0.500012 -0.117611
C74   C     C_R   0.105156 0.605384 0.499992 -0.117615
C75   C     C_R   0.105125 0.394586 0.500000 -0.117607
C76   C     C_R   0.894836 0.605373 0.499995 -0.117618
C77   C     C_R   0.394902 0.894557 0.500012 -0.117579
C78   C     C_R   0.605125 0.105417 0.499989 -0.117595
C79   C     C_R   0.605078 0.894540 0.499992 -0.117638
C80   C     C_R   0.394879 0.105418 0.500004 -0.117642
C81   C     C_R   0.215085 0.715111 0.499978 0.339773
C82   C     C_R   0.785083 0.284721 0.500048 0.339781
C83   C     C_R   0.784870 0.715071 0.499988 0.339675
C84   C     C_R   0.214983 0.284784 0.499981 0.339707
C85   C     C_R   0.715006 0.215197 0.499964 0.339772
C86   C     C_R   0.285125 0.784672 0.500045 0.339769
C87   C     C_R   0.285032 0.215231 0.500030 0.339707
C88   C     C_R   0.714816 0.784619 0.499934 0.339685
H1    H     H_    0.999994 0.422130 0.303617 0.133225
H2    H     H_    0.000007 0.577870 0.696384 0.133177
H3    H     H_    0.000008 0.577870 0.303604 0.133352
H4    H     H_    0.999991 0.422130 0.696396 0.133295
H5    H     H_    0.499653 0.922130 0.303616 0.133130
H6    H     H_    0.500163 0.077870 0.696383 0.133202
H7    H     H_    0.500349 0.077869 0.303603 0.133320
H8    H     H_    0.499835 0.922130 0.696395 0.133389
H9    H     H_    0.999994 0.420391 0.169019 0.169791
H10   H     H_    0.000008 0.579608 0.830982 0.169788
H11   H     H_    0.000008 0.579607 0.169005 0.169779
H12   H     H_    0.999991 0.420392 0.830994 0.169788
H13   H     H_    0.499641 0.920392 0.169018 0.169799
H14   H     H_    0.500173 0.079608 0.830981 0.169792
H15   H     H_    0.500363 0.079607 0.169005 0.169787
H16   H     H_    0.499830 0.920392 0.830994 0.169792
H17   H     H_    0.891029 0.389607 0.617900 0.182954
H18   H     H_    0.109183 0.610192 0.382099 0.182988
H19   H     H_    0.109864 0.609502 0.617885 0.183161
H20   H     H_    0.890057 0.390569 0.382125 0.183183
H21   H     H_    0.108696 0.389332 0.382121 0.182894
H22   H     H_    0.891470 0.610843 0.617866 0.182847
H23   H     H_    0.889467 0.608820 0.382120 0.183308
H24   H     H_    0.110273 0.390906 0.617882 0.183257
H25   H     H_    0.390723 0.889910 0.617906 0.182995
H26   H     H_    0.609171 0.110198 0.382099 0.182935
H27   H     H_    0.609798 0.109571 0.617878 0.183124
H28   H     H_    0.390373 0.890254 0.382121 0.183060
H29   H     H_    0.608287 0.888944 0.382127 0.182876
H30   H     H_    0.391326 0.110685 0.617883 0.182917
H31   H     H_    0.389715 0.109087 0.382125 0.183319
H32   H     H_    0.610564 0.891183 0.617856 0.183346
N1    N     N_R   1.000000 0.500000 0.310560 -0.097692
N2    N     N_R   0.000000 0.500000 0.689440 -0.097676
N3    N     N_R   0.500000 1.000000 0.310560 -0.097675
N4    N     N_R   0.500000 0.000000 0.689440 -0.097694
N5    N     N_R   0.000003 0.542968 0.036478 -0.155699
N6    N     N_R   0.999996 0.457031 0.963522 -0.155691
N7    N     N_R   0.999996 0.457030 0.036484 -0.155688
N8    N     N_R   0.000004 0.542969 0.963516 -0.155692
N9    N     N_R   0.500180 0.042968 0.036478 -0.155694
N10   N     N_R   0.499826 0.957031 0.963521 -0.155691
N11   N     N_R   0.499825 0.957031 0.036484 -0.155683
N12   N     N_R   0.500179 0.042968 0.963515 -0.155690
N13   N     N_R   0.795202 0.239043 0.474454 -0.117314
N14   N     N_R   0.204915 0.760815 0.525424 -0.117346
N15   N     N_R   0.260642 0.704550 0.474569 -0.115908
N16   N     N_R   0.739559 0.295274 0.525592 -0.115942
N17   N     N_R   0.204979 0.239236 0.526184 -0.117302
N18   N     N_R   0.794788 0.760538 0.473406 -0.117319
N19   N     N_R   0.739554 0.704743 0.526538 -0.115874
N20   N     N_R   0.260380 0.295192 0.473808 -0.115906
N21   N     N_R   0.295295 0.738967 0.474599 -0.117293
N22   N     N_R   0.704888 0.260876 0.525555 -0.117314
N23   N     N_R   0.760531 0.204644 0.474420 -0.115937
N24   N     N_R   0.239567 0.795231 0.525451 -0.115951
N25   N     N_R   0.704895 0.739153 0.526517 -0.117257
N26   N     N_R   0.295036 0.260780 0.473827 -0.117290
N27   N     N_R   0.239636 0.204824 0.526204 -0.115921
N28   N     N_R   0.760130 0.794946 0.473383 -0.115938
O1    O     O_R   0.050940 0.449070 0.560830 -0.624071
O2    O     O_R   0.949060 0.550930 0.439170 -0.624082
O3    O     O_R   0.949060 0.550930 0.560830 -0.623860
O4    O     O_R   0.050940 0.449070 0.439170 -0.623885
O5    O     O_R   0.949060 0.449070 0.439170 -0.624093
O6    O     O_R   0.050940 0.550930 0.560830 -0.624085
O7    O     O_R   0.050940 0.550930 0.439170 -0.623870
O8    O     O_R   0.949060 0.449070 0.560830 -0.623866
O9    O     O_R   0.550940 0.949070 0.560830 -0.624030
O10   O     O_R   0.449060 0.050930 0.439170 -0.623965
O11   O     O_R   0.449060 0.050930 0.560830 -0.623860
O12   O     O_R   0.550940 0.949070 0.439170 -0.623791
O13   O     O_R   0.449060 0.949070 0.439170 -0.624163
O14   O     O_R   0.550940 0.050930 0.560830 -0.624117
O15   O     O_R   0.550940 0.050930 0.439170 -0.623950
O16   O     O_R   0.449060 0.949070 0.560830 -0.623916
Zn1   Zn    Zn3+2 1.000000 0.500000 0.581210 0.963589
Zn2   Zn    Zn3+2 0.000000 0.500000 0.418790 0.963563
Zn3   Zn    Zn3+2 0.500000 0.000000 0.581210 0.963565
Zn4   Zn    Zn3+2 0.500000 1.000000 0.418790 0.963598
I1    I     I_    0.817193 0.312673 0.669559 -0.236645
I2    I     I_    0.183205 0.686948 0.330446 -0.236615
I3    I     I_    0.186606 0.683508 0.669534 -0.236123
I4    I     I_    0.813362 0.316510 0.330491 -0.236103
I5    I     I_    0.182404 0.312296 0.330476 -0.236640
I6    I     I_    0.817783 0.687899 0.669490 -0.236647
I7    I     I_    0.812379 0.682438 0.330470 -0.235998
I8    I     I_    0.187162 0.317066 0.669524 -0.236035
I9    I     I_    0.316797 0.813082 0.669586 -0.236612
I10   I     I_    0.683118 0.187010 0.330427 -0.236652
I11   I     I_    0.686480 0.183626 0.669535 -0.236123
I12   I     I_    0.313833 0.816053 0.330461 -0.236163
I13   I     I_    0.681713 0.811644 0.330479 -0.236660
I14   I     I_    0.317635 0.187738 0.669530 -0.236631
I15   I     I_    0.312836 0.182938 0.330486 -0.235999
I16   I     I_    0.687503 0.817386 0.669461 -0.235982

loop_
_geom_bond_atom_site_label_1
_geom_bond_atom_site_label_2
_ccdc_geom_bond_type
C70   N7    A    
C60   I16   S    
C4    O6    A    
C42   C80   A    
N6    N7    A    
C49   C63   A    
C87   N26   A    
C17   H13   S    
O5    Zn2   S    
C50   C64   A    
C27   H7    S    
C18   C26   A    
C2    C76   S    
C29   H17   S    
C42   C58   A    
C66   C85   S    
C49   I5    S    
C6    O11   A    
O10   Zn4   S    
C65   C86   S    
C23   N1    A    
C21   H1    S    
C25   H5    S    
N1    Zn2   S    
C7    O13   A    
C11   C19   A    
C67   C88   S    
C87   N27   A    
C2    O2    A    
C46   C62   A    
O4    Zn2   S    
C61   C82   S    
C30   C74   A    
C29   C73   A    
C44   H32   S    
O7    Zn2   S    
C33   C49   A    
C56   C65   A    
O2    Zn2   S    
C3    O5    A    
C1    O4    A    
C18   H14   S    
C9    C13   A    
N16   N22   A    
C71   N12   A    
C48   I4    S    
C19   H15   S    
C33   C75   A    
C39   C55   A    
C11   C17   A    
C60   C67   A    
N18   N28   A    
C40   C56   A    
C36   H24   S    
N5    N8    A    
C88   N25   A    
C84   N17   A    
O6    Zn1   S    
C22   N2    A    
C81   N15   A    
C5    C79   S    
C53   C65   A    
C52   I8    S    
C4    C74   S    
C36   C52   A    
C43   C59   A    
C7    C77   S    
N9    N12   A    
C37   C53   A    
C15   C23   A    
C16   C24   A    
N2    Zn1   S    
C31   C47   A    
C30   H18   S    
C8    C78   S    
C32   C48   A    
C85   N23   A    
C26   N4    A    
C57   C67   A    
C24   H4    S    
C57   I13   S    
C19   C27   A    
C6    O10   A    
C30   C46   A    
C14   H10   S    
O16   Zn3   S    
C88   N28   A    
C35   C76   A    
N13   N23   A    
C34   C50   A    
C86   N24   A    
C1    C75   S    
C39   C78   A    
C72   N9    A    
O1    Zn1   S    
C9    C70   S    
C69   N8    A    
C10   C14   A    
N20   N26   A    
C32   C73   A    
C27   N3    A    
C11   C72   S    
C16   H12   S    
C31   C74   A    
C38   C78   A    
C43   C80   A    
O3    Zn1   S    
C37   C77   A    
C52   C63   A    
C46   I2    S    
C53   I9    S    
C59   I15   S    
C64   C83   S    
C36   C75   A    
C59   C68   A    
N4    Zn3   S    
C6    C80   S    
C38   C54   A    
C82   N16   A    
C5    O12   A    
C12   C20   A    
C24   N2    A    
C22   H2    S    
C13   C21   A    
C51   I7    S    
C25   N3    A    
C62   C81   S    
C20   H16   S    
N3    Zn4   S    
C70   N5    A    
C58   C68   A    
C12   C71   S    
C69   N6    A    
C5    O9    A    
C26   H6    S    
C35   C51   A    
C83   N19   A    
C34   H22   S    
C23   H3    S    
O9    Zn3   S    
C33   H21   S    
C43   H31   S    
C55   C66   A    
C35   H23   S    
C72   N11   A    
C56   I12   S    
C2    O3    A    
N19   N25   A    
C50   I6    S    
C31   H19   S    
N17   N27   A    
C44   C79   A    
C42   H30   S    
C51   C64   A    
C15   H11   S    
C1    O1    A    
C8    O15   A    
C45   I1    S    
C85   N22   A    
C41   C79   A    
C47   I3    S    
C28   N4    A    
C54   C66   A    
C21   N1    A    
C20   C28   A    
C7    O16   A    
C39   H27   S    
C58   I14   S    
C63   C84   S    
C28   H8    S    
C17   C25   A    
C14   C22   A    
C82   N13   A    
O15   Zn4   S    
C9    C15   A    
C41   C57   A    
C10   C16   A    
C71   N10   A    
C47   C62   A    
C48   C61   A    
C40   H28   S    
O8    Zn1   S    
C44   C60   A    
C38   H26   S    
C45   C61   A    
C3    O8    A    
O11   Zn3   S    
N10   N11   A    
O12   Zn4   S    
C13   H9    S    
C3    C73   S    
O13   Zn4   S    
N14   N24   A    
O14   Zn3   S    
C10   C69   S    
C54   I10   S    
N15   N21   A    
C4    O7    A    
C37   H25   S    
C84   N20   A    
C32   H20   S    
C12   C18   A    
C68   C87   S    
C40   C77   A    
C55   I11   S    
C8    O14   A    
C41   H29   S    
C83   N18   A    
C29   C45   A    
C86   N21   A    
C34   C76   A    
C81   N14   A    
