data_mof_unit_62226.cif
_audit_creation_date              2012-12-10T18:57:49-0500
_audit_creation_method            fapswitch 2.2
_symmetry_space_group_name_H-M    P1
_symmetry_Int_Tables_number       1
_space_group_crystal_system       triclinic
_cell_length_a                    37.045441
_cell_length_b                    30.250652
_cell_length_c                    21.525486
_cell_angle_alpha                 90.20209
_cell_angle_beta                  54.758417
_cell_angle_gamma                 89.809342
_cell_volume                      19700.9408764

loop_
_atom_site_label
_atom_site_type_symbol
_atom_type_description
_atom_site_fract_x
_atom_site_fract_y
_atom_site_fract_z
_atom_type_partial_charge
C1    C     C_R   0.913642 0.500119 0.586281 0.889549
C2    C     C_R   0.086352 0.499827 0.412696 0.829251
C3    C     C_R   0.413632 0.000124 0.586546 0.869908
C4    C     C_R   0.586346 0.999827 0.412661 0.850621
C5    C     C_3   0.962499 0.467978 0.249915 -0.635116
C6    C     C_3   0.028135 0.460012 0.759538 -0.583207
C7    C     C_3   0.505125 0.953782 0.204898 -0.652391
C8    C     C_3   0.528148 0.960013 0.759523 -0.583811
C9    C     C_R   0.796819 0.541223 0.706763 -0.209531
C10   C     C_R   0.203164 0.458559 0.298217 -0.207032
C11   C     C_R   0.296788 0.041341 0.706420 -0.206886
C12   C     C_R   0.703137 0.958569 0.298457 -0.207958
C13   C     C_R   0.842607 0.540826 0.661175 -0.196510
C14   C     C_R   0.157381 0.459020 0.344283 -0.210353
C15   C     C_R   0.342585 0.040922 0.660640 -0.202340
C16   C     C_R   0.657359 0.959039 0.344622 -0.200311
C17   C     C_R   0.865616 0.500519 0.634137 -0.030932
C18   C     C_R   0.134393 0.499389 0.364286 -0.038681
C19   C     C_R   0.365584 0.000541 0.635003 -0.036334
C20   C     C_R   0.634375 0.999383 0.364077 -0.027408
C21   C     C_R   0.842404 0.460637 0.653169 -0.224972
C22   C     C_R   0.157633 0.539265 0.337965 -0.226108
C23   C     C_R   0.342336 0.960605 0.655992 -0.209853
C24   C     C_R   0.657604 0.039223 0.336958 -0.213306
C25   C     C_R   0.796609 0.461106 0.698704 -0.093255
C26   C     C_R   0.203433 0.538729 0.291746 -0.088464
C27   C     C_R   0.296534 0.961100 0.701655 -0.087331
C28   C     C_R   0.703401 0.038678 0.290640 -0.085733
C29   C     C_R   0.773843 0.501397 0.725250 0.178153
C30   C     C_R   0.226164 0.498379 0.271649 0.180301
C31   C     C_R   0.273795 0.001462 0.726491 0.178324
C32   C     C_R   0.726135 0.998353 0.271228 0.178431
C33   C     C_R   0.702568 0.482438 0.746225 0.560397
C34   C     C_R   0.297194 0.517402 0.150828 0.560309
C35   C     C_R   0.202709 0.981997 0.747224 0.558422
C36   C     C_R   0.797232 0.017060 0.150259 0.557487
C37   C     C_R   0.656684 0.481775 0.793818 -0.358971
C38   C     C_R   0.343106 0.518068 0.106825 -0.361818
C39   C     C_R   0.156804 0.981394 0.794473 -0.361099
C40   C     C_R   0.843136 0.017771 0.106405 -0.360875
C41   C     C_R   0.634039 0.501662 0.865911 -0.228583
C42   C     C_R   0.365970 0.498090 0.133236 -0.228048
C43   C     C_R   0.134005 0.001816 0.866117 -0.227157
C44   C     C_R   0.865949 0.998124 0.133192 -0.228303
C45   C     C_R   0.999301 0.499769 0.379194 0.928809
C46   C     C_R   0.002276 0.499929 0.619140 0.862067
C47   C     C_R   0.500597 0.999714 0.377967 0.930221
C48   C     C_R   0.502272 0.999929 0.619144 0.863639
C49   C     C_R   0.657423 0.523254 0.890399 0.546502
C50   C     C_R   0.342800 0.476352 0.203828 0.547943
C51   C     C_R   0.157217 0.023931 0.890477 0.546605
C52   C     C_R   0.842714 0.976684 0.204056 0.548079
C53   C     C_R   0.703367 0.522546 0.843787 -0.347135
C54   C     C_R   0.296859 0.477055 0.248909 -0.347924
C55   C     C_R   0.203164 0.023196 0.844231 -0.347161
C56   C     C_R   0.796772 0.977358 0.248986 -0.348278
C57   C     C_R   0.725884 0.501986 0.772366 -0.101584
C58   C     C_R   0.274116 0.497749 0.222976 -0.102792
C59   C     C_R   0.225843 0.002053 0.773300 -0.102144
C60   C     C_R   0.774089 0.997712 0.222656 -0.102736
C61   C     C_R   0.999867 0.586205 0.000092 0.942999
C62   C     C_R   0.499860 0.086218 0.000014 0.909494
C63   C     C_R   0.000064 0.498646 0.121123 0.961220
C64   C     C_R   0.999849 0.499406 0.878911 0.969900
C65   C     C_R   0.500060 0.002793 0.121113 0.939290
C66   C     C_R   0.499850 0.999400 0.878911 0.969711
C67   C     C_R   0.000146 0.413639 0.999907 0.849320
C68   C     C_R   0.500148 0.913638 0.999949 0.855970
C69   C     C_R   0.499816 0.413751 0.000101 0.847040
C70   C     C_R   0.999841 0.913745 0.000078 0.847005
C71   C     C_R   0.586126 0.500398 0.913988 0.925852
C72   C     C_R   0.413876 0.499518 0.085975 0.926317
C73   C     C_R   0.086115 0.000445 0.914020 0.925977
C74   C     C_R   0.913868 0.999531 0.085975 0.925763
C75   C     C_R   0.500213 0.586247 0.999902 0.871226
C76   C     C_R   0.000211 0.086245 0.999902 0.871044
C77   C     C_R   0.961954 0.702950 0.016279 -0.184853
C78   C     C_R   0.036426 0.702999 0.984660 -0.175235
C79   C     C_R   0.536677 0.203098 0.982737 -0.173479
C80   C     C_R   0.461433 0.202956 0.017946 -0.190714
C81   C     C_3   0.993645 0.546927 0.291255 -0.546769
C82   C     C_3   0.015482 0.546200 0.700024 -0.552329
C83   C     C_3   0.457613 0.021602 0.330134 -0.595598
C84   C     C_3   0.515467 0.046203 0.700043 -0.553209
C85   C     C_R   0.962091 0.657121 0.016609 -0.194049
C86   C     C_R   0.036795 0.657185 0.984053 -0.164390
C87   C     C_R   0.537113 0.157285 0.982042 -0.195447
C88   C     C_R   0.461642 0.157124 0.018201 -0.185731
C89   C     C_R   0.999569 0.634128 0.000272 -0.005856
C90   C     C_R   0.499528 0.134163 0.000091 -0.012551
C91   C     C_R   0.999053 0.725907 0.000603 0.113364
C92   C     C_R   0.498876 0.225951 0.000566 0.112449
C93   C     C_R   0.486907 0.296902 0.958779 -0.175970
C94   C     C_R   0.510308 0.296781 0.043524 -0.183283
C95   C     C_R   0.009837 0.796802 0.044355 -0.179513
C96   C     C_R   0.987839 0.796828 0.957640 -0.177777
C97   C     C_R   0.487493 0.342734 0.958131 -0.197574
C98   C     C_R   0.510424 0.342591 0.043607 -0.191008
C99   C     C_R   0.009903 0.842611 0.044432 -0.192252
C100  C     C_R   0.988349 0.842660 0.957035 -0.196354
C101  C     C_R   0.499269 0.365746 0.000545 -0.030051
C102  C     C_R   0.999387 0.865727 0.000449 -0.030473
C103  C     C_R   0.498559 0.273920 0.001124 0.113378
C104  C     C_R   0.998803 0.773886 0.000990 0.113010
C105  C     C_R   0.961426 0.296719 0.047219 -0.152117
C106  C     C_R   0.040965 0.296804 0.952312 -0.159612
C107  C     C_R   0.541049 0.796806 0.952883 -0.161584
C108  C     C_R   0.461405 0.796698 0.046809 -0.151319
C109  C     C_R   0.960940 0.342509 0.047257 -0.197680
C110  C     C_R   0.040596 0.342593 0.952407 -0.196325
C111  C     C_R   0.540670 0.842596 0.952983 -0.198920
C112  C     C_R   0.460909 0.842489 0.046851 -0.195626
C113  C     C_R   0.000549 0.365647 0.999827 -0.029007
C114  C     C_R   0.500563 0.865642 0.999902 -0.031930
C115  C     C_3   0.990507 0.546227 0.222671 0.402158
C116  C     C_3   0.020523 0.543724 0.766807 0.410154
C117  C     C_3   0.456113 0.021452 0.259776 0.436544
C118  C     C_3   0.520517 0.043718 0.766814 0.410359
C119  C     C_R   0.001403 0.274110 0.999704 0.126093
C120  C     C_R   0.501439 0.774107 0.999772 0.126358
C121  C     C_R   0.500229 0.703215 0.057388 0.014979
C122  C     C_R   0.503181 0.703225 0.940939 0.014193
C123  C     C_R   0.003696 0.203192 0.940407 0.014090
C124  C     C_R   0.999633 0.203225 0.057894 0.013184
C125  C     C_R   0.499867 0.657338 0.057136 -0.241340
C126  C     C_R   0.502684 0.657353 0.941480 -0.236152
C127  C     C_R   0.003206 0.157322 0.940967 -0.235820
C128  C     C_R   0.999299 0.157349 0.057638 -0.240496
C129  C     C_R   0.500889 0.634309 0.999536 -0.070805
C130  C     C_R   0.000877 0.134302 0.999530 -0.071129
C131  C     C_R   0.501780 0.726204 0.999223 -0.013054
C132  C     C_R   0.001736 0.226200 0.999200 -0.012621
C133  C     C_3   0.044385 0.480466 0.241621 -0.262362
C134  C     C_3   0.954937 0.489574 0.757655 -0.251576
C135  C     C_3   0.540592 0.028029 0.245862 -0.241186
C136  C     C_3   0.454935 0.989563 0.757658 -0.251084
C137  C     C_3   0.958982 0.469140 0.326350 1.002297
C138  C     C_3   0.037856 0.464128 0.679171 0.980711
C139  C     C_3   0.504583 0.950131 0.278431 1.027361
C140  C     C_3   0.537859 0.964132 0.679162 0.981934
C141  C     C_3   0.998807 0.498477 0.311109 -0.050003
C142  C     C_3   0.003200 0.499338 0.686767 -0.062830
C143  C     C_3   0.501336 0.999158 0.308726 -0.048018
C144  C     C_3   0.503195 0.999337 0.686772 -0.063092
C145  C     C_3   0.999945 0.498632 0.189114 -0.037455
C146  C     C_3   0.999919 0.499739 0.810973 -0.056036
C147  C     C_3   0.500411 0.002429 0.188814 -0.038855
C148  C     C_3   0.499920 0.999730 0.810973 -0.056836
C149  C     C_3   0.044220 0.479541 0.170356 -0.444536
C150  C     C_3   0.952693 0.493444 0.831201 -0.447877
C151  C     C_3   0.541244 0.027618 0.173601 -0.453506
C152  C     C_3   0.452696 0.993411 0.831202 -0.448324
H1    H     H_    0.021275 0.567216 0.281538 0.192312
H2    H     H_    0.989755 0.569851 0.709962 0.197364
H3    H     H_    0.454719 0.055148 0.353460 0.198485
H4    H     H_    0.489735 0.069854 0.710005 0.197455
H5    H     H_    0.969333 0.434756 0.223494 0.167020
H6    H     H_    0.009915 0.429004 0.787748 0.178161
H7    H     H_    0.535157 0.940065 0.152702 0.180123
H8    H     H_    0.509943 0.928997 0.787724 0.178043
H9    H     H_    0.048492 0.445176 0.147999 0.177484
H10   H     H_    0.937418 0.463481 0.867193 0.188406
H11   H     H_    0.572021 0.011229 0.125786 0.202938
H12   H     H_    0.437447 0.963429 0.867154 0.188290
H13   H     H_    0.779270 0.572505 0.727019 0.135429
H14   H     H_    0.220690 0.427238 0.282650 0.136583
H15   H     H_    0.279245 0.072668 0.725452 0.135018
H16   H     H_    0.720661 0.927265 0.283382 0.135290
H17   H     H_    0.859895 0.571987 0.647201 0.158960
H18   H     H_    0.140075 0.427862 0.364211 0.164058
H19   H     H_    0.359886 0.072129 0.645256 0.158683
H20   H     H_    0.640057 0.927909 0.365119 0.160493
H21   H     H_    0.859539 0.429167 0.632899 0.166018
H22   H     H_    0.140515 0.570782 0.352956 0.161507
H23   H     H_    0.359445 0.929071 0.637054 0.166370
H24   H     H_    0.640479 0.070713 0.351414 0.160277
H25   H     H_    0.778899 0.430148 0.713546 0.156163
H26   H     H_    0.221179 0.569678 0.271955 0.153706
H27   H     H_    0.278792 0.930118 0.717806 0.154544
H28   H     H_    0.721142 0.069606 0.270295 0.153629
H29   H     H_    0.638841 0.465383 0.774467 0.195971
H30   H     H_    0.360789 0.534568 0.052302 0.195384
H31   H     H_    0.139071 0.964599 0.775267 0.195264
H32   H     H_    0.860853 0.034033 0.051670 0.196103
H33   H     H_    0.963239 0.562808 0.340618 0.208393
H34   H     H_    0.047002 0.557976 0.648231 0.192124
H35   H     H_    0.428547 0.003429 0.377407 0.192351
H36   H     H_    0.546983 0.057986 0.648249 0.192298
H37   H     H_    0.721470 0.537897 0.863513 0.179354
H38   H     H_    0.278933 0.461607 0.304353 0.179487
H39   H     H_    0.221142 0.038976 0.863849 0.179729
H40   H     H_    0.778799 0.962158 0.304633 0.179231
H41   H     H_    0.932850 0.720516 0.029025 0.130031
H42   H     H_    0.065345 0.720600 0.972042 0.134358
H43   H     H_    0.565863 0.220745 0.968754 0.136688
H44   H     H_    0.432014 0.220495 0.032099 0.130979
H45   H     H_    0.933174 0.639710 0.028837 0.148734
H46   H     H_    0.065908 0.639841 0.971711 0.149083
H47   H     H_    0.566580 0.140003 0.968198 0.152900
H48   H     H_    0.432435 0.139694 0.031826 0.151611
H49   H     H_    0.477986 0.279347 0.925554 0.132444
H50   H     H_    0.519074 0.279143 0.076822 0.132269
H51   H     H_    0.018056 0.779211 0.078449 0.135964
H52   H     H_    0.979486 0.779241 0.923644 0.132170
H53   H     H_    0.478526 0.360100 0.924912 0.155243
H54   H     H_    0.519645 0.359817 0.076653 0.159049
H55   H     H_    0.018552 0.859864 0.078267 0.159883
H56   H     H_    0.979904 0.859977 0.923051 0.155604
H57   H     H_    0.930825 0.278861 0.083831 0.137270
H58   H     H_    0.071873 0.279021 0.915519 0.131950
H59   H     H_    0.572000 0.779029 0.916463 0.131554
H60   H     H_    0.430770 0.778827 0.083036 0.137944
H61   H     H_    0.929729 0.359700 0.084432 0.157119
H62   H     H_    0.071500 0.359848 0.915261 0.156352
H63   H     H_    0.571615 0.859856 0.916229 0.156285
H64   H     H_    0.429649 0.859668 0.083632 0.158886
H65   H     H_    0.498673 0.639687 0.102042 0.169426
H66   H     H_    0.503618 0.639715 0.896623 0.167329
H67   H     H_    0.004574 0.139665 0.895714 0.167572
H68   H     H_    0.997675 0.139711 0.102952 0.169953
H69   H     H_    0.954972 0.552798 0.247654 0.127438
H70   H     H_    0.056758 0.540491 0.738980 0.153761
H71   H     H_    0.430337 0.996641 0.273621 0.131827
H72   H     H_    0.556752 0.040483 0.738971 0.154199
H73   H     H_    0.070771 0.503451 0.231050 0.128907
H74   H     H_    0.931978 0.514726 0.760514 0.134158
H75   H     H_    0.535425 0.062753 0.266670 0.156191
H76   H     H_    0.431973 0.014719 0.760538 0.134880
H77   H     H_    0.073139 0.497897 0.123736 0.192744
H78   H     H_    0.930816 0.521392 0.866487 0.191642
H79   H     H_    0.542383 0.061778 0.153908 0.168693
H80   H     H_    0.430793 0.021333 0.866535 0.191907
H81   H     H_    0.930235 0.478409 0.261905 0.191425
H82   H     H_    0.059969 0.457419 0.753682 0.194864
H83   H     H_    0.477348 0.934460 0.212455 0.169728
H84   H     H_    0.559986 0.957435 0.753656 0.195009
O1    O     O_R   0.934520 0.536930 0.565470 -0.630041
O2    O     O_R   0.065480 0.536930 0.434530 -0.631351
O3    O     O_R   0.434520 0.036930 0.565470 -0.633002
O4    O     O_R   0.565480 0.036930 0.434530 -0.632545
O5    O     O_R   0.565440 0.499980 0.882290 -0.635157
O6    O     O_R   0.434560 0.499980 0.117710 -0.566605
O7    O     O_R   0.065440 0.999980 0.882290 -0.635051
O8    O     O_R   0.934560 0.999980 0.117710 -0.566404
O9    O     O_R   0.565450 0.499990 0.986830 -0.568731
O10   O     O_R   0.434550 0.499990 0.013170 -0.636852
O11   O     O_R   0.065450 0.999990 0.986830 -0.568829
O12   O     O_R   0.934550 0.999990 0.013170 -0.636652
O13   O     O_R   0.500010 0.565460 0.947720 -0.629523
O14   O     O_R   0.499990 0.565460 0.052280 -0.625038
O15   O     O_R   0.000010 0.065460 0.947720 -0.629428
O16   O     O_R   0.999990 0.065460 0.052280 -0.624457
O17   O     O_R   0.934480 0.463010 0.565510 -0.616614
O18   O     O_R   0.065520 0.463010 0.434490 -0.634503
O19   O     O_R   0.434480 0.963010 0.565510 -0.619756
O20   O     O_R   0.565520 0.963010 0.434490 -0.629563
O21   O     O_R   0.999990 0.536930 0.407410 -0.640076
O22   O     O_R   0.000010 0.536930 0.592590 -0.641256
O23   O     O_R   0.499990 0.036930 0.407410 -0.651861
O24   O     O_R   0.500010 0.036930 0.592590 -0.640314
O25   O     O_R   0.999940 0.463010 0.407450 -0.565504
O26   O     O_R   0.000060 0.463010 0.592550 -0.574260
O27   O     O_R   0.499940 0.963010 0.407450 -0.551087
O28   O     O_R   0.500060 0.963010 0.592550 -0.575212
O29   O     O_R   0.963000 0.565420 0.036990 -0.627144
O30   O     O_R   0.037000 0.565420 0.963010 -0.616415
O31   O     O_R   0.463000 0.065420 0.036990 -0.617248
O32   O     O_R   0.537000 0.065420 0.963010 -0.623459
O33   O     O_R   0.963020 0.499940 0.129580 -0.643298
O34   O     O_R   0.036980 0.499940 0.870420 -0.632459
O35   O     O_R   0.463020 0.999940 0.129580 -0.603928
O36   O     O_R   0.536980 0.999940 0.870420 -0.630583
O37   O     O_R   0.036940 0.500000 0.055660 -0.620195
O38   O     O_R   0.963060 0.500000 0.944340 -0.629055
O39   O     O_R   0.536940 0.000000 0.055660 -0.643736
O40   O     O_R   0.463060 0.000000 0.944340 -0.629775
O41   O     O_R   0.963020 0.434470 0.036970 -0.633712
O42   O     O_R   0.036980 0.434470 0.963030 -0.636495
O43   O     O_R   0.463020 0.934470 0.036970 -0.632795
O44   O     O_R   0.536980 0.934470 0.963030 -0.632682
O45   O     O_R   0.499930 0.434510 0.947790 -0.628153
O46   O     O_R   0.500070 0.434510 0.052210 -0.624895
O47   O     O_R   0.999930 0.934510 0.947790 -0.628257
O48   O     O_R   0.000070 0.934510 0.052210 -0.625054
Zn1   Zn    Zn3+2 1.000000 0.549330 0.500000 0.933371
Zn2   Zn    Zn3+2 0.500000 0.049330 0.500000 0.925809
Zn3   Zn    Zn3+2 1.000000 0.450610 0.500000 1.018147
Zn4   Zn    Zn3+2 0.500000 0.950610 0.500000 1.012199
Zn5   Zn    Zn3+2 0.950610 0.499940 0.049380 0.944456
Zn6   Zn    Zn3+2 0.049390 0.499940 0.950620 0.957277
Zn7   Zn    Zn3+2 0.450610 0.999940 0.049380 0.970166
Zn8   Zn    Zn3+2 0.549390 0.999940 0.950620 0.948962
Zn9   Zn    Zn3+2 0.499970 0.499980 0.930220 0.941304
Zn10  Zn    Zn3+2 0.500030 0.499980 0.069780 1.009701
Zn11  Zn    Zn3+2 0.999970 0.999980 0.930220 0.942274
Zn12  Zn    Zn3+2 0.000030 0.999980 0.069780 1.011116
C153  C     C_1   0.056820 0.436461 0.253666 0.269767
N1    N     N_1   0.066651 0.402045 0.262958 -0.195555
C154  C     C_1   0.938387 0.445985 0.753570 0.271163
N2    N     N_1   0.925385 0.411912 0.750424 -0.182637
C155  C     C_1   0.583940 0.014378 0.228373 0.226335
N3    N     N_1   0.617865 0.003774 0.214752 -0.196922
C156  C     C_1   0.438384 0.945979 0.753550 0.271996
N4    N     N_1   0.425382 0.911911 0.750388 -0.183980
O49   O     O_3   0.724496 0.461985 0.675783 -0.609655
C157  C     C_3   0.730183 0.493162 0.622339 -0.330601
H85   H     H_    0.750337 0.521706 0.618263 0.163793
H86   H     H_    0.697778 0.504863 0.636144 0.164559
H87   H     H_    0.748276 0.477012 0.565541 0.190823
O50   O     O_3   0.274966 0.537866 0.124725 -0.608535
C158  C     C_3   0.270433 0.507147 0.080296 -0.320197
H88   H     H_    0.251146 0.477778 0.114260 0.162780
H89   H     H_    0.303237 0.496707 0.029161 0.160656
H90   H     H_    0.251985 0.523223 0.060220 0.194718
O51   O     O_3   0.224886 0.961106 0.677131 -0.608202
C159  C     C_3   0.229203 0.991328 0.623564 -0.308540
H91   H     H_    0.248388 0.020934 0.618934 0.161667
H92   H     H_    0.196324 0.001432 0.637661 0.159630
H93   H     H_    0.247652 0.974927 0.566957 0.198748
O52   O     O_3   0.775101 0.037225 0.123725 -0.607826
C160  C     C_3   0.769855 0.005944 0.080860 -0.303023
H94   H     H_    0.750050 0.977159 0.116207 0.165199
H95   H     H_    0.802415 0.994634 0.030097 0.155554
H96   H     H_    0.751607 0.021839 0.060251 0.199404
O53   O     O_3   0.635714 0.543644 0.960872 -0.583805
C161  C     C_3   0.628713 0.588409 0.952371 -0.295351
H97   H     H_    0.610698 0.604746 0.009009 0.196090
H98   H     H_    0.607925 0.591807 0.930580 0.143338
H99   H     H_    0.660615 0.605990 0.914515 0.148077
O54   O     O_3   0.364729 0.455830 0.230459 -0.583022
C162  C     C_3   0.371599 0.411098 0.207461 -0.293830
H100  H     H_    0.389763 0.394645 0.227772 0.196466
H101  H     H_    0.392190 0.407785 0.144341 0.142076
H102  H     H_    0.339648 0.393569 0.233042 0.147927
O55   O     O_3   0.135325 0.044856 0.960527 -0.583772
C163  C     C_3   0.128205 0.089393 0.951004 -0.293288
H103  H     H_    0.110053 0.106153 0.007297 0.197106
H104  H     H_    0.107496 0.092187 0.928974 0.142456
H105  H     H_    0.160061 0.107000 0.912882 0.148410
O56   O     O_3   0.864572 0.956487 0.231085 -0.582802
C164  C     C_3   0.871391 0.911631 0.208796 -0.292728
H106  H     H_    0.889507 0.895437 0.229416 0.196937
H107  H     H_    0.892008 0.907980 0.145724 0.142023
H108  H     H_    0.839421 0.894102 0.234609 0.147527
C165  C     C_1   0.499211 0.726097 0.117466 0.149315
N5    N     N_1   0.498396 0.744461 0.165520 -0.218236
C166  C     C_1   0.504626 0.726114 0.880700 0.152910
N6    N     N_1   0.505786 0.744481 0.832511 -0.206615
C167  C     C_1   0.005660 0.226047 0.879656 0.153032
N7    N     N_1   0.007236 0.244384 0.831058 -0.205813
C168  C     C_1   0.998051 0.226113 0.118504 0.150987
N8    N     N_1   0.996783 0.244477 0.166990 -0.208254
O57   O     O_3   0.013047 0.579775 0.166236 -0.608687
C169  C     C_3   0.054012 0.593318 0.150227 -0.278754
H109  H     H_    0.073158 0.566493 0.153520 0.147449
H110  H     H_    0.048680 0.620884 0.188938 0.168321
H111  H     H_    0.074471 0.606232 0.091345 0.180141
O58   O     O_3   0.008011 0.581210 0.816213 -0.609230
C170  C     C_3   0.975438 0.609204 0.822894 -0.299006
H112  H     H_    0.946528 0.590939 0.833588 0.147476
H113  H     H_    0.990124 0.630509 0.771918 0.170969
H114  H     H_    0.963082 0.631481 0.872430 0.185710
O59   O     O_3   0.441148 0.060709 0.244102 -0.590997
C171  C     C_3   0.454500 0.101049 0.257859 -0.301877
H115  H     H_    0.487247 0.099776 0.247847 0.147047
H116  H     H_    0.429206 0.112406 0.316927 0.172818
H117  H     H_    0.456283 0.126287 0.218925 0.186659
O60   O     O_3   0.508023 0.081208 0.816204 -0.607495
C172  C     C_3   0.475377 0.109152 0.823036 -0.295282
H118  H     H_    0.446494 0.090849 0.833699 0.146786
H119  H     H_    0.489999 0.130510 0.772133 0.170169
H120  H     H_    0.462998 0.131377 0.872645 0.186624
O61   O     O_3   0.962008 0.426873 0.353762 -0.602543
C173  C     C_3   0.948628 0.389210 0.332951 -0.353178
H121  H     H_    0.977101 0.375543 0.278139 0.186749
H122  H     H_    0.920112 0.395311 0.330083 0.145439
H123  H     H_    0.938378 0.363432 0.376580 0.201649
O62   O     O_3   0.032321 0.422035 0.655230 -0.614360
C174  C     C_3   0.061385 0.388933 0.649304 -0.313387
H124  H     H_    0.044941 0.370059 0.703116 0.173056
H125  H     H_    0.093495 0.401714 0.634690 0.190516
H126  H     H_    0.068788 0.365390 0.603673 0.186427
O63   O     O_3   0.542684 0.929944 0.269362 -0.610842
C175  C     C_3   0.568720 0.901177 0.206575 -0.377050
H127  H     H_    0.592562 0.920477 0.154868 0.180726
H128  H     H_    0.548936 0.878820 0.196450 0.154893
H129  H     H_    0.588493 0.879854 0.218371 0.202486
O64   O     O_3   0.532325 0.922038 0.655221 -0.614490
C176  C     C_3   0.561399 0.888940 0.649276 -0.315408
H130  H     H_    0.544956 0.870051 0.703071 0.173197
H131  H     H_    0.593501 0.901727 0.634686 0.190955
H132  H     H_    0.568815 0.865411 0.603620 0.185298
O65   O     O_3   0.919803 0.492344 0.384026 -0.666727
C177  C     C_3   0.881135 0.466556 0.421437 -0.290514
H133  H     H_    0.882650 0.439645 0.454852 0.209688
H134  H     H_    0.873874 0.453779 0.381402 0.141021
H135  H     H_    0.852866 0.488100 0.462893 0.186313
O66   O     O_3   0.082349 0.479639 0.629694 -0.672813
C178  C     C_3   0.098858 0.480131 0.551939 -0.322059
H136  H     H_    0.090160 0.511812 0.537865 0.156262
H137  H     H_    0.088086 0.451675 0.533872 0.209400
H138  H     H_    0.135454 0.478506 0.517756 0.193896
O67   O     O_3   0.465026 0.928395 0.336790 -0.646229
C179  C     C_3   0.467136 0.881920 0.329276 -0.257833
H139  H     H_    0.491239 0.867582 0.338700 0.202717
H140  H     H_    0.474177 0.871083 0.273970 0.141480
H141  H     H_    0.434289 0.868473 0.374244 0.180056
O68   O     O_3   0.582350 0.979650 0.629674 -0.671439
C180  C     C_3   0.598852 0.980139 0.551921 -0.327207
H142  H     H_    0.590151 0.011819 0.537848 0.154786
H143  H     H_    0.588078 0.951682 0.533861 0.208370
H144  H     H_    0.635448 0.978515 0.517732 0.193531

loop_
_geom_bond_atom_site_label_1
_geom_bond_atom_site_label_2
_ccdc_geom_bond_type
C55   C59   A    
C108  C120  A    
C14   H18   S    
C79   C87   A    
C100  H56   S    
C155  N3    T    
O4    Zn2   S    
C133  H73   S    
C6    C146  S    
C95   C99   A    
C7    H7    S    
C106  H58   S    
C47   C143  S    
C48   C144  S    
C31   C59   S    
C9    C13   A    
C6    H6    S    
C146  C150  S    
C11   C15   A    
C48   O24   A    
C12   C16   A    
C3    C19   S    
C161  H97   S    
C65   C147  S    
C93   H49   S    
C66   C148  S    
C172  H120  S    
C74   O8    A    
C136  H76   S    
O29   Zn5   S    
C2    O18   A    
C41   C49   A    
O60   C172  S    
C136  C152  S    
C25   C29   A    
C80   H44   S    
O54   C162  S    
C117  O59   S    
C118  H72   S    
C28   C32   A    
O56   C164  S    
O8    Zn12  S    
C126  C129  A    
O19   Zn4   S    
C177  H135  S    
C17   C21   A    
C99   H55   S    
C159  H91   S    
C55   H39   S    
C80   C92   A    
C19   C23   A    
C10   C30   A    
C156  N4    T    
C16   C20   A    
C37   H29   S    
C161  H99   S    
C42   C72   S    
C157  H85   S    
C67   O42   A    
C44   C74   S    
C28   H28   S    
C139  O67   S    
C64   O34   A    
C86   H46   S    
C68   O44   A    
C21   H21   S    
C96   C104  A    
C176  H130  S    
C122  C166  S    
C71   O9    A    
O63   C175  S    
C24   H24   S    
C107  C120  A    
C178  H137  S    
C77   C91   A    
C64   C146  S    
C111  H63   S    
C163  H103  S    
C175  H128  S    
C139  O63   S    
C5    C137  S    
C73   O11   A    
C69   C101  S    
O65   C177  S    
C150  H78   S    
C8    C140  S    
C83   C117  S    
O15   Zn11  S    
C80   C88   A    
C83   C143  S    
C84   H4    S    
C49   C53   A    
C118  C148  S    
C51   C55   A    
C177  H133  S    
O55   C163  S    
C4    C20   S    
C125  C129  A    
C23   H23   S    
C160  H94   S    
C170  H112  S    
C34   C58   A    
O48   Zn12  S    
C98   H54   S    
O62   C174  S    
C121  C165  S    
O24   Zn2   S    
C126  H66   S    
O25   Zn3   S    
C43   C73   S    
C122  C126  A    
C167  N7    T    
C123  C132  A    
C168  N8    T    
C93   C103  A    
C112  C114  A    
C136  C156  S    
O33   Zn5   S    
C135  H75   S    
C159  H93   S    
C35   C59   A    
C110  H62   S    
O39   Zn8   S    
C83   H3    S    
C84   C144  S    
C95   H51   S    
C178  H136  S    
C79   H43   S    
C171  H115  S    
C124  C132  A    
C173  H121  S    
C77   H41   S    
C62   O32   A    
C76   C130  S    
C63   O37   A    
C151  H79   S    
O47   Zn11  S    
O64   C176  S    
C176  H132  S    
C75   O14   A    
C128  H68   S    
C124  C168  S    
C41   C71   S    
C44   C52   A    
C135  C143  S    
C6    H82   S    
C77   C85   A    
C163  H105  S    
C108  H60   S    
C96   H52   S    
C7    C147  S    
C164  H107  S    
C5    C145  S    
O28   Zn4   S    
C72   O6    A    
C179  H139  S    
C10   C14   A    
C174  H126  S    
C140  O64   S    
C1    O1    A    
O11   Zn12  S    
O12   Zn11  S    
C173  H123  S    
O23   Zn2   S    
C147  C151  S    
C121  C125  A    
C74   O12   A    
C123  C127  A    
C69   O46   A    
O9    Zn10  S    
C10   H14   S    
C160  H96   S    
O30   Zn6   S    
C180  H144  S    
O2    Zn1   S    
C42   C50   A    
C26   C30   A    
C158  H89   S    
O32   Zn8   S    
C4    O20   A    
C93   C97   A    
C122  C131  A    
C52   O56   S    
C21   C25   A    
C54   H38   S    
C18   C22   A    
C107  C111  A    
C24   C28   A    
O13   Zn9   S    
C140  O68   S    
O43   Zn7   S    
C38   H30   S    
C171  H117  S    
C13   C17   A    
C149  H77   S    
C63   O33   A    
C116  C146  S    
C96   C100  A    
C170  H114  S    
C112  H64   S    
C37   C41   A    
C162  H102  S    
C39   H31   S    
C61   O30   A    
C40   C44   A    
C84   C118  S    
C169  H109  S    
C161  H98   S    
C53   H37   S    
C63   C145  S    
C152  H80   S    
C11   H15   S    
C56   H40   S    
C46   O22   A    
C106  C119  A    
C65   O39   A    
C120  C131  S    
C66   O40   A    
O31   Zn7   S    
C179  H141  S    
C87   H47   S    
C45   O25   A    
C82   C142  S    
O1    Zn1   S    
O57   C169  S    
C127  H67   S    
C174  H124  S    
C46   C142  S    
O18   Zn3   S    
C15   C19   A    
C50   C54   A    
C82   H34   S    
O22   Zn1   S    
C27   H27   S    
C34   O50   S    
O5    Zn9   S    
C25   H25   S    
C107  H59   S    
C94   C98   A    
C70   O47   A    
C105  H57   S    
O20   Zn4   S    
C159  H92   S    
C78   H42   S    
O35   Zn7   S    
C105  C109  A    
O40   Zn7   S    
C47   O23   A    
C157  H86   S    
O59   C171  S    
C94   H50   S    
C67   O41   A    
C124  C128  A    
O51   C159  S    
O16   Zn12  S    
C45   C141  S    
C8    C148  S    
O42   Zn6   S    
C1    O17   A    
C150  H10   S    
C7    H83   S    
C157  H87   S    
C148  C152  S    
C163  H104  S    
C138  C142  S    
C166  N6    T    
C85   C89   A    
O46   Zn10  S    
C64   O38   A    
C36   O52   S    
C27   C31   A    
C33   C37   A    
C108  C112  A    
C35   C39   A    
C154  N2    T    
C134  C142  S    
O21   Zn1   S    
C4    O4    A    
C15   H19   S    
C177  H134  S    
C8    H84   S    
C85   H45   S    
C29   C57   S    
C94   C103  A    
C5    H5    S    
C50   O54   S    
C84   H36   S    
C149  H9    S    
O37   Zn6   S    
C32   C60   S    
C8    H8    S    
C137  C141  S    
O50   C158  S    
C53   C57   A    
O27   Zn4   S    
C1    C17   S    
C115  H69   S    
C140  C144  S    
C86   C89   A    
C128  C130  A    
O34   Zn6   S    
C70   C102  S    
C45   O21   A    
C98   C101  A    
C115  C145  S    
O10   Zn9   S    
C133  C141  S    
C117  C147  S    
C169  H110  S    
C116  O58   S    
C88   H48   S    
C9    H13   S    
C82   C116  S    
C136  C144  S    
C49   O53   S    
C123  C167  S    
C43   C51   A    
C135  C151  S    
C171  H116  S    
C115  O57   S    
C111  C114  A    
C134  C154  S    
O53   C161  S    
C173  H122  S    
C56   C60   A    
C99   C102  A    
O41   Zn5   S    
O68   C180  S    
O49   C157  S    
C22   C26   A    
C87   C90   A    
C176  H131  S    
C133  C153  S    
C105  C119  A    
C97   H53   S    
C75   O13   A    
C76   O15   A    
C145  C149  S    
C3    O3    A    
C40   H32   S    
C125  H65   S    
C178  H138  S    
C158  H88   S    
O14   Zn10  S    
C2    C18   S    
C153  N1    T    
C14   C18   A    
O67   C179  S    
C91   C104  S    
C162  H100  S    
C175  H127  S    
C81   H1    S    
C68   O43   A    
C164  H106  S    
O44   Zn8   S    
C134  H74   S    
C179  H140  S    
C38   C42   A    
C109  H61   S    
C174  H125  S    
O7    Zn11  S    
C134  C150  S    
C30   C58   S    
C92   C103  S    
C180  H142  S    
C69   O45   A    
C20   C24   A    
C160  H95   S    
C23   C27   A    
C180  H143  S    
C137  O61   S    
C109  C113  A    
O45   Zn9   S    
C78   C86   A    
C81   C141  S    
O26   Zn3   S    
C11   C31   A    
C5    H81   S    
C12   C32   A    
C116  H70   S    
C83   H35   S    
C139  C143  S    
C121  C131  A    
C135  C155  S    
C81   H33   S    
C22   H22   S    
C61   C89   S    
O6    Zn10  S    
C26   H26   S    
C51   O55   S    
C36   C40   A    
C133  C149  S    
C71   O5    A    
C2    O2    A    
C39   C43   A    
C47   O27   A    
C48   O28   A    
C6    C138  S    
C62   O31   A    
C16   H20   S    
C73   O7    A    
C81   C115  S    
C100  C102  A    
C119  C132  S    
C170  H113  S    
C162  H101  S    
C110  C113  A    
C61   O29   A    
C79   C92   A    
C152  H12   S    
O3    Zn2   S    
C151  H11   S    
C117  H71   S    
C33   O49   S    
C175  H129  S    
C95   C104  A    
C35   O51   S    
C172  H118  S    
C54   C58   A    
C164  H108  S    
C33   C57   A    
C34   C38   A    
C88   C90   A    
C36   C60   A    
C12   H16   S    
O17   Zn3   S    
C9    C29   A    
C78   C91   A    
C46   O26   A    
C169  H111  S    
O52   C160  S    
C67   C113  S    
C127  C130  A    
C72   O10   A    
O61   C173  S    
O36   Zn8   S    
C7    C139  S    
C70   O48   A    
C62   C90   S    
C13   H17   S    
O58   C170  S    
C65   O35   A    
O38   Zn5   S    
C3    O19   A    
C66   O36   A    
C82   H2    S    
C75   C129  S    
C106  C110  A    
C138  O66   S    
C158  H90   S    
C118  O60   S    
O66   C178  S    
C172  H119  S    
C165  N5    T    
C137  O65   S    
C97   C101  A    
C52   C56   A    
C68   C114  S    
C138  O62   S    
C76   O16   A    
