data_mof_unit_55054.cif
_audit_creation_date              2013-03-05T15:43:37-0500
_audit_creation_method            fapswitch 2.2
_symmetry_space_group_name_H-M    P1
_symmetry_Int_Tables_number       1
_space_group_crystal_system       triclinic
_cell_length_a                    8.330248
_cell_length_b                    15.208929
_cell_length_c                    18.872942
_cell_angle_alpha                 100.785979
_cell_angle_beta                  91.055622
_cell_angle_gamma                 100.102124
_cell_volume                      2309.18413561

loop_
_atom_site_label
_atom_site_type_symbol
_atom_site_description
_atom_site_fract_x
_atom_site_fract_y
_atom_site_fract_z
_atom_type_partial_charge
P1    P     P_3+3 0.038110 0.412300 0.335300 0.477886
O1    O     O_2   0.871030 0.438240 0.324420 -0.379793
O2    O     O_3   0.120590 0.445310 0.413740 -0.355163
O3    O     O_3   0.663040 0.605930 0.370050 -0.345711
O4    O     O_2   0.764538 0.531968 0.245006 -0.408997
O5    O     O_3   0.996944 0.293556 0.311681 -0.571391
O6    O     O_3   0.721631 0.697685 0.254461 -0.558335
H1    H     H_    0.524891 0.738416 0.314705 -0.072687
C1    C     C_3   0.732645 0.846246 0.325367 -0.869375
H2    H     H_    0.778177 0.829146 0.375696 0.234349
H3    H     H_    0.838040 0.870502 0.294438 0.286550
P2    P     P_3+3 0.679950 0.711710 0.558590 0.664116
P3    P     P_3+3 0.142137 0.772325 0.408685 0.540750
O7    O     O_2   0.855660 0.723510 0.537160 -0.240507
O8    O     O_3   0.086340 0.654970 0.406630 -0.322103
O9    O     O_2   0.023945 0.819931 0.458062 -0.334477
O10   O     O_3   0.718088 0.753980 0.652743 -0.511739
O11   O     O_3   0.100150 0.794276 0.323133 -0.534650
C2    C     C_3   0.125696 0.720001 0.270650 0.421554
H4    H     H_    0.034906 0.658231 0.273928 0.147953
H5    H     H_    0.250556 0.705549 0.277359 0.040663
C3    C     C_3   0.105098 0.742022 0.195974 -0.804239
H6    H     H_    0.131924 0.685631 0.154123 0.217121
H7    H     H_    0.978233 0.751436 0.185825 0.274237
C4    C     C_3   0.299398 0.763540 0.674555 0.836262
H8    H     H_    0.381601 0.725978 0.641290 -0.052069
C5    C     C_3   0.384475 0.814417 0.746684 -0.879233
H9    H     H_    0.399774 0.766190 0.782307 0.184326
H10   H     H_    0.505467 0.853670 0.737808 0.257122
H11   H     H_    0.309628 0.862597 0.774824 0.313415
Ba1   Ba    Ba6+2 0.854120 0.540280 0.465540 1.713532
C6    C     C_3   0.939736 0.255549 0.370067 0.396568
H12   H     H_    0.829277 0.281771 0.388774 0.086098
H13   H     H_    0.035060 0.271006 0.414763 0.106785
C7    C     C_3   0.896783 0.152886 0.344043 -0.951170
H14   H     H_    0.798420 0.136170 0.300541 0.281617
H15   H     H_    0.854058 0.118580 0.388586 0.198991
H16   H     H_    0.006077 0.126366 0.322787 0.271104
C8    C     C_3   0.677162 0.688465 0.695648 0.698106
H17   H     H_    0.545934 0.670813 0.697265 -0.014174
C9    C     C_3   0.740921 0.724856 0.774702 -0.171141
H18   H     H_    0.719754 0.668121 0.805070 0.102998
H19   H     H_    0.671487 0.776601 0.800944 0.103168
P4    P     P_3+3 0.151600 0.587780 0.664700 0.586121
O12   O     O_2   0.318670 0.561790 0.675630 -0.419890
O13   O     O_3   0.069120 0.554770 0.586270 -0.279290
O14   O     O_3   0.526680 0.394150 0.629950 -0.260417
O15   O     O_3   0.157327 0.706401 0.689249 -0.527891
P5    P     P_3+3 0.061011 0.227164 0.586727 0.568766
O16   O     O_3   0.607620 0.388570 0.462320 -0.384816
O17   O     O_3   0.103380 0.345110 0.593380 -0.424145
O18   O     O_2   0.199026 0.186247 0.546823 -0.309524
O19   O     O_3   0.079698 0.203009 0.673420 -0.406573
Ba2   Ba    Ba6+2 0.335710 0.459790 0.534460 1.684570
P6    P     P_3+3 0.642247 0.592132 0.276212 0.442159
C10   C     C_3   0.624335 0.762552 0.280563 0.942820
H20   H     H_    0.662424 0.902060 0.339878 0.211303
O20   O     O_3   0.582100 0.611510 0.537680 -0.311048
C11   C     C_3   0.455296 0.310655 0.312748 0.409229
H21   H     H_    0.335431 0.325653 0.331030 0.091449
H22   H     H_    0.551259 0.372734 0.326904 0.116962
C12   C     C_3   0.442811 0.280921 0.230952 -0.954451
H23   H     H_    0.346251 0.219495 0.214797 0.277819
H24   H     H_    0.411635 0.336066 0.205250 0.213415
H25   H     H_    0.561410 0.265018 0.211432 0.261910
P7    P     P_3+3 0.512633 0.274083 0.437597 0.455313
O21   O     O_2   0.334040 0.276520 0.462890 -0.359952
O22   O     O_3   0.496090 0.240006 0.343478 -0.575343
H26   H     H_    0.189766 0.805615 0.191747 0.288217
C13   C     C_3   0.035836 0.273816 0.724156 0.338382
H27   H     H_    0.118568 0.339357 0.723241 0.061506
H28   H     H_    0.908126 0.280133 0.712299 0.022480
C14   C     C_3   0.051419 0.254968 0.800550 0.125602
H29   H     H_    0.995594 0.303889 0.839017 0.020710
H30   H     H_    0.181295 0.265596 0.818940 0.143745
P8    P     P_3+3 0.554695 0.398019 0.723283 0.494707
C15   C     C_3   0.494663 0.223805 0.746405 0.972711
O23   O     O_2   0.467360 0.476849 0.755618 -0.399453
O24   O     O_3   0.425747 0.303782 0.748439 -0.611239
H31   H     H_    0.642043 0.168834 0.817967 0.315108
C16   C     C_3   0.613374 0.235662 0.812032 -0.979757
H32   H     H_    0.557340 0.263341 0.862326 0.247048
H33   H     H_    0.727848 0.280759 0.805582 0.205048
C17   C     C_R   0.987922 0.466648 0.049926 0.035299
C18   C     C_R   0.891308 0.418868 0.096306 -0.181561
C19   C     C_R   0.760575 0.447070 0.957596 -0.185048
C20   C     C_R   0.927787 0.472608 0.979832 0.062954
C21   C     C_R   0.706832 0.443597 0.886555 -0.168029
C22   C     C_R   0.818231 0.461559 0.833994 -0.013068
C23   C     C_R   0.981451 0.501911 0.857138 0.005227
C24   C     C_R   0.036618 0.507813 0.930594 0.046760
C25   C     C_R   0.773095 0.438598 0.759099 0.136191
C26   C     C_R   0.893448 0.458447 0.709713 -0.426658
C27   C     C_R   0.036772 0.523274 0.732400 0.287497
C28   C     C_R   0.087361 0.538784 0.807396 -0.050703
C29   C     C_R   0.152558 0.504767 0.073008 0.034008
C30   C     C_R   0.211354 0.501932 0.144443 -0.000949
C31   C     C_R   0.106473 0.459712 0.192323 -0.055083
C32   C     C_R   0.950549 0.413944 0.164916 -0.028103
H34   H     H_    0.862136 0.436486 0.652447 0.192036
H35   H     H_    0.577673 0.421933 0.872718 0.169242
H36   H     H_    0.871431 0.373531 0.196089 0.161518
C33   C     C_R   0.240870 0.588499 0.834625 0.003393
C34   C     C_R   0.297052 0.591919 0.905406 -0.176905
C35   C     C_R   0.199943 0.548181 0.953973 0.032099
C36   C     C_R   0.259128 0.545412 0.025142 0.041336
C37   C     C_R   0.423955 0.578476 0.049225 -0.157843
C38   C     C_R   0.375978 0.540165 0.167482 -0.029922
C39   C     C_R   0.480490 0.575717 0.118391 -0.086103
C40   C     C_R   0.432723 0.539130 0.238308 0.139613
C41   C     C_R   0.327866 0.497439 0.283945 -0.439937
C42   C     C_R   0.163989 0.461663 0.264735 0.214956
H37   H     H_    0.323236 0.622806 0.801226 0.128792
H38   H     H_    0.608798 0.600936 0.132304 0.183552
H39   H     H_    0.377801 0.487822 0.334174 0.194085
H40   H     H_    0.667894 0.429829 0.994404 0.130696
H41   H     H_    0.769887 0.381489 0.079806 0.129693
H42   H     H_    0.418067 0.630395 0.920475 0.129235
H43   H     H_    0.514744 0.605355 0.015191 0.138155
C43   C     C_R   0.765873 0.235457 0.518595 -0.450554
C44   C     C_R   0.862769 0.177609 0.538868 0.229892
C45   C     C_R   0.809040 0.083440 0.521821 -0.149167
C46   C     C_R   0.646518 0.045763 0.495282 0.127238
C47   C     C_R   0.552407 0.106431 0.473224 -0.156256
C48   C     C_R   0.615724 0.199532 0.481435 0.320365
C49   C     C_R   0.429868 0.906079 0.447105 -0.315802
C50   C     C_R   0.355801 0.816033 0.444795 0.171919
C51   C     C_R   0.588541 0.791967 0.513264 -0.025224
C52   C     C_R   0.649861 0.886776 0.526778 0.377031
C53   C     C_R   0.577716 0.945017 0.488842 -0.016749
C54   C     C_R   0.439137 0.759027 0.474789 -0.024069
H44   H     H_    0.365774 0.944496 0.417604 0.169520
H45   H     H_    0.897466 0.041319 0.528031 0.188640
H46   H     H_    0.430180 0.084207 0.449494 0.135136
H47   H     H_    0.811024 0.308089 0.528239 0.144869
Cl1   Cl    Cl    0.746278 0.588881 0.660793 -0.604588
N1    N     N_R   0.913184 0.766609 0.781400 0.305121
O25   O     O_R   0.012707 0.738858 0.822588 -0.385644
O26   O     O_R   0.959127 0.843828 0.760949 -0.222987
Cl2   Cl    Cl    0.535575 0.795298 0.205249 -0.691314
Cl3   Cl    Cl    0.956880 0.141474 0.804996 -0.398681
N2    N     N_R   0.576307 0.201122 0.679226 0.187446
O27   O     O_R   0.503844 0.209061 0.619928 -0.360826
O28   O     O_R   0.675288 0.143167 0.675052 -0.357017
N3    N     N_R   0.361417 0.146967 0.750063 0.251089
O29   O     O_R   0.298257 0.091018 0.691323 -0.207461
O30   O     O_R   0.319530 0.126520 0.812028 -0.345224
Cl4   Cl    Cl    0.784339 0.930664 0.604011 -0.406150
N4    N     N_R   0.356027 0.671180 0.478883 0.247705
O31   O     O_R   0.244496 0.662629 0.524984 -0.353874
O32   O     O_R   0.371453 0.602198 0.429679 -0.391456
N5    N     N_R   0.254844 0.831146 0.635543 0.235342
O33   O     O_R   0.366780 0.895845 0.621666 -0.377703
O34   O     O_R   0.102646 0.833764 0.621644 -0.218616

loop_
_geom_bond_atom_site_label_1
_geom_bond_atom_site_label_2
_geom_bond_distance
_ccdc_geom_bond_type
P7    O22   1.750494 S    
C26   C27   1.411054 A    
C9    H18   1.113356 S    
C49   C50   1.392252 A    
C20   C24   1.420932 A    
C5    H10   1.110350 S    
C14   H30   1.104948 S    
C14   H29   1.108402 S    
C24   C35   1.416386 A    
C35   C36   1.432821 A    
O5    C6    1.391611 S    
C2    H4    1.110238 S    
P8    O24   1.779558 S    
O6    P6    1.751330 S    
O7    Ba1   2.858333 S    
C51   C52   1.415744 A    
H1    C10   1.112515 S    
C16   H32   1.109846 S    
C46   C47   1.422946 A    
C8    C9    1.540479 S    
C14   Cl3   1.785080 S    
P4    O12   1.532532 D    
N1    O26   1.300824 A    
O16   Ba2   2.929142 S    
P3    O11   1.750058 S    
C4    N5    1.464317 S    
Ba1   O20   2.929982 S    
C33   H37   1.074138 S    
P8    O23   1.545186 D    
O14   P8    1.761240 S    
O11   C2    1.405619 S    
N4    O32   1.290969 A    
P1    C42   1.893763 S    
C17   C29   1.418211 A    
C10   Cl2   1.780611 S    
O2    Ba2   2.823818 S    
C19   C21   1.394249 A    
C36   C37   1.412081 A    
C49   C53   1.421915 A    
P1    Ba1   3.402090 S    
C38   C39   1.400275 A    
C19   H40   1.079038 S    
P1    O1    1.532117 D    
O10   C8    1.399194 S    
C15   N2    1.462667 S    
C52   Cl4   1.771579 S    
C12   H24   1.109146 S    
N3    O30   1.303527 A    
C40   C41   1.394517 A    
C30   C38   1.418265 A    
P6    C40   1.858087 S    
C41   C42   1.392282 A    
C28   C33   1.400784 A    
P5    O17   1.746462 S    
Ba1   O13   2.823332 S    
P2    O10   1.775317 S    
C17   C20   1.430237 A    
C13   H27   1.111208 S    
C15   C16   1.534012 S    
C1    H2    1.107942 S    
C3    H26   1.109461 S    
C9    N1    1.456719 S    
P2    Ba1   3.419659 S    
P2    O20   1.571566 S    
C3    H7    1.109032 S    
P7    O21   1.575258 D    
C11   H21   1.109609 S    
C5    H11   1.111105 S    
C9    H19   1.106132 S    
O6    C10   1.409329 S    
O19   C13   1.405360 S    
C37   H43   1.076753 S    
C34   C35   1.415560 A    
C16   H33   1.095745 S    
P4    O13   1.574327 S    
C30   C31   1.428872 A    
C34   H42   1.076919 S    
C8    Cl1   1.733518 S    
C15   O24   1.427902 S    
C11   H22   1.111208 S    
C31   C42   1.433119 A    
P1    O5    1.747464 S    
C6    C7    1.522414 S    
C23   C28   1.424151 A    
C7    H16   1.110960 S    
C17   C18   1.414520 A    
C8    H17   1.081368 S    
C19   C20   1.412389 A    
Ba2   O21   2.858407 S    
C4    H8    1.099201 S    
O1    Ba1   2.839932 S    
P1    O2    1.574492 S    
C7    H14   1.110895 S    
C6    H13   1.110393 S    
C18   H41   1.078720 S    
C45   H45   1.075730 S    
C12   H23   1.110617 S    
C18   C32   1.396979 A    
C11   O22   1.400151 S    
C1    H3    1.110627 S    
C4    O15   1.405083 S    
C49   H44   1.075491 S    
P5    O18   1.543933 D    
P5    C44   1.834292 S    
C29   C30   1.436724 A    
O13   Ba2   2.941313 S    
C13   C14   1.529252 S    
C1    C10   1.521663 S    
N5    O33   1.299967 A    
C22   C25   1.418044 A    
O2    Ba1   2.940334 S    
O16   P7    1.753466 S    
C26   H34   1.082407 S    
C44   C45   1.397288 A    
C39   H38   1.080105 S    
P8    C25   1.884783 S    
O14   Ba2   2.810707 S    
N5    O34   1.298924 A    
O12   Ba2   2.840668 S    
C31   C32   1.400879 A    
P3    O8    1.756587 S    
C46   C53   1.520082 S    
N2    O28   1.301674 A    
C54   N4    1.409409 S    
Ba1   O16   2.797293 S    
C51   C54   1.392488 A    
C15   N3    1.476639 S    
N3    O29   1.303176 A    
C5    H9    1.104730 S    
C43   C44   1.391298 A    
C52   C53   1.437582 A    
Ba2   O20   2.796858 S    
C29   C36   1.425614 A    
C11   C12   1.521430 S    
C12   H25   1.110926 S    
C7    H15   1.102570 S    
C43   C48   1.392604 A    
O4    P6    1.539259 D    
C21   H35   1.080492 S    
P2    O7    1.514943 D    
H31   C16   1.108779 S    
C41   H39   1.073218 S    
O8    Ba1   2.764455 S    
P2    C51   1.869328 S    
C4    C5    1.527069 S    
N1    O25   1.300577 A    
P7    C48   1.836881 S    
C47   H46   1.075794 S    
O17   Ba2   2.765014 S    
C6    H12   1.103797 S    
C43   H47   1.082281 S    
C45   C46   1.416888 A    
O3    P6    1.745662 S    
N4    O31   1.291078 A    
C23   C24   1.434105 A    
C37   C39   1.390078 A    
P5    O19   1.752665 S    
C25   C26   1.413716 A    
C38   C40   1.413397 A    
C1    H20   1.109439 S    
Ba1   Ba2   4.627231 S    
C27   C28   1.433442 A    
C50   C54   1.390842 A    
O3    Ba1   2.811361 S    
P4    C27   1.922233 S    
P3    C50   1.856068 S    
P4    Ba2   3.402733 S    
C32   H36   1.079719 S    
C21   C22   1.402223 A    
C2    C3    1.521773 S    
P3    O9    1.547049 D    
C33   C34   1.395938 A    
N2    O27   1.297183 A    
C3    H6    1.108849 S    
C13   H28   1.107354 S    
C22   C23   1.414630 A    
P4    O15   1.768569 S    
C47   C48   1.400022 A    
C2    H5    1.109931 S    
