data_mof_unit_18129.cif
_audit_creation_date              2012-12-10T20:26:29-0500
_audit_creation_method            fapswitch 2.2
_symmetry_space_group_name_H-M    P1
_symmetry_Int_Tables_number       1
_space_group_crystal_system       triclinic
_cell_length_a                    10.507514
_cell_length_b                    10.637331
_cell_length_c                    9.895007
_cell_angle_alpha                 89.909839
_cell_angle_beta                  89.774173
_cell_angle_gamma                 91.06354
_cell_volume                      1105.78315513

loop_
_atom_site_label
_atom_site_type_symbol
_atom_type_description
_atom_site_fract_x
_atom_site_fract_y
_atom_site_fract_z
_atom_type_partial_charge
C1    C     C_R   0.503941 0.260393 0.499973 0.946549
C2    C     C_R   0.508137 0.128238 0.496846 -0.092537
C3    C     C_R   0.422515 0.063487 0.412924 -0.177306
C4    C     C_R   0.421276 0.933800 0.412204 -0.205586
C5    C     C_R   0.506108 0.870942 0.495610 -0.110739
C6    C     C_R   0.605120 0.935921 0.558298 0.138806
C7    C     C_3   0.658980 0.926951 0.697399 -0.080370
C8    C     C_3   0.661810 0.070573 0.698393 -0.467754
C9    C     C_R   0.421660 0.420234 0.070192 0.273753
C10   C     C_R   0.569039 0.586813 0.071455 -0.070410
C11   C     C_R   0.571474 0.584940 0.927626 -0.119765
C12   C     C_R   0.261391 0.486946 0.500261 0.860432
C13   C     C_R   0.413667 0.427604 0.928949 0.236566
C14   C     C_3   0.390569 0.290202 0.914210 -0.474519
C15   C     C_3   0.414901 0.278151 0.065325 -0.125908
C16   C     C_R   0.501196 0.739403 0.499585 0.883562
C17   C     C_R   0.739300 0.509893 0.499874 0.986784
C18   C     C_2   0.949560 0.516739 0.391301 0.365530
C19   C     C_2   0.876273 0.509829 0.502725 -0.512705
C20   C     C_2   0.065747 0.443085 0.386970 0.248927
C21   C     C_2   0.133628 0.432914 0.500549 0.073083
C22   C     C_R   0.606608 0.064485 0.559169 0.059211
H1    H     H_    0.758214 0.114996 0.699743 0.247452
H2    H     H_    0.625998 0.655873 0.125011 0.208247
H3    H     H_    0.631929 0.651210 0.873400 0.145841
H4    H     H_    0.290257 0.268260 0.886800 0.252006
H5    H     H_    0.460544 0.244958 0.848106 0.216372
H6    H     H_    0.330641 0.238842 0.119656 0.222636
H7    H     H_    0.914149 0.476620 0.597474 0.202836
H8    H     H_    0.353864 0.112743 0.352989 0.218013
H9    H     H_    0.350527 0.883143 0.353031 0.182670
H10   H     H_    0.588950 0.886803 0.771126 0.153150
H11   H     H_    0.595475 0.108934 0.773927 0.179545
N1    N     N_R   0.499170 0.499140 0.142800 -0.129795
N2    N     N_R   0.499170 0.499180 0.857150 -0.122775
O1    O     O_R   0.500020 0.316790 0.614690 -0.607488
O2    O     O_R   0.500000 0.316760 0.385350 -0.639605
O3    O     O_R   0.319080 0.500020 0.614640 -0.561713
O4    O     O_R   0.319070 0.499980 0.385300 -0.599121
O5    O     O_R   0.500000 0.683240 0.614650 -0.639279
O6    O     O_R   0.499980 0.683210 0.385310 -0.607570
O7    O     O_R   0.680930 0.500020 0.614700 -0.627865
O8    O     O_R   0.680920 0.499980 0.385360 -0.550974
Zn1   Zn    Zn3+2 0.500010 0.500020 0.653130 0.982821
Zn2   Zn    Zn3+2 0.499990 0.499980 0.346870 1.020646
S1    S     S_3+6 0.910983 0.606839 0.246895 0.050768
O9    O     O_2   0.849915 0.523490 0.142450 -0.264877
O10   O     O_2   0.822338 0.710610 0.284161 -0.356932
O11   O     O_3   0.046036 0.669674 0.182131 -0.534763
H12   H     H_    0.019491 0.713456 0.098725 0.382907
C23   C     C_3   0.537082 0.202378 0.093269 -0.442049
C24   C     C_3   0.662744 0.263950 0.047314 -0.659382
H13   H     H_    0.658547 0.296984 0.941147 0.242525
H14   H     H_    0.687599 0.343586 0.114536 0.304773
H15   H     H_    0.739680 0.194166 0.054426 0.270584
H16   H     H_    0.544506 0.180344 0.201673 0.243895
H17   H     H_    0.526837 0.109872 0.041882 0.210708
S2    S     S_3+6 0.069924 0.323362 0.263320 0.108524
O12   O     O_2   0.120521 0.378689 0.133667 -0.234665
O13   O     O_2   0.153508 0.218119 0.306956 -0.310662
O14   O     O_3   0.922080 0.266182 0.235770 -0.508278
H18   H     H_    0.891385 0.235829 0.324964 0.363872
S3    S     S_3+6 0.102738 0.307074 0.615109 0.022995
O15   O     O_2   0.090578 0.359641 0.755350 -0.280191
O16   O     O_2   0.981581 0.238185 0.578529 -0.352712
O17   O     O_3   0.224249 0.206679 0.611207 -0.552153
H19   H     H_    0.199031 0.137957 0.674017 0.373511
C25   C     C_3   0.789522 0.862732 0.705406 -0.402085
C26   C     C_3   0.883410 0.895611 0.591196 -0.708966
H20   H     H_    0.842954 0.869328 0.491624 0.282017
H21   H     H_    0.908528 0.997156 0.591232 0.288312
H22   H     H_    0.972181 0.842253 0.605662 0.239446
H23   H     H_    0.834210 0.886866 0.803812 0.228733
H24   H     H_    0.772724 0.759321 0.704207 0.212488

loop_
_geom_bond_atom_site_label_1
_geom_bond_atom_site_label_2
_ccdc_geom_bond_type
C2    C22   A    
C3    H8    S    
C8    C22   S    
C17   O8    A    
O3    Zn1   S    
C6    C7    S    
C23   H17   S    
C15   C23   S    
C14   H5    S    
C26   H22   S    
C25   H24   S    
C24   H15   S    
C1    O2    A    
O4    Zn2   S    
S3    O16   D    
C25   H23   S    
S2    O14   S    
C11   N2    A    
C2    C3    A    
C7    C25   S    
S3    O17   S    
C7    C8    S    
C10   N1    A    
N1    Zn2   S    
C13   C14   S    
C14   H4    S    
N2    Zn1   S    
O8    Zn2   S    
S1    O11   S    
C15   H6    S    
C9    N1    A    
O7    Zn1   S    
C16   O5    A    
C5    C6    A    
C18   S1    S    
C17   C19   S    
C24   H14   S    
C13   N2    A    
S2    O13   D    
C18   C20   S    
C26   H20   S    
C12   O3    A    
O14   H18   S    
S1    O10   D    
C19   H7    S    
O1    Zn1   S    
C4    H9    S    
C21   S3    S    
C10   C11   A    
C11   H3    S    
O2    Zn2   S    
S3    O15   D    
C6    C22   A    
O5    Zn1   S    
C8    H1    S    
O17   H19   S    
C20   C21   D    
C26   H21   S    
C1    C2    S    
S1    O9    D    
O11   H12   S    
C9    C13   A    
C17   O7    A    
C18   C19   D    
C5    C16   S    
O6    Zn2   S    
C7    H10   S    
C10   H2    S    
S2    O12   D    
C14   C15   S    
C4    C5    A    
C20   S2    S    
C12   C21   S    
C25   C26   S    
C12   O4    A    
C3    C4    A    
C23   C24   S    
C1    O1    A    
C24   H13   S    
C8    H11   S    
C16   O6    A    
C9    C15   S    
C23   H16   S    
