data_mof_unit_15104.cif
_audit_creation_date              2013-03-05T15:54:37-0500
_audit_creation_method            fapswitch 2.2
_symmetry_space_group_name_H-M    P1
_symmetry_Int_Tables_number       1
_space_group_crystal_system       triclinic
_cell_length_a                    10.12952
_cell_length_b                    10.60952
_cell_length_c                    16.595032
_cell_angle_alpha                 94.622245
_cell_angle_beta                  86.578676
_cell_angle_gamma                 89.522002
_cell_volume                      1774.3334528

loop_
_atom_site_label
_atom_site_type_symbol
_atom_site_description
_atom_site_fract_x
_atom_site_fract_y
_atom_site_fract_z
_atom_type_partial_charge
O1    O     O_R   0.385310 0.683220 0.500000 -0.651481
O2    O     O_R   0.614640 0.683250 0.500010 -0.551421
C1    C     C_R   0.499802 0.737781 0.489798 0.997121
O3    O     O_R   0.371780 0.500010 0.615800 -0.662421
O4    O     O_R   0.601110 0.500030 0.615800 -0.566877
C2    C     C_R   0.482634 0.492753 0.652357 0.918882
Zn1   Zn    Zn3+2 0.346870 0.499980 0.499990 0.953180
Zn2   Zn    Zn3+2 0.653130 0.500020 0.500010 1.101818
O5    O     O_R   0.385360 0.316750 0.499990 -0.676196
O6    O     O_R   0.614690 0.316780 0.500000 -0.511829
O7    O     O_R   0.398890 0.499970 0.384200 -0.626941
O8    O     O_R   0.628220 0.499990 0.384200 -0.601460
C3    C     C_R   0.498735 0.261110 0.508935 0.904687
C4    C     C_R   0.516951 0.499016 0.346535 0.895730
C5    C     C_R   0.474086 0.448633 0.733495 -0.031142
C6    C     C_R   0.582281 0.383202 0.759753 -0.077736
C7    C     C_R   0.570963 0.324991 0.831468 -0.132662
C8    C     C_R   0.452945 0.336540 0.880172 0.171389
C9    C     C_R   0.342960 0.397669 0.852917 -0.143584
C10   C     C_R   0.353231 0.453195 0.779652 -0.172143
C11   C     C_R   0.418562 0.428925 0.132237 -0.185133
C12   C     C_R   0.410687 0.479567 0.212584 0.298604
C13   C     C_R   0.646124 0.436632 0.218660 -0.148342
C14   C     C_R   0.652886 0.387875 0.138553 -0.138963
C15   C     C_R   0.538786 0.380218 0.095545 0.120200
C16   C     C_2   0.449845 0.308490 0.965118 -0.200112
C17   C     C_2   0.552969 0.341768 0.008783 -0.169001
C18   C     C_R   0.524908 0.477833 0.257776 -0.154684
H1    H     H_    0.675696 0.375427 0.724496 0.223308
H2    H     H_    0.735931 0.438876 0.250324 0.177636
H3    H     H_    0.647979 0.361451 0.978850 0.156715
H4    H     H_    0.251292 0.407776 0.890121 0.146214
H5    H     H_    0.331820 0.434748 0.097680 0.171459
H6    H     H_    0.267419 0.500544 0.759532 0.171782
H7    H     H_    0.354667 0.289031 0.994847 0.162369
H8    H     H_    0.656140 0.275097 0.850222 0.152267
H9    H     H_    0.747690 0.356111 0.110004 0.159387
C19   C     C_R   0.260999 0.885786 0.449346 -0.211032
H10   H     H_    0.264001 0.796902 0.412577 0.236486
C20   C     C_R   0.141024 0.950762 0.462024 0.274748
C21   C     C_R   0.133275 0.064920 0.511927 0.235525
C22   C     C_R   0.249478 0.117028 0.540267 -0.225589
H11   H     H_    0.243058 0.203522 0.579651 0.209173
C23   C     C_R   0.373016 0.061602 0.514745 0.038098
C24   C     C_R   0.376198 0.937265 0.480395 0.023252
C25   C     C_R   0.496656 0.870597 0.473563 -0.239173
C26   C     C_R   0.614160 0.937181 0.473415 0.227981
C27   C     C_R   0.612366 0.056909 0.514888 0.281483
C28   C     C_R   0.493628 0.126162 0.521630 -0.251667
C29   C     C_R   0.863221 0.685584 0.609965 0.394855
C30   C     C_R   0.937996 0.782885 0.646147 -0.156593
H12   H     H_    0.888696 0.855603 0.687214 0.201048
C31   C     C_R   0.073663 0.779198 0.641046 -0.116020
C32   C     C_R   0.136465 0.676608 0.598405 -0.140332
H13   H     H_    0.239703 0.669886 0.603509 0.253170
C33   C     C_R   0.068729 0.586655 0.550450 0.109136
C34   C     C_R   0.924986 0.586946 0.553604 0.049009
N1    N     N_R   0.857140 0.501200 0.500750 -0.136957
C35   C     C_R   0.935040 0.426028 0.444843 0.078398
C36   C     C_R   0.077434 0.420419 0.447758 -0.015209
N2    N     N_R   0.142740 0.501280 0.500770 -0.159239
N3    N     N_R   0.714291 0.905893 0.409622 0.267706
O9    O     O_R   0.774571 0.996838 0.374990 -0.248736
O10   O     O_R   0.720626 0.793266 0.372039 -0.337793
N4    N     N_R   0.027995 0.895251 0.427259 0.265595
O11   O     O_R   0.032401 0.863210 0.349764 -0.258724
O12   O     O_R   0.942188 0.841964 0.474192 -0.365797
N5    N     N_R   0.012353 0.135582 0.527273 0.235830
O13   O     O_R   0.929709 0.137958 0.470665 -0.264373
O14   O     O_R   0.995821 0.215697 0.590827 -0.383309
N6    N     N_R   0.714344 0.088804 0.569305 0.282037
O15   O     O_R   0.706301 0.192542 0.616769 -0.378380
O16   O     O_R   0.795009 0.000630 0.586832 -0.337187
C37   C     C_2   0.875126 0.363075 0.373565 0.604378
H14   H     H_    0.920076 0.374861 0.313692 0.058864
O17   O     O_2   0.782409 0.291746 0.380142 -0.488221
N7    N     N_R   0.738405 0.677179 0.652100 0.214480
O18   O     O_R   0.652538 0.768134 0.648226 -0.361888
O19   O     O_R   0.738099 0.622683 0.719691 -0.422936
N8    N     N_R   0.288444 0.537524 0.245466 0.213321
O20   O     O_R   0.176209 0.487771 0.226720 -0.399099
O21   O     O_R   0.288620 0.651111 0.281339 -0.367179
C38   C     C_2   0.148388 0.879796 0.684863 0.439243
H15   H     H_    0.095760 0.957537 0.719751 0.092290
O22   O     O_2   0.269168 0.877950 0.682026 -0.546999
C39   C     C_2   0.157056 0.325774 0.393077 0.444014
H16   H     H_    0.262024 0.332099 0.385203 0.146426
O23   O     O_2   0.107059 0.235338 0.356902 -0.544737

loop_
_geom_bond_atom_site_label_1
_geom_bond_atom_site_label_2
_geom_bond_distance
_ccdc_geom_bond_type
C23   C28   1.411693 A    
C21   C22   1.395486 A    
C9    C10   1.391942 A    
C8    C16   1.462619 S    
C26   N3    1.438502 S    
C31   C32   1.378661 A    
Zn1   O7    1.961908 S    
C16   C17   1.340218 D    
C37   O17   1.216392 D    
O4    C2    1.317748 A    
O7    C4    1.315497 A    
C39   O23   1.220266 D    
C11   H5    1.081505 S    
C5    C6    1.402130 A    
C33   C34   1.453834 A    
C7    C8    1.401311 A    
C8    C9    1.400626 A    
O5    C3    1.308653 A    
Zn1   N2    2.066931 S    
C19   C24   1.400889 A    
N3    O10   1.301828 A    
Zn2   N1    2.067428 S    
C2    C5    1.458760 S    
C25   C26   1.389145 A    
C26   C27   1.394549 A    
N5    O13   1.296642 A    
N4    O12   1.296169 A    
C13   C14   1.384644 A    
C7    H8    1.082814 S    
N7    O18   1.301746 A    
C10   H6    1.083415 S    
C35   C36   1.446970 A    
C12   C18   1.416647 A    
C11   C12   1.394276 A    
C22   C23   1.405502 A    
O3    Zn1   1.953212 S    
C9    H4    1.083573 S    
C29   C30   1.402620 A    
C21   N5    1.429646 S    
N7    O19   1.302525 A    
C5    C10   1.403156 A    
C32   C33   1.403071 A    
C37   H14   1.084980 S    
C17   H3    1.086096 S    
C30   H12   1.085018 S    
C13   H2    1.076871 S    
C14   C15   1.393730 A    
O3    C2    1.312351 A    
N6    O16   1.298786 A    
C36   C39   1.494825 S    
C39   H16   1.066842 S    
C6    C7    1.383588 A    
N1    C35   1.379265 A    
C24   C25   1.399346 A    
C36   N2    1.380146 A    
C30   C31   1.371831 A    
N3    O9    1.300554 A    
C38   H15   1.085613 S    
Zn2   O8    1.953212 S    
C14   H9    1.083891 S    
C13   C18   1.403661 A    
C35   C37   1.476032 S    
C3    C28   1.464741 S    
N8    O21   1.300463 A    
C27   C28   1.398191 A    
C38   O22   1.221475 D    
O8    C4    1.320753 A    
C20   N4    1.423338 S    
C22   H11   1.082019 S    
C27   N6    1.437014 S    
C29   N7    1.414863 S    
C23   C24   1.393579 A    
Zn1   O5    1.979504 S    
C11   C15   1.403975 A    
C32   H13   1.056476 S    
C20   C21   1.409923 A    
O1    Zn1   1.985870 S    
C29   C34   1.457004 A    
Zn2   O6    1.985871 S    
O2    Zn2   1.979502 S    
N8    O20   1.301417 A    
O6    C3    1.324890 A    
O4    Zn2   1.961908 S    
C15   C17   1.462802 S    
C1    C25   1.456249 S    
C31   C38   1.481512 S    
C4    C18   1.469279 S    
O2    C1    1.320874 A    
C6    H1    1.081368 S    
C12   N8    1.435870 S    
N6    O15   1.299811 A    
C19   C20   1.388723 A    
C34   N1    1.422324 A    
C19   H10   1.080334 S    
C16   H7    1.085580 S    
N5    O14   1.301897 A    
N4    O11   1.301485 A    
C33   N2    1.362620 A    
O1    C1    1.308555 A    
