data_mof_unit_59958.cif
_audit_creation_date              2012-12-10T16:48:39-0500
_audit_creation_method            fapswitch 2.2
_symmetry_space_group_name_H-M    P1
_symmetry_Int_Tables_number       1
_space_group_crystal_system       triclinic
_cell_length_a                    7.764403
_cell_length_b                    8.624387
_cell_length_c                    10.78526
_cell_angle_alpha                 88.694916
_cell_angle_beta                  99.053508
_cell_angle_gamma                 92.850393
_cell_volume                      712.253956584

loop_
_atom_site_label
_atom_site_type_symbol
_atom_type_description
_atom_site_fract_x
_atom_site_fract_y
_atom_site_fract_z
_atom_type_partial_charge
C1    C     C_R   0.542603 0.794198 0.495184 0.953193
C2    C     C_2   0.449351 0.044865 0.529190 -0.016855
C3    C     C_3   0.645314 0.008699 0.362678 -0.889330
C4    C     C_3   0.354625 0.991179 0.637331 -0.893094
C5    C     C_R   0.457417 0.205800 0.504873 0.959782
C6    C     C_R   0.573468 0.498471 0.735900 0.936063
C7    C     C_R   0.428237 0.511648 0.264080 0.934187
C8    C     C_2   0.617970 0.513781 0.870105 -0.376160
C9    C     C_2   0.390241 0.534752 0.129912 -0.372234
C10   C     C_2   0.494663 0.558667 0.932980 -0.154457
C11   C     C_2   0.524713 0.555645 0.067118 -0.150307
C12   C     C_2   0.550662 0.955101 0.470861 -0.015719
H1    H     H_    0.659585 0.558108 0.114012 0.189482
H2    H     H_    0.325101 0.090659 0.692998 0.239378
H3    H     H_    0.228271 0.930018 0.600738 0.264023
H4    H     H_    0.437022 0.914402 0.703559 0.234201
H5    H     H_    0.364887 0.586044 0.886110 0.188986
H6    H     H_    0.255722 0.532039 0.082563 0.148903
H7    H     H_    0.747338 0.486282 0.917424 0.150292
H8    H     H_    0.985942 0.384412 0.407731 0.191246
H9    H     H_    0.014061 0.615591 0.592270 0.190103
H10   H     H_    0.674711 0.909182 0.306982 0.237134
H11   H     H_    0.562886 0.085462 0.296480 0.235440
H12   H     H_    0.771706 0.069828 0.399219 0.264226
N1    N     N_2   0.940600 0.458860 0.467170 -0.172680
N2    N     N_2   0.059400 0.541140 0.532830 -0.172792
O1    O     O_R   0.391630 0.738350 0.508060 -0.618763
O2    O     O_R   0.608370 0.261650 0.491940 -0.615634
O3    O     O_R   0.674540 0.711990 0.487010 -0.628253
O4    O     O_R   0.325460 0.288010 0.512990 -0.624432
O5    O     O_R   0.411370 0.508250 0.688780 -0.617963
O6    O     O_R   0.588630 0.491750 0.311220 -0.618847
O7    O     O_R   0.694270 0.481880 0.667740 -0.621271
O8    O     O_R   0.305730 0.518120 0.332260 -0.622052
Zn1   Zn    Zn3+2 0.311100 0.517600 0.514050 0.932011
Zn2   Zn    Zn3+2 0.688900 0.482400 0.485950 0.932194

loop_
_geom_bond_atom_site_label_1
_geom_bond_atom_site_label_2
_ccdc_geom_bond_type
C4    H4    S    
C2    C4    S    
H9    N2    S    
C3    C12   S    
C5    O2    A    
C11   H1    S    
N2    Zn1   S    
C3    H11   S    
C6    O7    A    
C2    C12   D    
C4    H3    S    
C1    O3    A    
C6    O5    A    
C9    C11   D    
O3    Zn2   S    
C3    H12   S    
C1    C12   S    
O4    Zn1   S    
O6    Zn2   S    
C5    O4    A    
C4    H2    S    
C7    O8    A    
O5    Zn1   S    
C2    C5    S    
C10   C11   S    
N1    Zn2   S    
C8    H7    S    
C7    C9    S    
C9    H6    S    
O7    Zn2   S    
O2    Zn2   S    
C8    C10   D    
O8    Zn1   S    
H8    N1    S    
C1    O1    A    
C3    H10   S    
C6    C8    S    
C7    O6    A    
C10   H5    S    
O1    Zn1   S    
N1    N2    D    
