data_mof_unit_65631.cif
_audit_creation_date              2012-12-10T18:08:48-0500
_audit_creation_method            fapswitch 2.2
_symmetry_space_group_name_H-M    P1
_symmetry_Int_Tables_number       1
_space_group_crystal_system       triclinic
_cell_length_a                    36.909229
_cell_length_b                    18.374771
_cell_length_c                    18.377204
_cell_angle_alpha                 89.979396
_cell_angle_beta                  119.757483
_cell_angle_gamma                 90.032441
_cell_volume                      10819.8948153

loop_
_atom_site_label
_atom_site_type_symbol
_atom_type_description
_atom_site_fract_x
_atom_site_fract_y
_atom_site_fract_z
_atom_type_partial_charge
C1    C     C_R   0.499985 0.000010 0.360126 0.838429
C2    C     C_1   0.337447 0.000142 0.337125 0.155606
C3    C     C_3   0.700252 0.395412 0.439875 -0.811757
C4    C     C_3   0.683592 0.634229 0.299300 0.182179
C5    C     C_3   0.670046 0.629324 0.364931 -0.800541
C6    C     C_3   0.290532 0.414258 0.610790 0.153418
C7    C     C_3   0.300321 0.447131 0.546558 -0.797336
C8    C     C_3   0.771648 0.142448 0.920263 0.117361
C9    C     C_3   0.760639 0.110711 0.983888 -0.885648
C10   C     C_3   0.225879 0.938645 0.038180 0.072531
C11   C     C_3   0.195352 0.912176 0.950182 -0.726293
C12   C     C_3   0.216832 0.110455 0.045562 0.127241
C13   C     C_1   0.162567 0.499753 0.663115 0.161944
C14   C     C_3   0.209500 0.191849 0.030426 -0.731597
C15   C     C_3   0.824479 0.977615 0.993217 0.140814
C16   C     C_3   0.846206 0.903923 0.014750 -0.696504
C17   C     C_3   0.322950 0.508660 0.993707 0.116479
C18   C     C_3   0.344224 0.581940 0.025646 -0.683961
C19   C     C_3   0.726341 0.373108 0.074326 0.079159
C20   C     C_3   0.696033 0.326675 0.000503 -0.758188
C21   C     C_3   0.715758 0.538611 0.016438 0.102615
C22   C     C_3   0.706917 0.611039 0.970693 -0.677325
C23   C     C_3   0.274035 0.363006 0.930390 0.065945
C24   C     C_1   0.837439 0.499698 0.337044 0.155695
C25   C     C_3   0.307742 0.316861 0.999692 -0.778647
C26   C     C_1   0.624884 0.000127 0.625198 -0.142786
C27   C     C_1   0.375123 0.000009 0.375053 -0.142153
C28   C     C_1   0.124888 0.499995 0.625032 -0.143244
C29   C     C_1   0.875117 0.499891 0.374981 -0.142781
C30   C     C_1   0.499935 0.000028 0.282618 -0.165757
C31   C     C_1   0.500065 0.999971 0.717382 -0.162540
C32   C     C_1   0.999936 0.500029 0.282619 -0.164744
C33   C     C_R   0.500015 0.999989 0.639874 0.839621
C34   C     C_1   0.000063 0.499971 0.717380 -0.162965
C35   C     C_1   0.499916 0.000022 0.217358 -0.167168
C36   C     C_1   0.500083 0.999976 0.782642 -0.163632
C37   C     C_1   0.999917 0.500024 0.217358 -0.166059
C38   C     C_1   0.000082 0.499976 0.782641 -0.164089
C39   C     C_R   0.999993 0.139688 0.999982 0.845447
C40   C     C_R   0.999997 0.860312 0.000009 0.845671
C41   C     C_R   0.499982 0.639688 0.999972 0.840344
C42   C     C_R   0.500004 0.360312 0.000015 0.849348
C43   C     C_R   0.919974 0.000116 0.920039 0.807054
C44   C     C_R   0.999986 0.500010 0.360126 0.839297
C45   C     C_R   0.080032 0.000157 0.079970 0.808535
C46   C     C_R   0.419972 0.499738 0.920039 0.806997
C47   C     C_R   0.580030 0.499867 0.079980 0.806693
C48   C     C_R   0.499991 0.859946 0.999984 0.842626
C49   C     C_R   0.500007 0.140053 0.000016 0.842748
C50   C     C_R   0.999992 0.359947 0.999983 0.842431
C51   C     C_R   0.000007 0.640053 0.000018 0.842799
C52   C     C_R   0.499968 0.000007 0.139951 0.842007
C53   C     C_R   0.500031 0.999991 0.860048 0.843623
C54   C     C_R   0.999969 0.500009 0.139951 0.842337
C55   C     C_R   0.000013 0.499989 0.639873 0.839975
C56   C     C_R   0.000031 0.499991 0.860048 0.843189
C57   C     C_1   0.999982 0.217182 0.999953 -0.163526
C58   C     C_1   0.000009 0.782818 0.000042 -0.165262
C59   C     C_1   0.499969 0.717182 0.999944 -0.168499
C60   C     C_1   0.500016 0.282817 0.000045 -0.160819
C61   C     C_R   0.580033 0.000023 0.579987 0.804047
C62   C     C_R   0.419969 0.999991 0.420018 0.803079
C63   C     C_R   0.080034 0.500013 0.579972 0.805212
C64   C     C_R   0.919967 0.499980 0.419989 0.803570
C65   C     C_1   0.499972 0.782449 0.999951 -0.165781
C66   C     C_1   0.837478 0.000749 0.839952 0.195793
C67   C     C_1   0.500020 0.217550 0.000045 -0.161076
C68   C     C_1   0.999979 0.282449 0.999954 -0.162332
C69   C     C_1   0.000016 0.717551 0.000045 -0.163998
C70   C     C_3   0.725965 0.052938 0.669077 0.255483
C71   C     C_3   0.274101 0.927279 0.303103 0.274436
C72   C     C_3   0.274554 0.063198 0.321865 0.356366
C73   C     C_3   0.725623 0.923358 0.712382 0.303061
C74   C     C_3   0.225881 0.577622 0.720181 0.294881
C75   C     C_3   0.774271 0.441723 0.327623 0.272480
C76   C     C_3   0.774432 0.575159 0.296038 0.356492
C77   C     C_1   0.162550 0.001113 0.161693 0.213880
C78   C     C_3   0.225862 0.453445 0.662986 0.268748
C79   C     C_3   0.774380 0.922585 0.760413 0.774009
C80   C     C_3   0.225989 0.060406 0.279113 0.754402
C81   C     C_3   0.225433 0.924115 0.248041 0.779508
C82   C     C_3   0.774700 0.056426 0.720684 0.807879
C83   C     C_3   0.274509 0.447355 0.715476 0.788315
C84   C     C_3   0.725872 0.574386 0.253688 0.754033
C85   C     C_3   0.725583 0.436295 0.274599 0.781338
C86   C     C_3   0.274669 0.577653 0.765788 0.796847
C87   C     C_1   0.875148 0.000481 0.875757 -0.170490
C88   C     C_1   0.337472 0.498089 0.839577 0.196345
C89   C     C_1   0.124872 0.000660 0.124481 -0.152489
C90   C     C_1   0.375144 0.498829 0.875707 -0.166619
C91   C     C_1   0.624868 0.499538 0.124555 -0.151816
C92   C     C_3   0.708732 0.000749 0.710874 -0.186940
C93   C     C_3   0.291285 0.000409 0.290348 -0.180083
C94   C     C_3   0.208718 0.499117 0.710185 -0.177543
C95   C     C_3   0.791273 0.499368 0.290339 -0.179678
C96   C     C_3   0.791220 0.001032 0.796107 -0.189046
C97   C     C_3   0.208853 0.001112 0.207178 -0.168381
C98   C     C_3   0.291229 0.497862 0.795169 -0.176188
C99   C     C_1   0.662544 0.499363 0.161811 0.216161
C100  C     C_3   0.708843 0.499063 0.207298 -0.168829
C101  C     C_3   0.774175 0.025345 0.857023 0.798191
C102  C     C_3   0.225386 0.017966 0.143929 0.772636
C103  C     C_3   0.273826 0.468487 0.853573 0.753026
C104  C     C_3   0.725272 0.485720 0.143264 0.774130
C105  C     C_3   0.724730 0.026624 0.802013 -0.429497
C106  C     C_3   0.274902 0.010810 0.195377 -0.512660
C107  C     C_3   0.224750 0.465214 0.798081 -0.434136
C108  C     C_3   0.774832 0.480800 0.196867 -0.512324
C109  C     C_3   0.788242 0.095185 0.613501 0.125090
C110  C     C_1   0.662561 0.000360 0.663472 0.162253
C111  C     C_3   0.830667 0.130729 0.644019 -0.707475
C112  C     C_3   0.209813 0.829874 0.315128 0.163472
C113  C     C_3   0.199723 0.816673 0.384840 -0.838595
C114  C     C_3   0.183384 0.083235 0.339983 0.183727
C115  C     C_3   0.169366 0.048632 0.397084 -0.786348
C116  C     C_3   0.788649 0.825781 0.694227 0.140896
C117  C     C_3   0.792880 0.809322 0.617708 -0.806603
C118  C     C_3   0.286119 0.679177 0.700151 0.118082
C119  C     C_3   0.329612 0.712300 0.748891 -0.715526
C120  C     C_3   0.710255 0.378676 0.370733 0.151836
Cu1   Cu    Cu3+1 0.500000 0.072550 0.500000 0.996865
Cu2   Cu    Cu3+1 0.458680 0.000000 0.958690 0.980843
Cu3   Cu    Cu3+1 0.041320 0.500000 0.041310 0.990567
Cu4   Cu    Cu3+1 0.958680 0.500000 0.958690 0.980935
Cu5   Cu    Cu3+1 0.500000 0.927450 0.500000 0.998048
Cu6   Cu    Cu3+1 1.000000 0.572550 0.500000 0.996243
Cu7   Cu    Cu3+1 0.000000 0.427450 0.500000 0.996799
Cu8   Cu    Cu3+1 0.000010 0.000000 0.927480 0.992837
Cu9   Cu    Cu3+1 0.999990 0.000000 0.072520 0.966781
Cu10  Cu    Cu3+1 0.500010 0.500000 0.927480 0.994352
Cu11  Cu    Cu3+1 0.499990 0.500000 0.072520 0.968234
Cu12  Cu    Cu3+1 0.541320 0.000000 0.041310 0.989866
F1    F     F_    0.710521 0.874860 0.748934 -0.593584
F2    F     F_    0.210374 0.129048 0.245353 -0.606781
F3    F     F_    0.214113 0.873095 0.184215 -0.628041
F4    F     F_    0.787390 0.126227 0.753162 -0.613861
F5    F     F_    0.285807 0.375740 0.742331 -0.606359
F6    F     F_    0.710220 0.631504 0.195914 -0.605069
F7    F     F_    0.714209 0.369569 0.233106 -0.629919
F8    F     F_    0.290418 0.622631 0.835926 -0.616715
F9    F     F_    0.287505 0.129696 0.306839 -0.587485
F10   F     F_    0.291908 0.869173 0.283935 -0.616752
F11   F     F_    0.709195 0.122010 0.661254 -0.616705
F12   F     F_    0.208021 0.384585 0.645194 -0.608726
F13   F     F_    0.787392 0.627356 0.259185 -0.584771
F14   F     F_    0.792087 0.374289 0.331535 -0.620100
F15   F     F_    0.212031 0.619742 0.764205 -0.589750
F16   F     F_    0.788802 0.873714 0.826995 -0.625328
H1    H     H_    0.715761 0.032905 0.604561 0.075892
H2    H     H_    0.287359 0.964970 0.175460 0.195552
H3    H     H_    0.289548 0.060458 0.186697 0.220943
H4    H     H_    0.711178 0.990720 0.831230 0.231747
H5    H     H_    0.210184 0.493475 0.830741 0.225736
H6    H     H_    0.787667 0.426759 0.195624 0.193458
H7    H     H_    0.789093 0.519243 0.171543 0.222743
H8    H     H_    0.213193 0.408311 0.788506 0.205390
H9    H     H_    0.764718 0.137444 0.604473 0.192773
H10   H     H_    0.777941 0.071073 0.550827 0.145656
H11   H     H_    0.853720 0.089278 0.649177 0.244705
H12   H     H_    0.283398 0.922298 0.370545 0.086026
H13   H     H_    0.828157 0.173386 0.598929 0.196242
H14   H     H_    0.841812 0.156201 0.706331 0.277295
H15   H     H_    0.241518 0.807724 0.335754 0.181212
H16   H     H_    0.186512 0.800076 0.258349 0.199094
H17   H     H_    0.167858 0.836888 0.365609 0.258271
H18   H     H_    0.201184 0.757505 0.398360 0.208092
H19   H     H_    0.222632 0.845601 0.442630 0.256289
H20   H     H_    0.155847 0.086289 0.275849 0.160722
H21   H     H_    0.194976 0.139100 0.363224 0.191007
H22   H     H_    0.195979 0.045689 0.462226 0.255314
H23   H     H_    0.288457 0.058432 0.391078 0.094350
H24   H     H_    0.144075 0.081685 0.396621 0.204373
H25   H     H_    0.157464 0.992786 0.374885 0.264140
H26   H     H_    0.759142 0.800544 0.684567 0.172002
H27   H     H_    0.815545 0.800735 0.749968 0.194910
H28   H     H_    0.822503 0.832504 0.626034 0.267051
H29   H     H_    0.793005 0.749526 0.609072 0.207203
H30   H     H_    0.766249 0.833421 0.560892 0.251101
H31   H     H_    0.264793 0.706125 0.718506 0.184831
H32   H     H_    0.273510 0.691181 0.632589 0.140828
H33   H     H_    0.350349 0.687969 0.727704 0.244314
H34   H     H_    0.713547 0.905178 0.646519 0.072686
H35   H     H_    0.327849 0.771964 0.738049 0.191581
H36   H     H_    0.343135 0.702069 0.817036 0.270132
H37   H     H_    0.741974 0.354107 0.400065 0.179100
H38   H     H_    0.686948 0.338654 0.327207 0.199560
H39   H     H_    0.668384 0.418773 0.412521 0.256652
H40   H     H_    0.701768 0.344683 0.474142 0.218588
H41   H     H_    0.723172 0.435115 0.484659 0.257054
H42   H     H_    0.655789 0.623671 0.236942 0.159025
H43   H     H_    0.695486 0.690162 0.300716 0.188644
H44   H     H_    0.696955 0.640798 0.428095 0.251527
H45   H     H_    0.213071 0.602382 0.656827 0.060744
H46   H     H_    0.645039 0.669705 0.350873 0.201788
H47   H     H_    0.657922 0.573908 0.364651 0.267526
H48   H     H_    0.259040 0.388817 0.576482 0.180962
H49   H     H_    0.314206 0.371591 0.646167 0.201805
H50   H     H_    0.331960 0.471852 0.578658 0.263333
H51   H     H_    0.299273 0.404126 0.503110 0.217470
H52   H     H_    0.276999 0.489758 0.509816 0.252361
H53   H     H_    0.744600 0.169006 0.866831 0.169102
H54   H     H_    0.793171 0.188633 0.952268 0.176427
H55   H     H_    0.789468 0.099894 0.044124 0.243877
H56   H     H_    0.783738 0.457906 0.393068 0.085855
H57   H     H_    0.742108 0.151341 0.996288 0.220082
H58   H     H_    0.741721 0.060487 0.960785 0.267959
H59   H     H_    0.243527 0.890505 0.075603 0.224405
H60   H     H_    0.247444 0.977823 0.033268 0.091605
H61   H     H_    0.177027 0.958688 0.910291 0.228621
H62   H     H_    0.212690 0.886369 0.921960 0.211286
H63   H     H_    0.173638 0.871547 0.952454 0.272772
H64   H     H_    0.192334 0.081909 0.989227 0.169584
H65   H     H_    0.248149 0.098568 0.053909 0.105951
H66   H     H_    0.233575 0.222421 0.085375 0.268730
H67   H     H_    0.788248 0.590522 0.363270 0.092840
H68   H     H_    0.211402 0.207659 0.974072 0.179933
H69   H     H_    0.178117 0.206311 0.020334 0.257023
H70   H     H_    0.820359 0.993532 0.046789 0.151088
H71   H     H_    0.845660 0.017999 0.988816 0.156029
H72   H     H_    0.854543 0.887755 0.966778 0.263691
H73   H     H_    0.875359 0.907143 0.076335 0.181298
H74   H     H_    0.825517 0.861888 0.018354 0.277722
H75   H     H_    0.344765 0.472590 0.985530 0.156144
H76   H     H_    0.317766 0.484471 0.043163 0.143798
H77   H     H_    0.322937 0.620078 0.033039 0.273388
H78   H     H_    0.216583 0.480375 0.601910 0.079857
H79   H     H_    0.372916 0.574762 0.087372 0.179233
H80   H     H_    0.353219 0.605488 0.981264 0.265614
H81   H     H_    0.744458 0.335933 0.128140 0.219375
H82   H     H_    0.747509 0.400541 0.056288 0.091226
H83   H     H_    0.677094 0.361659 0.945053 0.235913
H84   H     H_    0.713601 0.286811 0.984507 0.192021
H85   H     H_    0.674877 0.296653 0.016744 0.270516
H86   H     H_    0.691732 0.499206 0.973767 0.170901
H87   H     H_    0.747279 0.520680 0.030391 0.110026
H88   H     H_    0.730470 0.652038 0.011136 0.274438
H89   H     H_    0.710537 0.080277 0.797739 0.199517
H90   H     H_    0.708376 0.604412 0.912138 0.189762
H91   H     H_    0.675325 0.630694 0.954440 0.253942
H92   H     H_    0.248457 0.325674 0.888421 0.171330
H93   H     H_    0.261500 0.401803 0.958937 0.141802
H94   H     H_    0.334122 0.351614 0.043981 0.228957
H95   H     H_    0.294617 0.288270 0.034710 0.206073
H96   H     H_    0.319545 0.275728 0.972269 0.269734
O1    O     O_R   0.500010 0.061270 0.394200 -0.579220
O2    O     O_R   0.439720 0.938730 0.439720 -0.570329
O3    O     O_R   0.439720 0.061270 0.439720 -0.572889
O4    O     O_R   0.560280 0.938730 0.560280 -0.572878
O5    O     O_R   0.060280 0.561270 0.560280 -0.574376
O6    O     O_R   0.939720 0.438730 0.439720 -0.571262
O7    O     O_R   0.939720 0.561270 0.439720 -0.572912
O8    O     O_R   0.060280 0.438730 0.560280 -0.571398
O9    O     O_R   0.000000 0.105620 0.938740 -0.580049
O10   O     O_R   0.000000 0.894380 0.061260 -0.582156
O11   O     O_R   0.000000 0.105620 0.061260 -0.581204
O12   O     O_R   0.499990 0.938730 0.605800 -0.578150
O13   O     O_R   0.000000 0.894380 0.938740 -0.577026
O14   O     O_R   0.500000 0.605620 0.938740 -0.578005
O15   O     O_R   0.500000 0.394380 0.061260 -0.580280
O16   O     O_R   0.500000 0.605620 0.061260 -0.583801
O17   O     O_R   0.500000 0.394380 0.938740 -0.578004
O18   O     O_R   0.939730 0.000000 0.878470 -0.568727
O19   O     O_R   0.060270 0.000000 0.121530 -0.585274
O20   O     O_R   0.439730 0.500000 0.878470 -0.567220
O21   O     O_R   0.560270 0.500000 0.121530 -0.581639
O22   O     O_R   0.939720 0.000000 0.000940 -0.590115
O23   O     O_R   0.499990 0.061270 0.605800 -0.580015
O24   O     O_R   0.060280 0.000000 0.999060 -0.566770
O25   O     O_R   0.439720 0.500000 0.000940 -0.590853
O26   O     O_R   0.560280 0.500000 0.999060 -0.568580
O27   O     O_R   0.534900 0.894160 0.034870 -0.579337
O28   O     O_R   0.465100 0.105840 0.965130 -0.579965
O29   O     O_R   0.465100 0.894160 0.965130 -0.584547
O30   O     O_R   0.534900 0.105840 0.034870 -0.580486
O31   O     O_R   0.034900 0.394160 0.034870 -0.579591
O32   O     O_R   0.965100 0.605840 0.965130 -0.583377
O33   O     O_R   0.965100 0.394160 0.965130 -0.581355
O34   O     O_R   0.500010 0.938730 0.394200 -0.580757
O35   O     O_R   0.034900 0.605840 0.034870 -0.579827
O36   O     O_R   0.534890 0.000000 0.140680 -0.582474
O37   O     O_R   0.465110 0.000000 0.859320 -0.582923
O38   O     O_R   0.034890 0.500000 0.140680 -0.581729
O39   O     O_R   0.965110 0.500000 0.859320 -0.583329
O40   O     O_R   0.465110 0.000000 0.070890 -0.582943
O41   O     O_R   0.534890 0.000000 0.929110 -0.579214
O42   O     O_R   0.965110 0.500000 0.070890 -0.582757
O43   O     O_R   0.034890 0.500000 0.929110 -0.579393
O44   O     O_3   0.791858 0.038147 0.668661 -0.600057
O45   O     O_R   0.000010 0.561270 0.394200 -0.580489
O46   O     O_3   0.207371 0.905362 0.298338 -0.603977
O47   O     O_3   0.215761 0.040763 0.341958 -0.634606
O48   O     O_3   0.789099 0.902091 0.704877 -0.609687
O49   O     O_3   0.288576 0.602551 0.710356 -0.613706
O50   O     O_3   0.707726 0.443760 0.327368 -0.602731
O51   O     O_3   0.715518 0.582758 0.318482 -0.633556
O52   O     O_3   0.292508 0.469616 0.666107 -0.601688
O53   O     O_3   0.792972 0.094436 0.893530 -0.580281
O54   O     O_3   0.203111 0.969741 0.073622 -0.559443
O55   O     O_3   0.214127 0.091590 0.117304 -0.514744
O56   O     O_R   0.999990 0.438730 0.605800 -0.580515
O57   O     O_3   0.784386 0.971318 0.920656 -0.541857
O58   O     O_3   0.283552 0.518861 0.920446 -0.544721
O59   O     O_3   0.703360 0.422700 0.094557 -0.557355
O60   O     O_3   0.713474 0.548351 0.090327 -0.515380
O61   O     O_3   0.290705 0.397458 0.884175 -0.552099
O62   O     O_R   0.999990 0.561270 0.605800 -0.578080
O63   O     O_R   0.000010 0.438730 0.394200 -0.579240
O64   O     O_R   0.560280 0.061270 0.560280 -0.571910

loop_
_geom_bond_atom_site_label_1
_geom_bond_atom_site_label_2
_ccdc_geom_bond_type
C78   H78   S    
C54   O38   A    
Cu6   Cu7   S    
C118  O49   S    
C16   H74   S    
C19   C20   S    
C111  H13   S    
C83   F5    S    
C6    H48   S    
C114  C115  S    
C75   C95   S    
C25   H94   S    
C50   O33   A    
C77   C89   T    
C51   O32   A    
C3    H41   S    
Cu10  O26   S    
Cu3   O35   S    
C39   O11   A    
C100  C104  S    
C105  H4    S    
C36   C53   S    
Cu7   O56   S    
C48   O27   A    
C103  O61   S    
C48   C65   S    
C81   O46   S    
C40   O10   A    
C63   O8    A    
C29   C64   S    
C104  O60   S    
C21   C22   S    
C4    H43   S    
Cu5   O2    S    
C117  H29   S    
C112  H16   S    
C40   C58   S    
C84   C100  S    
C74   F15   S    
C43   O22   A    
C113  H18   S    
C115  H24   S    
Cu6   O7    S    
C41   O16   A    
C101  O53   S    
C52   O40   A    
Cu6   O45   S    
C53   O41   A    
C21   H86   S    
C40   O13   A    
C51   O35   A    
C15   H70   S    
C19   H81   S    
C12   H64   S    
C79   F16   S    
C64   O6    A    
C102  O55   S    
C22   H91   S    
C25   H96   S    
C4    C5    S    
C3    H39   S    
C43   O18   A    
C6    C7    S    
C71   C93   S    
C13   C94   S    
C21   O60   S    
Cu11  O21   S    
C120  O50   S    
C79   C96   S    
C1    O1    A    
C23   H92   S    
C76   H67   S    
C108  H7    S    
C78   C94   S    
Cu10  Cu11  S    
C70   C82   S    
Cu2   O37   S    
Cu10  O17   S    
C45   O19   A    
C95   C108  S    
Cu11  O16   S    
C28   C63   S    
C17   O58   S    
C105  H89   S    
C31   C36   T    
Cu5   O4    S    
C103  C107  S    
C51   C69   S    
Cu9   O22   S    
C5    H46   S    
C118  H32   S    
C106  H2    S    
C80   C97   S    
C47   O26   A    
C109  H9    S    
Cu8   Cu9   S    
Cu1   O23   S    
Cu3   Cu4   S    
C84   O51   S    
C70   F11   S    
C86   O49   S    
Cu6   O5    S    
C44   O63   A    
C27   C62   S    
C109  C111  S    
Cu5   O34   S    
C10   H60   S    
C60   C67   T    
C83   C98   S    
C77   C97   S    
C23   H93   S    
C79   O48   S    
C47   O21   A    
C39   O9    A    
C20   H83   S    
C115  H22   S    
Cu10  O14   S    
Cu3   O31   S    
C75   F14   S    
Cu12  O36   S    
C94   C107  S    
C44   O45   A    
C4    H42   S    
C18   H79   S    
C116  O48   S    
Cu1   Cu5   S    
C17   H75   S    
C18   H77   S    
C78   F12   S    
C93   C106  S    
C83   O52   S    
Cu12  O41   S    
C17   C18   S    
C73   C79   S    
C14   H68   S    
C119  H35   S    
C32   C37   T    
C107  H5    S    
C12   O55   S    
C57   C68   T    
C15   H71   S    
C45   C89   S    
C116  H27   S    
C73   C92   S    
C73   F1    S    
C102  O54   S    
C6    H49   S    
C53   O37   A    
C46   O25   A    
Cu8   O13   S    
C115  H25   S    
C59   C65   T    
C92   C110  S    
C16   H72   S    
C10   C11   S    
C38   C56   S    
C20   H85   S    
C91   C99   T    
Cu2   O40   S    
Cu10  O20   S    
C71   C81   S    
Cu4   O42   S    
C114  H21   S    
C74   C94   S    
C4    O51   S    
C120  H37   S    
C76   C84   S    
C61   O4    A    
C71   H12   S    
C111  H14   S    
C8    H53   S    
C26   C61   S    
C9    H58   S    
C11   H62   S    
C113  H17   S    
C62   O2    A    
C15   O57   S    
C98   C103  S    
C80   F2    S    
C14   H66   S    
Cu7   O8    S    
C119  H33   S    
C7    H52   S    
C111  H11   S    
C24   C29   T    
C109  O44   S    
C78   C83   S    
C75   C85   S    
C103  O58   S    
Cu9   O11   S    
C50   O31   A    
C13   C28   T    
C2    C27   T    
Cu8   O18   S    
C82   O44   S    
C97   C102  S    
Cu2   O28   S    
Cu1   O1    S    
C74   H45   S    
C34   C55   S    
C96   C101  S    
C16   H73   S    
C70   H1    S    
C12   H65   S    
C81   F3    S    
C25   H95   S    
C72   F9    S    
C72   H23   S    
C24   C95   S    
Cu5   O12   S    
Cu7   O63   S    
Cu8   O24   S    
C18   H80   S    
Cu11  O15   S    
C72   C93   S    
C63   O5    A    
C88   C90   T    
C76   F13   S    
C104  O59   S    
C56   O39   A    
C19   O59   S    
Cu2   O29   S    
C104  C108  S    
C117  H30   S    
C66   C96   S    
C112  H15   S    
C106  H3    S    
C47   C91   S    
C33   O12   A    
C70   C92   S    
Cu3   O38   S    
C113  H19   S    
Cu4   O33   S    
C58   C69   T    
C114  H20   S    
C46   C90   S    
C54   O42   A    
C116  H26   S    
Cu7   O6    S    
C7    H50   S    
C1    O34   A    
C73   H34   S    
C21   H87   S    
C1    C30   S    
C86   C98   S    
C19   H82   S    
C49   O28   A    
C92   C105  S    
Cu1   O3    S    
C8    O53   S    
C72   C80   S    
C35   C52   S    
C85   C100  S    
C42   O17   A    
Cu9   O19   S    
C50   C68   S    
C11   H61   S    
C22   H90   S    
C20   H84   S    
C112  O46   S    
C3    H40   S    
Cu12  O27   S    
C114  O47   S    
C30   C35   T    
C33   O23   A    
Cu6   O62   S    
C76   C95   S    
C6    O52   S    
C46   O20   A    
C15   C16   S    
C39   C57   S    
C116  C117  S    
C118  C119  S    
C9    H55   S    
C11   H63   S    
C45   O24   A    
C8    C9    S    
C31   C33   S    
C14   H69   S    
C26   C110  T    
C101  O57   S    
C107  H8    S    
C86   F8    S    
C52   O36   A    
C48   O29   A    
C84   F6    S    
C82   F4    S    
C109  H10   S    
Cu2   Cu12  S    
C112  C113  S    
C101  C105  S    
C82   C96   S    
C41   C59   S    
C42   C60   S    
C66   C87   T    
C10   H59   S    
C42   O15   A    
C10   O54   S    
C64   O7    A    
C99   C100  S    
Cu11  O25   S    
Cu12  O30   S    
Cu8   O9    S    
C32   C44   S    
C108  H6    S    
C74   C86   S    
Cu3   O43   S    
C71   F10   S    
C22   H88   S    
C37   C54   S    
C117  H28   S    
C12   C14   S    
Cu1   O64   S    
C61   O64   A    
Cu4   O39   S    
C85   F7    S    
C49   C67   S    
C34   C38   T    
C2    C93   S    
C5    H44   S    
C120  H38   S    
C49   O30   A    
C75   H56   S    
C80   O47   S    
C5    H47   S    
C43   C87   S    
C8    H54   S    
C17   H76   S    
C9    H57   S    
C118  H31   S    
Cu4   O32   S    
C62   O3    A    
C81   C97   S    
C85   O50   S    
C102  C106  S    
C56   O43   A    
C119  H36   S    
C23   C25   S    
C7    H51   S    
C41   O14   A    
C55   O62   A    
C88   C98   S    
C23   O61   S    
C3    C120  S    
C55   O56   A    
Cu9   O10   S    
