data_mof_unit_65194.cif
_audit_creation_date              2012-12-10T18:13:17-0500
_audit_creation_method            fapswitch 2.2
_symmetry_space_group_name_H-M    P1
_symmetry_Int_Tables_number       1
_space_group_crystal_system       triclinic
_cell_length_a                    18.300022
_cell_length_b                    18.396971
_cell_length_c                    25.922506
_cell_angle_alpha                 89.953847
_cell_angle_beta                  90.001422
_cell_angle_gamma                 90.014908
_cell_volume                      8727.19667992

loop_
_atom_site_label
_atom_site_type_symbol
_atom_type_description
_atom_site_fract_x
_atom_site_fract_y
_atom_site_fract_z
_atom_type_partial_charge
C1    C     C_R   0.859269 0.139427 0.250296 0.796287
C2    C     C_R   0.822357 0.266239 0.262760 -0.227844
C3    C     C_R   0.263647 0.287501 0.296276 -0.004369
C4    C     C_1   0.295222 0.894739 0.226823 0.200712
C5    C     C_1   0.295232 0.894684 0.773184 0.200819
C6    C     C_1   0.777823 0.822564 0.154768 0.198487
C7    C     C_1   0.777595 0.822560 0.845191 0.198292
C8    C     C_1   0.795219 0.394735 0.726804 0.200744
C9    C     C_1   0.795229 0.394679 0.273204 0.200848
C10   C     C_1   0.277971 0.322431 0.654739 0.198378
C11   C     C_1   0.277802 0.322374 0.345232 0.198141
C12   C     C_1   0.704777 0.105278 0.773270 0.201169
C13   C     C_R   0.209734 0.234530 0.705561 -0.234877
C14   C     C_1   0.704766 0.105329 0.226730 0.200814
C15   C     C_1   0.222066 0.177544 0.845304 0.199510
C16   C     C_1   0.222238 0.177596 0.154734 0.198920
C17   C     C_1   0.204774 0.605273 0.273253 0.201164
C18   C     C_1   0.204763 0.605325 0.726747 0.200807
C19   C     C_1   0.722216 0.677409 0.345274 0.199578
C20   C     C_1   0.722452 0.677404 0.654777 0.199039
C21   C     C_1   0.085447 0.894776 0.054843 0.203487
C22   C     C_1   0.085449 0.894779 0.945280 0.203377
C23   C     C_1   0.914562 0.105173 0.054720 0.203158
C24   C     C_R   0.209695 0.234461 0.294427 -0.234335
C25   C     C_1   0.914562 0.105173 0.945157 0.203211
C26   C     C_1   0.585647 0.394933 0.554839 0.203608
C27   C     C_1   0.585651 0.394937 0.445284 0.203502
C28   C     C_1   0.414354 0.605011 0.554716 0.203237
C29   C     C_1   0.414357 0.605014 0.445161 0.203287
C30   C     C_R   0.322352 0.766270 0.237213 -0.227732
C31   C     C_R   0.322360 0.766241 0.762752 -0.227842
C32   C     C_R   0.709671 0.734590 0.205579 -0.234896
C33   C     C_R   0.709606 0.734548 0.794401 -0.234369
C34   C     C_R   0.802448 0.194916 0.749671 -0.050899
C35   C     C_R   0.802451 0.194911 0.250294 -0.050772
C36   C     C_R   0.195837 0.196608 0.751355 -0.050013
C37   C     C_R   0.859265 0.139437 0.749687 0.797635
C38   C     C_R   0.195873 0.196566 0.248649 -0.049932
C39   C     C_R   0.302448 0.694916 0.249671 -0.050895
C40   C     C_R   0.302451 0.694911 0.750294 -0.050765
C41   C     C_R   0.695839 0.696606 0.251356 -0.050037
C42   C     C_R   0.695876 0.696564 0.748647 -0.049972
C43   C     C_R   0.729271 0.178433 0.762413 -0.005705
C44   C     C_R   0.729264 0.178458 0.237588 -0.006132
C45   C     C_R   0.236308 0.212461 0.796337 -0.003909
C46   C     C_R   0.236393 0.212480 0.203685 -0.005502
C47   C     C_R   0.229269 0.678431 0.262405 -0.005692
C48   C     C_R   0.139719 0.140421 0.249297 0.792180
C49   C     C_R   0.229262 0.678456 0.737595 -0.006121
C50   C     C_R   0.736376 0.712397 0.296321 -0.003938
C51   C     C_R   0.736490 0.712389 0.703709 -0.005548
C52   C     C_R   0.177638 0.733742 0.262856 -0.228688
C53   C     C_R   0.177629 0.733769 0.737183 -0.227890
C54   C     C_R   0.790360 0.765411 0.294473 -0.235640
C55   C     C_R   0.790434 0.765437 0.705559 -0.232969
C56   C     C_R   0.677641 0.233745 0.762863 -0.228683
C57   C     C_R   0.677631 0.233771 0.237176 -0.227894
C58   C     C_R   0.290296 0.265473 0.794492 -0.235593
C59   C     C_R   0.139707 0.140447 0.750702 0.791740
C60   C     C_R   0.290343 0.265525 0.205533 -0.232906
C61   C     C_R   0.197541 0.805094 0.250390 -0.051514
C62   C     C_R   0.197537 0.805097 0.749648 -0.050434
C63   C     C_R   0.804190 0.803393 0.248693 -0.049559
C64   C     C_R   0.804159 0.803424 0.751314 -0.050987
C65   C     C_R   0.697541 0.305094 0.750390 -0.051518
C66   C     C_R   0.697537 0.305097 0.249649 -0.050437
C67   C     C_R   0.304191 0.303392 0.748695 -0.049533
C68   C     C_R   0.304161 0.303422 0.251311 -0.050960
C69   C     C_R   0.043103 0.948919 0.027020 -0.057989
C70   C     C_R   0.359269 0.639427 0.750296 0.796255
C71   C     C_R   0.043105 0.948921 0.973040 -0.057946
C72   C     C_R   0.956897 0.051023 0.026960 -0.057843
C73   C     C_R   0.956899 0.051024 0.972980 -0.057777
C74   C     C_R   0.543199 0.448999 0.527020 -0.058035
C75   C     C_R   0.543202 0.449001 0.473040 -0.057993
C76   C     C_R   0.456799 0.550942 0.526959 -0.057901
C77   C     C_R   0.456801 0.550944 0.472981 -0.057829
C78   C     C_R   0.000001 0.999972 0.946165 -0.099544
C79   C     C_R   0.999998 0.999969 0.053835 -0.099731
C80   C     C_R   0.500001 0.499972 0.446166 -0.099577
C81   C     C_R   0.359265 0.639438 0.249687 0.797616
C82   C     C_R   0.499998 0.499969 0.553834 -0.099769
C83   C     C_R   0.140723 0.860572 0.250347 0.798540
C84   C     C_R   0.140719 0.860582 0.749671 0.794803
C85   C     C_R   0.860303 0.859566 0.249336 0.791837
C86   C     C_R   0.860294 0.859587 0.750670 0.793133
C87   C     C_R   0.640723 0.360572 0.750347 0.798521
C88   C     C_R   0.640719 0.360582 0.249671 0.794781
C89   C     C_R   0.360303 0.359567 0.749337 0.791816
C90   C     C_R   0.360294 0.359587 0.250669 0.793139
C91   C     C_R   0.999999 0.999972 0.110008 0.807830
C92   C     C_R   0.639720 0.640421 0.749296 0.792176
C93   C     C_R   0.000001 0.999974 0.889992 0.807563
C94   C     C_R   0.499999 0.499972 0.610008 0.807785
C95   C     C_R   0.500001 0.499974 0.389992 0.807525
C96   C     C_R   0.998369 0.999838 0.389991 0.806277
C97   C     C_R   0.998685 0.000041 0.610049 0.827790
C98   C     C_R   0.498374 0.499841 0.889990 0.806202
C99   C     C_R   0.498698 0.500043 0.110049 0.827866
C100  C     C_R   0.012221 0.061064 0.473392 0.121399
C101  C     C_R   0.012266 0.061417 0.526390 0.100990
C102  C     C_R   0.512649 0.560951 0.973389 0.121535
C103  C     C_R   0.639708 0.640446 0.250703 0.791727
C104  C     C_R   0.512701 0.561303 0.026392 0.101040
C105  C     C_R   0.990172 0.999841 0.445857 -0.141049
C106  C     C_R   0.990269 0.000514 0.554295 -0.124551
C107  C     C_R   0.490226 0.499865 0.945856 -0.140897
C108  C     C_R   0.490336 0.500534 0.054293 -0.124350
C109  C     C_R   0.956025 0.942033 0.473257 0.024650
C110  C     C_R   0.956109 0.942671 0.527690 0.083991
C111  C     C_R   0.455760 0.442248 0.973256 0.024738
C112  C     C_R   0.455854 0.442886 0.027690 0.083991
C113  C     C_3   0.081530 0.104176 0.529041 -0.466494
C114  C     C_R   0.822349 0.266268 0.737205 -0.227733
C115  C     C_3   0.081493 0.103811 0.470417 -0.461394
C116  C     C_3   0.582258 0.603585 0.029038 -0.466813
C117  C     C_3   0.582214 0.603221 0.970413 -0.461634
C118  C     C_R   0.270723 0.821581 0.237666 -0.005852
C119  C     C_R   0.270728 0.821553 0.762339 -0.006049
C120  C     C_R   0.763658 0.787594 0.203728 -0.003985
C121  C     C_R   0.763552 0.787589 0.796254 -0.004425
C122  C     C_R   0.770720 0.321578 0.737657 -0.005852
C123  C     C_R   0.770726 0.321551 0.262348 -0.006050
C124  C     C_R   0.263725 0.287531 0.703712 -0.003942
H1    H     H_    0.072871 0.159152 0.545720 0.217552
H2    H     H_    0.878754 0.279137 0.271910 0.167016
H3    H     H_    0.179296 0.221751 0.670798 0.162375
H4    H     H_    0.179219 0.221642 0.329179 0.162393
H5    H     H_    0.378743 0.779187 0.228048 0.166892
H6    H     H_    0.378758 0.779141 0.771895 0.167013
H7    H     H_    0.679184 0.721861 0.170829 0.162425
H8    H     H_    0.679059 0.721799 0.829135 0.162465
H9    H     H_    0.121247 0.720827 0.272021 0.166655
H10   H     H_    0.121230 0.720870 0.728041 0.167075
H11   H     H_    0.820844 0.778151 0.329225 0.161893
H12   H     H_    0.072818 0.158580 0.453338 0.216227
H13   H     H_    0.820979 0.778190 0.670824 0.166443
H14   H     H_    0.621251 0.220831 0.772035 0.166669
H15   H     H_    0.621234 0.220874 0.228027 0.167088
H16   H     H_    0.320730 0.278263 0.829256 0.161866
H17   H     H_    0.320817 0.278350 0.170780 0.166390
H18   H     H_    0.961696 0.850698 0.429334 0.227702
H19   H     H_    0.885079 0.902297 0.419878 0.193692
H20   H     H_    0.867759 0.881162 0.545183 0.195302
H21   H     H_    0.948232 0.835586 0.544962 0.210760
H22   H     H_    0.460883 0.350923 0.929297 0.227663
H23   H     H_    0.127441 0.072792 0.546206 0.195008
H24   H     H_    0.384586 0.402973 0.919866 0.193394
H25   H     H_    0.367110 0.381980 0.045219 0.195264
H26   H     H_    0.447267 0.335852 0.044949 0.210826
H27   H     H_    0.127396 0.072228 0.453463 0.195124
H28   H     H_    0.573973 0.658613 0.045723 0.217519
H29   H     H_    0.573910 0.658044 0.953332 0.216181
H30   H     H_    0.627945 0.571878 0.046201 0.195009
H31   H     H_    0.627889 0.571316 0.953457 0.195127
H32   H     H_    0.878739 0.279183 0.728033 0.166896
N1    N     N_3   0.921663 0.882158 0.447375 -0.462002
N2    N     N_1   0.814915 0.453202 0.281882 -0.177575
N3    N     N_1   0.289348 0.350305 0.615507 -0.175494
N4    N     N_1   0.289106 0.350227 0.384450 -0.175558
N5    N     N_1   0.685098 0.046733 0.781949 -0.177252
N6    N     N_1   0.685083 0.046805 0.218052 -0.177643
N7    N     N_1   0.210692 0.149655 0.884531 -0.174728
N8    N     N_1   0.210933 0.149735 0.115519 -0.175265
N9    N     N_1   0.185094 0.546727 0.281923 -0.177255
N10   N     N_1   0.185079 0.546799 0.718076 -0.177650
N11   N     N_1   0.710908 0.649463 0.384490 -0.174708
N12   N     N_3   0.922808 0.884136 0.555765 -0.419305
N13   N     N_1   0.711244 0.649461 0.615577 -0.175216
N14   N     N_1   0.119161 0.851662 0.077020 -0.187344
N15   N     N_1   0.119163 0.851665 0.923154 -0.187551
N16   N     N_1   0.880856 0.148292 0.076846 -0.188143
N17   N     N_1   0.880854 0.148292 0.922981 -0.188352
N18   N     N_1   0.619445 0.351880 0.577012 -0.187280
N19   N     N_1   0.619451 0.351886 0.423161 -0.187482
N20   N     N_1   0.380558 0.648065 0.576838 -0.188086
N21   N     N_1   0.380563 0.648069 0.422989 -0.188301
N22   N     N_3   0.421038 0.382593 0.947358 -0.462027
N23   N     N_3   0.422191 0.384569 0.055777 -0.419618
N24   N     N_1   0.314905 0.953286 0.218156 -0.177486
N25   N     N_1   0.314919 0.953210 0.781852 -0.177581
N26   N     N_1   0.789134 0.850495 0.115547 -0.175437
N27   N     N_1   0.788807 0.850491 0.884395 -0.175476
N28   N     N_1   0.814900 0.453279 0.718130 -0.177484
O1    O     O_3   0.000000 0.000010 0.249960 -0.492831
O2    O     O_R   0.414520 0.646190 0.219700 -0.643225
O3    O     O_R   0.585480 0.646190 0.780300 -0.645872
O4    O     O_R   0.585480 0.646190 0.219700 -0.646395
O5    O     O_R   0.085460 0.853840 0.280340 -0.643740
O6    O     O_R   0.085460 0.853840 0.719660 -0.644158
O7    O     O_R   0.914540 0.853840 0.280340 -0.649436
O8    O     O_R   0.914540 0.853840 0.719660 -0.641829
O9    O     O_R   0.585460 0.353840 0.780340 -0.643709
O10   O     O_R   0.585460 0.353840 0.219660 -0.644160
O11   O     O_R   0.414540 0.353840 0.780340 -0.649414
O12   O     O_3   0.000000 0.000010 0.750040 -0.496777
O13   O     O_R   0.414540 0.353840 0.219660 -0.641798
O14   O     O_R   0.853820 0.914550 0.219610 -0.629470
O15   O     O_R   0.853820 0.914550 0.780390 -0.630654
O16   O     O_R   0.146180 0.914550 0.219610 -0.628612
O17   O     O_R   0.146180 0.914550 0.780390 -0.629252
O18   O     O_R   0.353820 0.414550 0.719610 -0.629449
O19   O     O_R   0.353820 0.414550 0.280390 -0.630624
O20   O     O_R   0.646180 0.414550 0.719610 -0.628612
O21   O     O_R   0.646180 0.414550 0.280390 -0.629249
O22   O     O_R   0.146170 0.085440 0.219600 -0.630009
O23   O     O_3   0.500000 0.500010 0.749960 -0.492848
O24   O     O_R   0.146170 0.085440 0.780400 -0.630187
O25   O     O_R   0.853830 0.085440 0.219600 -0.629171
O26   O     O_R   0.853830 0.085440 0.780400 -0.629146
O27   O     O_R   0.646170 0.585440 0.719600 -0.630035
O28   O     O_R   0.646170 0.585440 0.280400 -0.630205
O29   O     O_R   0.353830 0.585440 0.719600 -0.629171
O30   O     O_R   0.353830 0.585440 0.280400 -0.629149
O31   O     O_R   0.939270 0.999980 0.134160 -0.628645
O32   O     O_R   0.939270 0.999980 0.865840 -0.628981
O33   O     O_R   0.060730 0.999980 0.134160 -0.628787
O34   O     O_3   0.500000 0.500010 0.250040 -0.496787
O35   O     O_R   0.060730 0.999980 0.865840 -0.628789
O36   O     O_R   0.439270 0.499980 0.634160 -0.628642
O37   O     O_R   0.439270 0.499980 0.365840 -0.628980
O38   O     O_R   0.560730 0.499980 0.634160 -0.628813
O39   O     O_R   0.560730 0.499980 0.365840 -0.628814
O40   O     O_R   0.000000 0.060760 0.365760 -0.634676
O41   O     O_R   0.000000 0.060760 0.634240 -0.644794
O42   O     O_R   0.500000 0.560760 0.865760 -0.634652
O43   O     O_R   0.500000 0.560760 0.134240 -0.644755
O44   O     O_R   0.000000 0.939310 0.365770 -0.656547
O45   O     O_R   0.914520 0.146190 0.280300 -0.643632
O46   O     O_R   0.000000 0.939310 0.634230 -0.620000
O47   O     O_R   0.500000 0.439310 0.865770 -0.656436
O48   O     O_R   0.500000 0.439310 0.134230 -0.620042
O49   O     O_R   0.914520 0.146190 0.719700 -0.643245
O50   O     O_R   0.085480 0.146190 0.280300 -0.645861
O51   O     O_R   0.085480 0.146190 0.719700 -0.646385
O52   O     O_R   0.414520 0.646190 0.780300 -0.643619
Zn1   Zn    Zn3+2 0.000000 0.913260 0.293350 0.958176
Zn2   Zn    Zn3+2 0.413230 0.500000 0.293420 1.006033
Zn3   Zn    Zn3+2 0.586770 0.500000 0.706580 1.006795
Zn4   Zn    Zn3+2 0.586770 0.500000 0.293420 1.004495
Zn5   Zn    Zn3+2 0.000000 0.086780 0.293330 0.969725
Zn6   Zn    Zn3+2 0.000000 0.086780 0.706670 0.969442
Zn7   Zn    Zn3+2 0.500000 0.586780 0.793330 0.969749
Zn8   Zn    Zn3+2 0.500000 0.586780 0.206670 0.969496
Zn9   Zn    Zn3+2 0.000000 0.913260 0.706650 0.978233
Zn10  Zn    Zn3+2 0.500000 0.413260 0.793350 0.958254
Zn11  Zn    Zn3+2 0.500000 0.413260 0.206650 0.978271
Zn12  Zn    Zn3+2 0.913230 0.000000 0.206580 1.005539
Zn13  Zn    Zn3+2 0.913230 0.000000 0.793420 1.006033
Zn14  Zn    Zn3+2 0.086770 0.000000 0.206580 1.006833
Zn15  Zn    Zn3+2 0.086770 0.000000 0.793420 1.004532
Zn16  Zn    Zn3+2 0.413230 0.500000 0.706580 1.005515

loop_
_geom_bond_atom_site_label_1
_geom_bond_atom_site_label_2
_ccdc_geom_bond_type
C84   O17   A    
O7    Zn1   S    
C97   O41   A    
C96   C105  S    
C14   N6    T    
C82   C94   S    
O12   Zn9   S    
C34   C37   S    
C101  C113  S    
C81   O2    A    
O10   Zn11  S    
O18   Zn16  S    
C111  C112  A    
C114  H32   S    
O34   Zn4   S    
C57   C66   A    
C36   C59   S    
O5    Zn1   S    
C67   C124  A    
C99   O48   A    
C18   N10   T    
C92   O3    A    
C85   O14   A    
C90   O13   A    
C2    C123  A    
C16   N8    T    
C99   C108  S    
H22   N22   S    
C100  C105  A    
C50   C54   A    
C40   C70   S    
C6    N26   T    
C33   C42   A    
C96   O44   A    
O52   Zn7   S    
C15   N7    T    
O30   Zn2   S    
C7    C121  S    
C12   C43   S    
C10   C124  S    
O39   Zn4   S    
C70   O52   A    
C66   C88   S    
C112  N23   S    
O40   Zn5   S    
C113  H1    S    
C115  H12   S    
C26   N18   T    
C78   C93   S    
C64   C121  A    
C89   O11   A    
O38   Zn3   S    
H25   N23   S    
O45   Zn5   S    
C31   C40   A    
C57   H15   S    
O29   Zn16  S    
C64   C86   S    
C69   C71   A    
O19   Zn2   S    
C91   O31   A    
O16   Zn14  S    
O1    Zn14  S    
C104  C116  S    
C110  N12   S    
O15   Zn13  S    
O1    Zn1   S    
C23   N16   T    
C3    C68   A    
O14   Zn12  S    
O32   Zn13  S    
C96   O40   A    
C94   O38   A    
O12   Zn13  S    
C117  H31   S    
C111  N22   S    
C68   C90   S    
O9    Zn10  S    
C59   O24   A    
C84   O6    A    
O34   Zn8   S    
C75   C80   A    
C88   O21   A    
O26   Zn13  S    
C79   C91   S    
C22   N15   T    
C81   O30   A    
O23   Zn3   S    
C86   O15   A    
C8    N28   T    
C104  C108  A    
C89   O18   A    
C12   N5    T    
C109  N1    S    
O31   Zn12  S    
O35   Zn15  S    
C63   C85   S    
C93   O32   A    
C33   C121  A    
C52   H9    S    
C4    C118  S    
C3    C24   A    
C100  C115  S    
C19   N11   T    
C74   C82   A    
O20   Zn3   S    
C27   C75   S    
C6    C120  S    
C38   C48   S    
C11   N4    T    
H19   N1    S    
C34   C114  A    
O11   Zn10  S    
C45   C58   A    
C74   C75   A    
C34   C43   A    
C1    O25   A    
C88   O10   A    
C36   C45   A    
C101  C106  A    
C3    C11   S    
C76   C77   A    
C87   O9    A    
C13   C36   A    
O3    Zn7   S    
C21   N14   T    
C61   C83   S    
C16   C46   S    
O43   Zn8   S    
C13   C124  A    
C28   N20   T    
O1    Zn5   S    
C30   C118  A    
C51   C55   A    
O17   Zn15  S    
O41   Zn6   S    
O49   Zn6   S    
O13   Zn11  S    
C2    C35   A    
C95   O39   A    
C98   C107  S    
C108  C112  A    
O12   Zn6   S    
O24   Zn15  S    
C114  C122  A    
C41   C50   A    
C91   O33   A    
O21   Zn4   S    
O51   Zn6   S    
C103  O4    A    
O23   Zn7   S    
C60   H17   S    
C56   H14   S    
C53   C62   A    
C58   C67   A    
C24   C38   A    
C97   O46   A    
C5    N25   T    
C44   C57   A    
C73   C78   A    
C31   C119  A    
C55   C64   A    
C94   O36   A    
C102  C107  A    
C95   O37   A    
C65   C122  A    
C80   C95   S    
C102  C104  A    
C35   C44   A    
O46   Zn9   S    
O25   Zn12  S    
C39   C81   S    
C62   C119  A    
O28   Zn4   S    
C102  C117  S    
O1    Zn12  S    
C97   C106  S    
C2    H2    S    
C33   H8    S    
C5    C119  S    
C31   H6    S    
O36   Zn16  S    
C117  H29   S    
O27   Zn3   S    
C69   C79   A    
O47   Zn10  S    
C85   O7    A    
O33   Zn14  S    
C15   C45   S    
C32   C41   A    
C76   C82   A    
C28   C76   S    
O23   Zn10  S    
C65   C87   S    
C87   O20   A    
C116  H28   S    
C21   C69   S    
C1    C35   S    
C39   C47   A    
C90   O19   A    
O23   Zn16  S    
C77   C80   A    
C58   H16   S    
C56   C65   A    
C62   C84   S    
O6    Zn9   S    
H24   N22   S    
C42   C92   S    
C46   C60   A    
C61   C118  A    
C70   O29   A    
C107  C111  A    
C23   C72   S    
C83   O5    A    
C59   O51   A    
C53   H10   S    
C17   C47   S    
C72   C73   A    
C103  O28   A    
C72   C79   A    
C37   O49   A    
C47   C52   A    
C1    O45   A    
C115  H27   S    
C20   C51   S    
C30   H5    S    
C18   C49   S    
C42   C51   A    
C86   O8    A    
C55   H13   S    
C7    N27   T    
O37   Zn2   S    
C52   C61   A    
O48   Zn11  S    
C93   O35   A    
O34   Zn11  S    
C113  H23   S    
C4    N24   T    
O44   Zn1   S    
H18   N1    S    
C109  C110  A    
C9    C123  S    
O2    Zn8   S    
C63   C120  A    
C19   C50   S    
C8    C122  S    
O42   Zn7   S    
C105  C109  A    
C9    N2    T    
C49   C53   A    
C54   H11   S    
O12   Zn15  S    
C100  C101  A    
C26   C74   S    
C116  H30   S    
C116  C117  S    
C20   N13   T    
C14   C44   S    
C25   C73   S    
C71   C78   A    
C25   N17   T    
C27   N19   T    
O22   Zn14  S    
C99   O43   A    
C37   O26   A    
C38   C46   A    
O4    Zn8   S    
O8    Zn9   S    
O50   Zn5   S    
C98   O47   A    
C13   H3    S    
C41   C103  S    
C43   C56   A    
C29   C77   S    
C60   C68   A    
C106  C110  A    
C54   C63   A    
C48   O22   A    
C22   C71   S    
C24   H4    S    
C67   C89   S    
O34   Zn2   S    
C66   C123  A    
C92   O27   A    
C17   N9    T    
H20   N12   S    
C113  C115  S    
C83   O16   A    
C32   C120  A    
C10   N3    T    
C32   H7    S    
C48   O50   A    
C40   C49   A    
C29   N21   T    
C30   C39   A    
H26   N23   S    
C98   O42   A    
H21   N12   S    
