data_mof_unit_66992.cif
_audit_creation_date              2013-03-05T15:58:13-0500
_audit_creation_method            fapswitch 2.2
_symmetry_space_group_name_H-M    P1
_symmetry_Int_Tables_number       1
_space_group_crystal_system       triclinic
_cell_length_a                    8.178026
_cell_length_b                    12.99447
_cell_length_c                    14.246776
_cell_angle_alpha                 93.302178
_cell_angle_beta                  90.530325
_cell_angle_gamma                 98.645915
_cell_volume                      1494.05619647

loop_
_atom_site_label
_atom_site_type_symbol
_atom_site_description
_atom_site_fract_x
_atom_site_fract_y
_atom_site_fract_z
_atom_type_partial_charge
P1    P     P_3+3 0.054400 0.427280 0.286870 0.454939
O1    O     O_2   0.887370 0.460630 0.272300 -0.368738
O2    O     O_3   0.129410 0.451380 0.388510 -0.414156
O3    O     O_3   0.670210 0.653170 0.329170 -0.391560
O4    O     O_2   0.798246 0.594334 0.167101 -0.383460
O5    O     O_3   0.007566 0.292144 0.263532 -0.574602
O6    O     O_3   0.709898 0.779584 0.173002 -0.507020
H1    H     H_    0.747211 0.848736 0.307279 0.126574
C1    C     C_3   0.681413 0.958262 0.212205 -0.087895
H2    H     H_    0.656014 0.011463 0.272432 0.079626
H3    H     H_    0.809523 0.982011 0.188000 0.135896
P2    P     P_3+3 0.668300 0.742890 0.573060 0.491867
P3    P     P_3+3 0.137623 0.839805 0.373335 0.412532
O7    O     O_2   0.845380 0.761330 0.544970 -0.343241
O8    O     O_3   0.088930 0.704860 0.376040 -0.389646
O9    O     O_2   0.005439 0.886089 0.432386 -0.405919
O10   O     O_3   0.731930 0.760336 0.691963 -0.587856
O11   O     O_3   0.098899 0.872486 0.258421 -0.546849
C2    C     C_3   0.148058 0.796681 0.194695 0.478667
H4    H     H_    0.074616 0.718938 0.203635 0.142209
H5    H     H_    0.281235 0.791989 0.204041 0.035343
C3    C     C_3   0.119112 0.825588 0.094516 -0.903266
H6    H     H_    0.985130 0.824315 0.080588 0.287963
H7    H     H_    0.184934 0.904829 0.083461 0.274024
C4    C     C_3   0.209132 0.755757 0.650148 0.456923
H8    H     H_    0.299250 0.718976 0.607195 0.056857
H9    H     H_    0.093527 0.747910 0.609660 0.169883
C5    C     C_3   0.273380 0.871241 0.669266 -1.122168
H10   H     H_    0.407016 0.882362 0.686577 0.223604
H11   H     H_    0.257871 0.914147 0.605765 0.265602
H12   H     H_    0.205638 0.904725 0.727920 0.297490
Ba1   Ba    Ba6+2 0.855630 0.555280 0.454520 1.573769
C6    C     C_3   0.987565 0.239395 0.347005 0.397593
H13   H     H_    0.856789 0.233857 0.366368 0.042601
H14   H     H_    0.064710 0.277593 0.406979 0.133144
C7    C     C_3   0.032552 0.129743 0.331634 -0.584537
H15   H     H_    0.920502 0.073046 0.315698 0.165745
H16   H     H_    0.084364 0.106315 0.397961 0.216610
C8    C     C_3   0.609405 0.730503 0.756001 0.717388
H17   H     H_    0.485955 0.728423 0.725405 -0.005943
C9    C     C_3   0.635846 0.810598 0.840874 -0.629282
H18   H     H_    0.676885 0.888997 0.815661 0.181572
H19   H     H_    0.738215 0.796070 0.887839 0.257272
P4    P     P_3+3 0.135310 0.572810 0.713130 0.493911
O12   O     O_2   0.302330 0.539400 0.727760 -0.351578
O13   O     O_3   0.060300 0.548700 0.611500 -0.397528
O14   O     O_3   0.519500 0.346920 0.670840 -0.336000
O15   O     O_3   0.180978 0.708067 0.735554 -0.585814
P5    P     P_3+3 0.063256 0.160991 0.628747 0.416882
O16   O     O_3   0.614310 0.373510 0.452640 -0.387474
O17   O     O_3   0.100780 0.295230 0.623970 -0.391881
O18   O     O_2   0.204523 0.116781 0.576093 -0.404604
O19   O     O_3   0.088269 0.132726 0.746266 -0.528340
Ba2   Ba    Ba6+2 0.334200 0.444810 0.545490 1.585511
P6    P     P_3+3 0.659049 0.651495 0.206913 0.472609
C10   C     C_3   0.663985 0.847589 0.244999 0.283351
H20   H     H_    0.534512 0.823845 0.266423 0.010036
O20   O     O_3   0.575400 0.626570 0.547370 -0.349064
C11   C     C_3   0.483410 0.309347 0.260111 0.453695
H21   H     H_    0.362417 0.329170 0.283748 0.085130
H22   H     H_    0.582347 0.376049 0.278134 0.115821
C12   C     C_3   0.477281 0.290706 0.153586 -0.950028
H23   H     H_    0.374030 0.228064 0.131815 0.274039
H24   H     H_    0.457971 0.363040 0.120102 0.210410
H25   H     H_    0.595607 0.267522 0.128769 0.265080
P7    P     P_3+3 0.528503 0.241649 0.423464 0.429011
O21   O     O_2   0.344320 0.238700 0.455090 -0.379749
O22   O     O_3   0.516658 0.218694 0.301007 -0.553083
H26   H     H_    0.165521 0.768922 0.043943 0.214098
C13   C     C_3   0.007049 0.200457 0.803248 0.496024
H27   H     H_    0.087377 0.277235 0.814478 0.120229
H28   H     H_    0.887322 0.212151 0.771629 -0.010130
C14   C     C_3   0.970783 0.154614 0.898079 -1.011993
H29   H     H_    0.086717 0.159086 0.939856 0.268529
H30   H     H_    0.886270 0.199313 0.938109 0.223572
H31   H     H_    0.911000 0.072043 0.888069 0.266677
P8    P     P_3+3 0.534822 0.349214 0.793747 0.530191
C15   C     C_3   0.488688 0.148588 0.786750 0.420797
H32   H     H_    0.615636 0.165028 0.758896 -0.041293
O23   O     O_2   0.425478 0.427639 0.833049 -0.326619
O24   O     O_3   0.437623 0.233676 0.836630 -0.533919
H33   H     H_    0.402607 0.123387 0.726400 0.158073
H34   H     H_    0.592481 0.075741 0.902114 0.222960
C16   C     C_3   0.484569 0.060346 0.852482 -0.560390
H35   H     H_    0.493183 0.989689 0.808255 0.162550
C17   C     C_R   0.986314 0.442206 0.061141 -0.122066
C18   C     C_R   0.185094 0.494448 0.195782 0.243852
C19   C     C_R   0.340859 0.544947 0.226160 -0.536106
C20   C     C_R   0.454955 0.589439 0.162780 0.259001
C21   C     C_R   0.412080 0.589215 0.068001 -0.290081
C22   C     C_R   0.253272 0.544676 0.035078 0.049147
C23   C     C_R   0.139633 0.492984 0.098174 -0.005729
H36   H     H_    0.376108 0.546455 0.299685 0.179705
C24   C     C_R   0.055917 0.499624 0.902411 -0.017299
C25   C     C_R   0.943820 0.445540 0.965242 0.087387
C26   C     C_R   0.011376 0.497907 0.804389 0.246423
C27   C     C_R   0.863838 0.436916 0.773046 -0.368392
C28   C     C_R   0.747647 0.393457 0.836416 0.287580
C29   C     C_R   0.787674 0.396767 0.931914 -0.296708
C30   C     C_R   0.208932 0.550111 0.939628 -0.128808
H37   H     H_    0.504061 0.623200 0.020631 0.199503
H38   H     H_    0.696645 0.361755 0.979984 0.148476
H39   H     H_    0.832753 0.430522 0.698751 0.180995
H40   H     H_    0.898498 0.398974 0.105961 0.161818
H41   H     H_    0.296512 0.591848 0.894270 0.165219
C31   C     C_R   0.768271 0.176795 0.535099 -0.505141
C32   C     C_R   0.438028 0.817417 0.460843 -0.481718
C33   C     C_R   0.409787 0.994221 0.430150 -0.206343
C34   C     C_R   0.347353 0.888126 0.422963 0.204246
C35   C     C_R   0.581525 0.850384 0.515740 0.220022
C36   C     C_R   0.645012 0.960447 0.526364 -0.036639
C37   C     C_R   0.558809 0.032313 0.479532 -0.065750
C38   C     C_R   0.621402 0.141235 0.485689 0.251916
C39   C     C_R   0.857203 0.108433 0.577079 0.179429
C40   C     C_R   0.790847 0.002676 0.579738 -0.066971
H42   H     H_    0.338836 0.046725 0.398813 0.174055
H43   H     H_    0.817713 0.259008 0.537572 0.166703
H44   H     H_    0.390182 0.735100 0.452035 0.163552
N1    N     N_3   0.151871 0.125582 0.256274 -0.137074
H45   H     H_    0.087607 0.118473 0.191826 0.171270
H46   H     H_    0.204693 0.057916 0.260311 0.216280
N2    N     N_R   0.627609 0.626696 0.782208 0.228512
O25   O     O_R   0.665223 0.607554 0.867790 -0.476678
O26   O     O_R   0.632434 0.556072 0.714714 -0.346198
N3    N     N_3   0.485432 0.812463 0.894801 -0.153267
H47   H     H_    0.386321 0.818849 0.850075 0.162023
H48   H     H_    0.457664 0.742686 0.927136 0.159193
N4    N     N_R   0.566529 0.965823 0.135321 0.268639
O27   O     O_R   0.451310 0.024022 0.146816 -0.443356
O28   O     O_R   0.600120 0.932891 0.050984 -0.394681
N5    N     N_3   0.330500 0.045920 0.904489 -0.140707
H49   H     H_    0.343327 0.100374 0.962086 0.196980
H50   H     H_    0.317698 0.972982 0.933004 0.175257
N6    N     N_3   0.868891 0.941251 0.640756 -0.147160
H51   H     H_    0.990560 0.941839 0.619897 0.187947
H52   H     H_    0.868307 0.974107 0.709377 0.122484

loop_
_geom_bond_atom_site_label_1
_geom_bond_atom_site_label_2
_geom_bond_distance
_ccdc_geom_bond_type
P1    C18   1.861161 S    
P7    O22   1.752216 S    
C18   C19   1.395117 A    
C9    H18   1.105048 S    
P7    C38   1.866682 S    
C9    H19   1.111714 S    
C14   H29   1.107046 S    
C2    H4    1.109657 S    
O6    P6    1.750714 S    
C17   H40   1.080554 S    
N4    O27   1.299787 A    
H1    C10   1.111304 S    
P2    C35   1.881574 S    
C39   C40   1.402378 A    
O8    Ba1   2.800576 S    
C8    C9    1.540964 S    
C33   C34   1.393923 A    
C4    C5    1.521654 S    
C30   H41   1.075577 S    
O16   Ba2   2.899790 S    
C8    N2    1.448625 S    
P3    O11   1.752654 S    
C31   C39   1.386781 A    
C5    H10   1.104317 S    
C2    H5    1.107180 S    
O11   C2    1.406770 S    
O2    Ba2   2.794560 S    
C25   C29   1.403056 A    
C6    C7    1.528636 S    
C10   H20   1.108194 S    
O1    Ba1   2.839046 S    
P1    O1    1.509926 D    
O10   C8    1.388370 S    
C7    N1    1.461635 S    
C35   C36   1.445104 A    
P3    C34   1.854351 S    
C36   C37   1.440578 A    
P5    O17   1.730531 S    
P2    O10   1.759470 S    
C12   H24   1.109449 S    
C13   H27   1.111370 S    
Ba1   O20   2.900563 S    
C22   C30   1.412560 A    
C1    H2    1.111503 S    
C3    H26   1.110555 S    
P2    O20   1.606768 S    
P7    O21   1.571777 D    
C11   H21   1.109793 S    
C18   C23   1.434443 A    
P2    Ba1   3.440769 S    
C32   C34   1.392813 A    
O2    Ba1   2.919217 S    
O6    C10   1.405866 S    
O19   C13   1.406511 S    
Ba1   Ba2   4.568087 S    
C37   C38   1.428305 A    
P4    O13   1.563453 S    
C27   C28   1.396485 A    
N1    H46   1.040491 S    
C11   H22   1.109747 S    
C1    N4    1.453701 S    
C31   C38   1.389852 A    
P1    O5    1.751863 S    
C9    N3    1.458861 S    
C2    C3    1.521961 S    
C16   H35   1.094799 S    
C8    H17   1.091911 S    
C15   H32   1.109799 S    
N6    H52   1.044356 S    
Ba2   O21   2.917195 S    
C4    H8    1.107521 S    
P1    Ba1   3.397180 S    
C33   C37   1.409913 A    
P1    O2    1.563572 S    
C21   H37   1.077112 S    
C12   H23   1.109604 S    
P4    C26   1.881116 S    
P4    Ba2   3.397632 S    
C11   O22   1.404805 S    
C1    H3    1.110653 S    
C15   H33   1.108654 S    
H34   C16   1.112616 S    
C24   C30   1.406510 A    
P5    O18   1.547049 D    
C26   C27   1.394665 A    
O13   Ba2   2.919969 S    
C13   C14   1.521566 S    
C6    H13   1.099855 S    
P8    C28   1.835392 S    
C1    C10   1.524415 S    
O3    Ba1   2.810361 S    
C24   C26   1.438019 A    
O16   P7    1.775449 S    
C4    O15   1.402391 S    
Ba1   O16   2.839860 S    
C27   H39   1.081861 S    
O14   Ba2   2.809770 S    
P2    O7    1.494055 D    
O12   Ba2   2.839546 S    
C28   C29   1.393143 A    
P3    O8    1.741582 S    
C31   H43   1.082391 S    
N3    H47   1.042414 S    
C14   H31   1.110851 S    
C3    H7    1.108349 S    
C14   H30   1.109103 S    
N2    O26   1.295498 A    
N5    H49   1.046047 S    
C22   C23   1.421356 A    
P4    O12   1.510309 D    
Ba2   O20   2.839207 S    
P8    O23   1.539216 D    
C19   H36   1.082160 S    
C7    H15   1.099058 S    
C11   C12   1.522167 S    
C32   H44   1.082050 S    
C12   H25   1.110793 S    
Ba1   O13   2.793996 S    
O4    P6    1.544955 D    
C5    H12   1.110704 S    
O7    Ba1   2.916956 S    
N5    H50   1.043850 S    
N4    O28   1.297879 A    
C13   H28   1.108669 S    
N1    H45   1.046173 S    
N6    H51   1.040132 S    
C40   N6    1.422319 S    
C4    H9    1.091373 S    
C16   N5    1.460812 S    
O5    C6    1.405226 S    
C32   C35   1.402005 A    
O17   Ba2   2.801147 S    
C33   H42   1.072738 S    
C7    H16   1.108898 S    
C20   C21   1.391673 A    
O3    P6    1.742028 S    
C17   C23   1.408821 A    
C15   O24   1.398467 S    
C21   C22   1.404684 A    
P5    O19   1.751288 S    
C5    H11   1.105733 S    
C6    H14   1.105202 S    
P5    C39   1.849591 S    
C24   C25   1.424623 A    
C17   C25   1.411327 A    
C15   C16   1.518413 S    
C29   H38   1.083374 S    
C19   C20   1.390607 A    
P6    C20   1.830010 S    
P8    O24   1.736383 S    
P3    O9    1.546634 D    
N3    H48   1.036370 S    
O14   P8    1.752570 S    
C3    H6    1.109221 S    
C36   C40   1.428320 A    
N2    O25   1.301582 A    
P4    O15   1.751126 S    
