data_mof_unit_52406.cif
_audit_creation_date              2012-12-11T16:16:53-0500
_audit_creation_method            fapswitch 2.2
_symmetry_space_group_name_H-M    P1
_symmetry_Int_Tables_number       1
_space_group_crystal_system       triclinic
_cell_length_a                    13.282783
_cell_length_b                    13.282789
_cell_length_c                    28.58736
_cell_angle_alpha                 89.999772
_cell_angle_beta                  89.999928
_cell_angle_gamma                 120.000182
_cell_volume                      4367.99605513

loop_
_atom_site_label
_atom_site_type_symbol
_atom_type_description
_atom_site_fract_x
_atom_site_fract_y
_atom_site_fract_z
_atom_type_partial_charge
C1    C     C_R   0.438660 0.550255 0.316513 0.540178
C2    C     C_R   0.549719 0.439089 0.683723 0.538213
C3    C     C_R   0.561317 0.111346 0.816453 0.539456
C4    C     C_R   0.889370 0.450281 0.683723 0.538212
C5    C     C_1   0.062899 0.525560 0.361978 0.016737
C6    C     C_1   0.464286 0.940816 0.138785 0.010996
C7    C     C_1   0.474439 0.537338 0.361978 0.016737
C8    C     C_1   0.059184 0.523469 0.138785 0.011002
C9    C     C_1   0.462662 0.937101 0.361978 0.016737
C10   C     C_1   0.476531 0.535716 0.138785 0.010997
C11   C     C_1   0.527864 0.064305 0.862251 0.011754
C12   C     C_R   0.110741 0.560817 0.183735 0.537939
C13   C     C_1   0.939669 0.465017 0.638446 0.012231
C14   C     C_1   0.536440 0.472135 0.862251 0.011755
C15   C     C_1   0.525347 0.060332 0.638446 0.012231
C16   C     C_1   0.935693 0.463558 0.862251 0.011749
C17   C     C_1   0.534985 0.474653 0.638446 0.012231
C18   C     C_R   0.053807 0.427733 0.478517 0.259337
C19   C     C_R   0.381631 0.945783 0.021819 0.248997
C20   C     C_R   0.572268 0.626074 0.478516 0.259337
C21   C     C_R   0.054213 0.435843 0.021819 0.248993
C22   C     C_R   0.373926 0.946193 0.478516 0.259337
C23   C     C_R   0.449744 0.888404 0.316513 0.540178
C24   C     C_R   0.564148 0.618368 0.021818 0.248993
C25   C     C_R   0.391385 0.952611 0.972892 0.251769
C26   C     C_R   0.042445 0.425496 0.527468 0.273717
C27   C     C_R   0.561223 0.608614 0.972891 0.251770
C28   C     C_R   0.383052 0.957556 0.527468 0.273716
C29   C     C_R   0.047383 0.438768 0.972892 0.251773
C30   C     C_R   0.574505 0.616949 0.527468 0.273716
C31   C     C_R   0.945309 0.539754 0.521241 0.246650
C32   C     C_R   0.602899 0.069748 0.980152 0.268098
C33   C     C_R   0.460247 0.405555 0.521241 0.246650
C34   C     C_R   0.439184 0.549924 0.183735 0.537939
C35   C     C_R   0.930251 0.533149 0.980153 0.268095
C36   C     C_R   0.594445 0.054691 0.521241 0.246649
C37   C     C_R   0.466849 0.397101 0.980152 0.268097
C38   C     C_R   0.592995 0.057988 0.028958 0.279303
C39   C     C_R   0.950955 0.536997 0.472382 0.255521
C40   C     C_R   0.464993 0.407005 0.028959 0.279302
C41   C     C_R   0.586042 0.049045 0.472382 0.255521
C42   C     C_R   0.942008 0.535001 0.028959 0.279302
C43   C     C_R   0.463003 0.413958 0.472383 0.255521
C44   C     C_R   0.008323 0.484380 0.451126 -0.050963
C45   C     C_R   0.111595 0.561340 0.316513 0.540178
C46   C     C_R   0.482476 0.995595 0.049599 -0.027832
C47   C     C_R   0.515620 0.523943 0.451126 -0.050963
C48   C     C_R   0.004401 0.486875 0.049599 -0.027832
C49   C     C_R   0.476057 0.991676 0.451126 -0.050963
C50   C     C_R   0.513117 0.517524 0.049599 -0.027832
C51   C     C_R   0.501599 0.017126 0.952231 -0.042592
C52   C     C_R   0.987916 0.481311 0.548587 -0.030023
C53   C     C_R   0.515526 0.498400 0.952231 -0.042592
C54   C     C_R   0.493395 0.012085 0.548587 -0.030023
C55   C     C_R   0.982870 0.484469 0.952231 -0.042592
C56   C     C_R   0.450076 0.889260 0.183735 0.537938
C57   C     C_R   0.518691 0.506606 0.548587 -0.030023
C58   C     C_1   0.968354 0.474095 0.598163 0.028307
C59   C     C_1   0.511103 0.037707 0.902780 0.030156
C60   C     C_1   0.525907 0.494260 0.598163 0.028308
C61   C     C_1   0.962290 0.473394 0.902780 0.030154
C62   C     C_1   0.505741 0.031648 0.598163 0.028308
C63   C     C_1   0.526604 0.488896 0.902780 0.030160
C64   C     C_1   0.472923 0.971615 0.098825 0.029090
C65   C     C_1   0.033775 0.502989 0.402095 0.028575
C66   C     C_1   0.498691 0.527078 0.098824 0.029093
C67   C     C_R   0.550029 0.438683 0.816453 0.539457
C68   C     C_1   0.469214 0.966224 0.402095 0.028576
C69   C     C_1   0.028384 0.501306 0.098825 0.029097
C70   C     C_1   0.497010 0.530785 0.402095 0.028575
C71   C     C_3   0.048211 0.280101 0.435437 -0.114340
C72   C     C_3   0.237901 0.969525 0.052078 -0.104233
C73   C     C_3   0.719899 0.768110 0.435435 -0.114340
C74   C     C_3   0.030480 0.268374 0.052079 -0.104231
C75   C     C_3   0.231889 0.951787 0.435436 -0.114341
C76   C     C_3   0.731620 0.762105 0.052075 -0.104231
C77   C     C_3   0.258839 0.787441 0.936675 -0.125376
C78   C     C_R   0.560911 0.110630 0.683723 0.538211
C79   C     C_3   0.015924 0.264786 0.566252 -0.127561
C80   C     C_3   0.528596 0.741157 0.936674 -0.125368
C81   C     C_3   0.248862 0.984077 0.566252 -0.127561
C82   C     C_3   0.212554 0.471394 0.936674 -0.125367
C83   C     C_3   0.735217 0.751139 0.566250 -0.127561
C84   C     C_3   0.988401 0.714806 0.550458 -0.085745
C85   C     C_3   0.753495 0.073221 0.940020 -0.113497
C86   C     C_3   0.285195 0.273595 0.550459 -0.085746
C87   C     C_3   0.926802 0.680284 0.940020 -0.113507
C88   C     C_3   0.726405 0.011601 0.550459 -0.085745
C89   C     C_R   0.888653 0.449970 0.816453 0.539455
C90   C     C_3   0.319727 0.246502 0.940021 -0.113498
C91   C     C_3   0.733044 0.040373 0.067810 -0.120310
C92   C     C_3   0.793826 0.520975 0.434787 -0.125770
C93   C     C_3   0.307329 0.266956 0.067811 -0.120312
C94   C     C_3   0.727149 0.206174 0.434786 -0.125771
C95   C     C_3   0.959634 0.692681 0.067802 -0.120307
C96   C     C_3   0.479025 0.272851 0.434787 -0.125771
Cr1   Cr    Cr6+3 0.505050 0.756260 0.250000 1.034380
Cr2   Cr    Cr6+3 0.251210 0.494950 0.250000 1.034379
Cr3   Cr    Cr6+3 0.243740 0.748790 0.250000 1.034381
Cr4   Cr    Cr6+3 0.756260 0.505050 0.750000 1.036803
Cr5   Cr    Cr6+3 0.494950 0.251210 0.750000 1.036804
Cr6   Cr    Cr6+3 0.748790 0.243740 0.750000 1.036804
H1    H     H_    0.025156 0.296506 0.400057 0.119765
H2    H     H_    0.990736 0.218835 0.019353 0.151572
H3    H     H_    0.961862 0.261511 0.076361 0.144363
H4    H     H_    0.074883 0.227110 0.069717 0.093868
H5    H     H_    0.271350 0.974842 0.400057 0.119764
H6    H     H_    0.254104 0.032337 0.455358 0.112305
H7    H     H_    0.136139 0.903110 0.430823 0.153082
H8    H     H_    0.781157 0.771906 0.019348 0.151568
H9    H     H_    0.738487 0.700349 0.076355 0.144370
H10   H     H_    0.772885 0.847770 0.069715 0.093868
H11   H     H_    0.234942 0.735600 0.969550 0.137141
H12   H     H_    0.967660 0.221766 0.455359 0.112306
H13   H     H_    0.328267 0.780296 0.917789 0.084316
H14   H     H_    0.180977 0.749073 0.913811 0.126922
H15   H     H_    0.992837 0.207962 0.534992 0.122456
H16   H     H_    0.936218 0.256247 0.582826 0.151518
H17   H     H_    0.056367 0.233323 0.592002 0.113117
H18   H     H_    0.500655 0.765057 0.969549 0.137146
H19   H     H_    0.452020 0.671727 0.917789 0.084310
H20   H     H_    0.568087 0.819017 0.913809 0.126929
H21   H     H_    0.215127 0.007166 0.534992 0.122457
H22   H     H_    0.320029 0.063783 0.582825 0.151520
H23   H     H_    0.096887 0.233027 0.430824 0.153081
H24   H     H_    0.176956 0.943635 0.592001 0.113116
H25   H     H_    0.264395 0.499335 0.969550 0.137147
H26   H     H_    0.219699 0.547971 0.917790 0.084310
H27   H     H_    0.250920 0.431903 0.913809 0.126928
H28   H     H_    0.792040 0.784875 0.534991 0.122457
H29   H     H_    0.743755 0.679972 0.582825 0.151518
H30   H     H_    0.766680 0.823045 0.592000 0.113116
H31   H     H_    0.024178 0.762067 0.516958 0.182127
H32   H     H_    0.059107 0.716600 0.572017 0.166635
H33   H     H_    0.953785 0.762276 0.570439 0.090067
H34   H     H_    0.228106 0.009266 0.019351 0.151573
H35   H     H_    0.720476 0.049213 0.903733 0.128285
H36   H     H_    0.731741 0.993207 0.960290 0.107237
H37   H     H_    0.849656 0.126056 0.938030 0.162221
H38   H     H_    0.237934 0.262110 0.516959 0.182125
H39   H     H_    0.283400 0.342506 0.572018 0.166634
H40   H     H_    0.237725 0.191509 0.570441 0.090067
H41   H     H_    0.950766 0.671256 0.903723 0.128318
H42   H     H_    0.006855 0.738530 0.960282 0.107236
H43   H     H_    0.873983 0.723641 0.938048 0.162204
H44   H     H_    0.737889 0.975824 0.516958 0.182127
H45   H     H_    0.299658 0.038143 0.076358 0.144370
H46   H     H_    0.657494 0.940895 0.572017 0.166633
H47   H     H_    0.808491 0.046217 0.570440 0.090067
H48   H     H_    0.328737 0.279521 0.903734 0.128284
H49   H     H_    0.261466 0.268255 0.960291 0.107235
H50   H     H_    0.276402 0.150341 0.938032 0.162219
H51   H     H_    0.784938 0.035694 0.038396 0.113919
H52   H     H_    0.662910 0.951396 0.077499 0.146527
H53   H     H_    0.791382 0.075748 0.098546 0.121503
H54   H     H_    0.739190 0.490658 0.466916 0.132317
H55   H     H_    0.783160 0.445611 0.413882 0.085112
H56   H     H_    0.152233 0.925126 0.069717 0.093865
H57   H     H_    0.761824 0.568171 0.412994 0.125764
H58   H     H_    0.288486 0.337089 0.077500 0.146526
H59   H     H_    0.284366 0.208618 0.098547 0.121504
H60   H     H_    0.250757 0.215062 0.038398 0.113919
H61   H     H_    0.751469 0.260811 0.466915 0.132317
H62   H     H_    0.662452 0.216839 0.413882 0.085112
H63   H     H_    0.806347 0.238176 0.412993 0.125764
H64   H     H_    0.048614 0.711529 0.077487 0.146535
H65   H     H_    0.924272 0.715662 0.098538 0.121491
H66   H     H_    0.964302 0.749235 0.038382 0.113939
H67   H     H_    0.703494 0.728650 0.400056 0.119764
H68   H     H_    0.509343 0.248532 0.466916 0.132317
H69   H     H_    0.554388 0.337548 0.413882 0.085112
H70   H     H_    0.431829 0.193652 0.412995 0.125764
H71   H     H_    0.778235 0.745896 0.455357 0.112305
H72   H     H_    0.766973 0.863861 0.430821 0.153082
O1    O     O_R   0.530190 0.870330 0.301660 -0.498486
O2    O     O_R   0.870330 0.530190 0.698340 -0.505667
O3    O     O_R   0.469810 0.340140 0.801660 -0.511907
O4    O     O_R   0.659860 0.129670 0.698340 -0.505667
O5    O     O_R   0.494300 0.651190 0.297490 -0.495316
O6    O     O_R   0.156890 0.505700 0.202510 -0.492453
O7    O     O_R   0.348810 0.843110 0.297490 -0.495317
O8    O     O_R   0.494300 0.651190 0.202510 -0.492450
O9    O     O_R   0.156890 0.505700 0.297490 -0.495317
O10   O     O_R   0.348810 0.843110 0.202510 -0.492450
O11   O     O_R   0.651190 0.494300 0.797490 -0.485481
O12   O     O_R   0.340140 0.469810 0.198340 -0.509586
O13   O     O_R   0.505700 0.156890 0.702510 -0.494813
O14   O     O_R   0.843110 0.348810 0.797490 -0.485480
O15   O     O_R   0.651190 0.494300 0.702510 -0.494813
O16   O     O_R   0.505700 0.156890 0.797490 -0.485482
O17   O     O_R   0.843110 0.348810 0.702510 -0.494812
O18   O     O_3   0.333333 0.666667 0.250000 -0.243619
O19   O     O_3   0.666667 0.333333 0.750000 -0.243367
O20   O     O_3   0.120897 0.385780 0.458799 -0.519441
O21   O     O_3   0.272869 0.887437 0.042303 -0.568032
O22   O     O_3   0.614221 0.735117 0.458798 -0.519440
O23   O     O_R   0.129670 0.659860 0.301660 -0.498486
O24   O     O_3   0.112563 0.385431 0.042303 -0.568029
O25   O     O_3   0.264882 0.879102 0.458799 -0.519442
O26   O     O_3   0.614562 0.727131 0.042302 -0.568028
O27   O     O_3   0.292274 0.904482 0.945522 -0.548989
O28   O     O_3   0.096968 0.380873 0.554736 -0.544312
O29   O     O_3   0.612204 0.707724 0.945520 -0.548983
O30   O     O_3   0.283904 0.903033 0.554736 -0.544313
O31   O     O_3   0.095512 0.387787 0.945521 -0.548985
O32   O     O_3   0.619129 0.716096 0.554735 -0.544312
O33   O     O_3   0.897666 0.600121 0.542275 -0.570921
O34   O     O_R   0.530190 0.870330 0.198340 -0.509586
O35   O     O_3   0.711457 0.141553 0.960803 -0.512759
O36   O     O_3   0.399879 0.297545 0.542276 -0.570920
O37   O     O_3   0.858458 0.569917 0.960806 -0.512763
O38   O     O_3   0.702456 0.102335 0.542275 -0.570920
O39   O     O_3   0.430097 0.288542 0.960805 -0.512759
O40   O     O_3   0.691035 0.116236 0.056693 -0.520073
O41   O     O_3   0.911547 0.597216 0.445743 -0.541564
O42   O     O_3   0.425202 0.308966 0.056695 -0.520073
O43   O     O_3   0.685670 0.088453 0.445742 -0.541564
O44   O     O_3   0.883768 0.574800 0.056696 -0.520070
O45   O     O_R   0.340140 0.469810 0.301660 -0.498486
O46   O     O_3   0.402784 0.314330 0.445743 -0.541564
O47   O     O_R   0.129670 0.659860 0.198340 -0.509582
O48   O     O_R   0.870330 0.530190 0.801660 -0.511909
O49   O     O_R   0.469810 0.340140 0.698340 -0.505668
O50   O     O_R   0.659860 0.129670 0.801660 -0.511905

loop_
_geom_bond_atom_site_label_1
_geom_bond_atom_site_label_2
_ccdc_geom_bond_type
Cr3   O47   S    
C84   H33   S    
C75   H5    S    
C3    O50   A    
Cr1   O1    S    
C49   C68   S    
C94   H62   S    
C81   H24   S    
C18   O20   S    
C53   C63   S    
C88   H47   S    
C43   O46   S    
C18   C26   A    
C24   C27   A    
C21   O24   S    
C90   H48   S    
C95   H66   S    
C72   O21   S    
C80   H18   S    
C44   C65   S    
C19   C46   A    
Cr6   O50   S    
Cr1   O8    S    
C32   C51   A    
C20   C30   A    
Cr4   O19   S    
C19   O21   S    
C84   H32   S    
C8    C69   T    
C81   H21   S    
C92   H57   S    
C27   O29   S    
C26   O28   S    
C38   O40   S    
C23   O7    A    
C91   O40   S    
C26   C52   A    
Cr3   O18   S    
C77   H11   S    
Cr1   O5    S    
C80   O29   S    
C23   O1    A    
C45   O23   A    
C30   O32   S    
C79   H16   S    
C79   H15   S    
Cr2   O9    S    
C95   O44   S    
C72   H56   S    
C92   O41   S    
C6    C64   T    
C4    C13   S    
C34   O12   A    
C35   C42   A    
C35   O37   S    
C71   H1    S    
C3    C11   S    
C1    C7    S    
Cr1   O18   S    
C74   O24   S    
C96   H69   S    
C79   H17   S    
Cr4   O2    S    
C14   C67   S    
C2    O15   A    
Cr4   O48   S    
C87   H42   S    
C77   H14   S    
C43   C47   A    
C48   C69   S    
C56   O10   A    
C86   H38   S    
C21   C48   A    
C37   C53   A    
Cr5   O49   S    
C96   H70   S    
C75   H6    S    
Cr1   O34   S    
C22   C28   A    
Cr2   O45   S    
C93   O42   S    
C76   H10   S    
C4    O17   A    
Cr3   O23   S    
C36   C41   A    
C7    C70   T    
C11   C59   T    
C94   H63   S    
C41   C49   A    
Cr5   O19   S    
C81   O30   S    
C77   O27   S    
C80   H19   S    
C10   C66   T    
C24   C50   A    
C12   O47   A    
C84   H31   S    
C75   H7    S    
C38   C46   A    
C81   H22   S    
C35   C55   A    
C33   C43   A    
C86   H40   S    
C22   O25   S    
Cr5   O3    S    
C83   H28   S    
C90   H50   S    
Cr5   O16   S    
C67   O3    A    
C3    O16   A    
C89   O48   A    
C28   C54   A    
C9    C23   S    
C71   O20   S    
C80   H20   S    
C13   C58   T    
C54   C62   S    
C96   O46   S    
C21   C29   A    
C94   O43   S    
Cr6   O14   S    
C71   H12   S    
C85   O35   S    
C92   H55   S    
C28   O30   S    
C93   H58   S    
C25   C51   A    
C47   C70   S    
C91   H53   S    
C18   C44   A    
C74   H4    S    
C33   O36   S    
C56   O34   A    
C93   H59   S    
C8    C12   S    
C79   O28   S    
C76   O26   S    
C40   O42   S    
Cr6   O17   S    
C88   H46   S    
C10   C34   S    
C42   C48   A    
C82   H27   S    
C15   C78   S    
C50   C66   S    
C82   H26   S    
Cr3   O10   S    
C52   C58   S    
C91   H52   S    
C22   C49   A    
C5    C65   T    
C12   O6    A    
C36   O38   S    
C32   C38   A    
Cr4   O15   S    
C88   O38   S    
Cr6   O4    S    
C89   O14   A    
C51   C59   S    
C16   C61   T    
Cr2   O6    S    
C37   C40   A    
C92   H54   S    
Cr6   O19   S    
C85   H35   S    
C45   O9    A    
C74   H2    S    
C95   H64   S    
C85   H37   S    
C33   C57   A    
C87   H43   S    
C78   O4    A    
C87   O37   S    
C71   H23   S    
C86   O36   S    
C6    C56   S    
C90   H49   S    
C42   O44   S    
C72   H34   S    
C95   H65   S    
C29   O31   S    
C41   O43   S    
C27   C53   A    
C91   H51   S    
C39   C44   A    
C75   O25   S    
C83   O32   S    
C72   H45   S    
C29   C55   A    
C1    O45   A    
C25   O27   S    
C31   C52   A    
C39   O41   S    
C31   O33   S    
C83   H29   S    
C57   C60   S    
C9    C68   T    
C83   H30   S    
Cr2   O12   S    
Cr5   O13   S    
C74   H3    S    
C32   O35   S    
C1    O5    A    
C84   O33   S    
C5    C45   S    
C93   H60   S    
C76   H9    S    
C40   C50   A    
C14   C63   T    
C55   C61   S    
C2    O49   A    
C15   C62   T    
C31   C39   A    
C34   O8    A    
C30   C57   A    
C82   O31   S    
Cr2   O18   S    
C73   H71   S    
C19   C25   A    
C82   H25   S    
Cr3   O7    S    
C20   C47   A    
C36   C54   A    
C17   C60   T    
C37   O39   S    
C16   C89   S    
C24   O26   S    
C76   H8    S    
C4    O2    A    
C73   O22   S    
C46   C64   S    
C88   H44   S    
C73   H72   S    
Cr4   O11   S    
C96   H68   S    
C78   O13   A    
C85   H36   S    
C87   H41   S    
C77   H13   S    
C73   H67   S    
C94   H61   S    
C20   O22   S    
C90   O39   S    
C67   O11   A    
C86   H39   S    
C2    C17   S    
