data_mof_unit_7750.cif
_audit_creation_date              2012-12-11T14:58:44-0500
_audit_creation_method            fapswitch 2.2
_symmetry_space_group_name_H-M    P1
_symmetry_Int_Tables_number       1
_space_group_crystal_system       triclinic
_cell_length_a                    10.919803
_cell_length_b                    10.940193
_cell_length_c                    18.804249
_cell_angle_alpha                 90.378601
_cell_angle_beta                  90.527839
_cell_angle_gamma                 59.870695
_cell_volume                      1942.85099759

loop_
_atom_site_label
_atom_site_type_symbol
_atom_type_description
_atom_site_fract_x
_atom_site_fract_y
_atom_site_fract_z
_atom_type_partial_charge
C1    C     C_R   0.359139 0.772886 0.397703 0.543806
C2    C     C_R   0.247152 0.442086 0.198831 -0.154774
C3    C     C_R   0.245471 0.450471 0.272887 -0.033032
C4    C     C_R   0.386018 0.355101 0.387312 0.534251
C5    C     C_R   0.878495 0.802758 0.366536 -0.118110
C6    C     C_R   0.926222 0.666196 0.391618 -0.103547
C7    C     C_R   0.044994 0.551070 0.361340 -0.048234
C8    C     C_R   0.119185 0.571825 0.306387 0.057848
C9    C     C_R   0.362740 0.343737 0.311361 -0.003189
C10   C     C_R   0.955460 0.301975 0.308017 -0.157787
C11   C     C_R   0.984487 0.293209 0.235914 -0.126029
C12   C     C_R   0.612732 0.115827 0.166852 0.060931
C13   C     C_R   0.875037 0.331897 0.185902 0.038755
C14   C     C_R   0.736036 0.382791 0.207322 -0.151905
C15   C     C_R   0.706700 0.393659 0.279382 -0.118143
C16   C     C_R   0.777947 0.378153 0.403158 0.534573
C17   C     C_R   0.816426 0.353477 0.329460 0.039000
C18   C     C_R   0.471509 0.786440 0.287041 -0.142076
C19   C     C_R   0.459367 0.813239 0.214335 -0.154812
C20   C     C_R   0.324728 0.887959 0.184110 0.034217
C21   C     C_R   0.203588 0.946264 0.227419 -0.141470
C22   C     C_R   0.215617 0.921021 0.299388 -0.150416
C23   C     C_R   0.360039 0.330513 0.162604 -0.003702
C24   C     C_R   0.348643 0.834818 0.328726 0.030022
C25   C     C_R   0.465004 0.276009 0.716934 -0.122283
C26   C     C_R   0.447524 0.273753 0.788932 -0.134949
C27   C     C_R   0.311348 0.333960 0.816539 0.030222
C28   C     C_R   0.344517 0.768765 0.604846 0.546822
C29   C     C_R   0.191932 0.408364 0.772387 -0.132836
C30   C     C_R   0.209806 0.413622 0.699589 -0.140696
C31   C     C_R   0.346565 0.342263 0.671654 0.037014
C32   C     C_R   0.739475 0.475518 0.732112 -0.127152
C33   C     C_R   0.751080 0.461804 0.804996 -0.136481
C34   C     C_R   0.479253 0.237889 0.274233 -0.150950
C35   C     C_R   0.814899 0.327573 0.835609 0.026129
C36   C     C_R   0.851853 0.208300 0.792634 -0.139924
C37   C     C_R   0.836061 0.222862 0.718936 -0.152278
C38   C     C_R   0.785109 0.356257 0.688318 0.031067
C39   C     C_R   0.205159 0.822239 0.714156 -0.130064
C40   C     C_R   0.372975 0.352428 0.597592 0.543824
C41   C     C_R   0.198083 0.832939 0.787294 -0.137627
C42   C     C_R   0.303509 0.842505 0.825291 0.032296
C43   C     C_R   0.418412 0.837190 0.789285 -0.134246
C44   C     C_R   0.425302 0.826759 0.715953 -0.142108
C45   C     C_R   0.482553 0.232032 0.200755 -0.024480
C46   C     C_R   0.320010 0.816868 0.678063 0.033641
C47   C     C_R   0.911158 0.315949 0.111911 0.532485
C48   C     C_R   0.329804 0.294893 0.092016 0.534516
C49   C     C_R   0.301413 0.910478 0.108305 0.547732
C50   C     C_R   0.878883 0.310286 0.905760 0.542596
C51   C     C_R   0.296250 0.291106 0.886580 0.547233
C52   C     C_R   0.757430 0.380004 0.612309 0.544716
C53   C     C_R   0.276185 0.893245 0.898004 0.549901
C54   C     C_R   0.848857 0.893565 0.098999 -0.113750
C55   C     C_R   0.793584 0.032305 0.075365 -0.088425
C56   C     C_R   0.069423 0.709996 0.281364 -0.086716
C57   C     C_R   0.677330 0.143339 0.109553 -0.058472
C58   C     C_R   0.950139 0.824623 0.311499 -0.112415
C59   C     C_R   0.669694 0.975448 0.190242 -0.095174
C60   C     C_R   0.786751 0.865142 0.156303 -0.123626
Cr1   Cr    Cr6+3 0.601770 0.606860 0.505860 0.996030
Cr2   Cr    Cr6+3 0.291380 0.601660 0.495070 1.023790
Cr3   Cr    Cr6+3 0.606880 0.291510 0.499120 1.006833
Cr4   Cr    Cr6+3 0.062440 0.063090 0.008210 0.983302
Cr5   Cr    Cr6+3 0.062880 0.375170 0.998920 1.006426
Cr6   Cr    Cr6+3 0.374700 0.061720 0.992470 1.023082
H1    H     H_    0.573301 0.160726 0.302481 0.141189
H2    H     H_    0.553223 0.769725 0.181628 0.121955
H3    H     H_    0.097998 0.007532 0.205154 0.150738
H4    H     H_    0.828990 0.757471 0.174342 0.123851
H5    H     H_    0.120868 0.961025 0.331215 0.128600
H6    H     H_    0.572059 0.226264 0.696822 0.143215
H7    H     H_    0.540522 0.217742 0.822586 0.126570
H8    H     H_    0.085680 0.454719 0.793361 0.136974
H9    H     H_    0.118090 0.469522 0.665199 0.119567
H10   H     H_    0.694954 0.580413 0.710054 0.134044
H11   H     H_    0.720604 0.555353 0.837046 0.123955
H12   H     H_    0.786217 0.891656 0.389830 0.111636
H13   H     H_    0.901880 0.103295 0.815316 0.130003
H14   H     H_    0.867023 0.130394 0.686007 0.116504
H15   H     H_    0.122716 0.813311 0.686286 0.133054
H16   H     H_    0.107261 0.839244 0.813633 0.124222
H17   H     H_    0.500351 0.846517 0.817451 0.128447
H18   H     H_    0.514768 0.822484 0.689173 0.120840
H19   H     H_    0.939146 0.807984 0.072578 0.109216
H20   H     H_    0.839968 0.053557 0.029953 0.141828
H21   H     H_    0.634835 0.249940 0.089896 0.090419
H22   H     H_    0.123412 0.729057 0.238609 0.116863
H23   H     H_    0.871672 0.649810 0.434945 0.132305
H24   H     H_    0.622257 0.950986 0.234134 0.109856
H25   H     H_    0.154044 0.518185 0.169523 0.134255
H26   H     H_    0.912912 0.930488 0.291940 0.115659
H27   H     H_    0.081196 0.446401 0.381973 0.097253
H28   H     H_    0.040268 0.268840 0.346633 0.097094
H29   H     H_    0.092439 0.254546 0.218885 0.125491
H30   H     H_    0.651083 0.415464 0.168780 0.098888
H31   H     H_    0.598106 0.436096 0.296323 0.125015
H32   H     H_    0.576065 0.719281 0.309443 0.145077
O1    O     O_R   0.748800 0.497470 0.428000 -0.531838
O2    O     O_R   0.417600 0.174890 0.067840 -0.506777
O3    O     O_R   0.375320 0.946260 0.070860 -0.495168
O4    O     O_R   0.476420 0.724060 0.429470 -0.511636
O5    O     O_R   0.160600 0.919630 0.926660 -0.530015
O6    O     O_R   0.933060 0.190520 0.936020 -0.519860
O7    O     O_R   0.908880 0.403460 0.925020 -0.521539
O8    O     O_R   0.179600 0.361450 0.918490 -0.505547
O9    O     O_R   0.391510 0.170860 0.907530 -0.524254
O10   O     O_R   0.351130 0.942530 0.922260 -0.504015
O11   O     O_3   0.166667 0.166667 0.999870 -0.243237
O12   O     O_R   0.300070 0.471040 0.567100 -0.502841
O13   O     O_R   0.264580 0.744340 0.416750 -0.505679
O14   O     O_R   0.309380 0.472470 0.418200 -0.493493
O15   O     O_R   0.501710 0.260430 0.414300 -0.530411
O16   O     O_R   0.728090 0.305600 0.428960 -0.502042
O17   O     O_R   0.738760 0.495930 0.588610 -0.530556
O18   O     O_R   0.467110 0.722640 0.578360 -0.508953
O19   O     O_R   0.254530 0.742800 0.577360 -0.525640
O20   O     O_R   0.491670 0.258900 0.574910 -0.526428
O21   O     O_R   0.718780 0.304180 0.577850 -0.506887
O22   O     O_3   0.500010 0.500010 0.500020 -0.247794
O23   O     O_R   0.186690 0.923650 0.086970 -0.532769
O24   O     O_R   0.957250 0.194250 0.084630 -0.520236
O25   O     O_R   0.934970 0.407490 0.085330 -0.517148
O26   O     O_R   0.203780 0.365190 0.067090 -0.511005

loop_
_geom_bond_atom_site_label_1
_geom_bond_atom_site_label_2
_ccdc_geom_bond_type
C25   C31   A    
Cr4   O5    S    
C40   O20   A    
C50   O6    A    
C23   C45   A    
C27   C29   A    
C43   H17   S    
C41   C42   A    
Cr5   O8    S    
C19   C20   A    
Cr6   O9    S    
C8    C56   A    
C7    C8    A    
C39   C41   A    
C54   C60   A    
C28   C46   S    
C26   C27   A    
C29   C30   A    
C5    C58   A    
C18   C24   A    
C36   C37   A    
C37   C38   A    
C28   O19   A    
C42   C53   S    
C49   O3    A    
C30   C31   A    
C56   H22   S    
C38   C52   S    
C10   H28   S    
C10   C17   A    
Cr6   O2    S    
Cr4   O23   S    
C26   H7    S    
C31   C40   S    
C15   C17   A    
C18   C19   A    
Cr5   O26   S    
C14   H30   S    
Cr2   O19   S    
C28   O18   A    
C12   C59   A    
Cr2   O13   S    
C35   C36   A    
C27   C51   S    
C16   C17   S    
Cr1   O17   S    
C50   O7    A    
C32   C38   A    
Cr2   O22   S    
C4    O14   A    
C59   C60   A    
C21   C22   A    
Cr1   O22   S    
Cr3   O16   S    
Cr6   O3    S    
Cr1   O1    S    
C15   H31   S    
C7    H27   S    
Cr5   O7    S    
C44   C46   A    
C48   O2    A    
C37   H14   S    
C4    O15   A    
C39   H15   S    
C3    C8    S    
C13   C47   S    
Cr3   O20   S    
C47   O24   A    
C40   O12   A    
C29   H8    S    
C25   C26   A    
C57   H21   S    
C21   H3    S    
C59   H24   S    
C43   C44   A    
C32   H10   S    
C20   C49   S    
C3    C9    A    
Cr3   O21   S    
C47   O25   A    
Cr2   O12   S    
C60   H4    S    
C49   O23   A    
C35   C50   S    
Cr2   O14   S    
C19   H2    S    
C25   H6    S    
Cr5   O11   S    
C34   C45   A    
C39   C46   A    
C12   C57   A    
C55   C57   A    
C9    C34   A    
C22   C24   A    
C42   C43   A    
C22   H5    S    
C52   O17   A    
C11   H29   S    
Cr4   O6    S    
C54   C55   A    
C23   C48   S    
Cr1   O18   S    
Cr6   O10   S    
C12   C45   S    
C44   H18   S    
C36   H13   S    
C16   O16   A    
C34   H1    S    
C48   O26   A    
C54   H19   S    
C16   O1    A    
C6    C7    A    
C6    H23   S    
C32   C33   A    
C55   H20   S    
Cr1   O4    S    
C4    C9    S    
C1    O13   A    
Cr3   O22   S    
C11   C13   A    
C53   O10   A    
C33   H11   S    
Cr4   O11   S    
C5    C6    A    
C53   O5    A    
C51   O8    A    
Cr4   O24   S    
C41   H16   S    
C33   C35   A    
C56   C58   A    
C2    C3    A    
Cr5   O25   S    
Cr6   O11   S    
C2    H25   S    
C10   C11   A    
Cr3   O15   S    
C52   O21   A    
C30   H9    S    
C20   C21   A    
C1    C24   S    
C51   O9    A    
C2    C23   A    
C14   C15   A    
C18   H32   S    
C5    H12   S    
C13   C14   A    
C58   H26   S    
C1    O4    A    
