data_mof_unit_48925.cif
_audit_creation_date              2012-10-26T19:59:14-0400
_audit_creation_method            fapswitch 2.2
_symmetry_space_group_name_H-M    P1
_symmetry_Int_Tables_number       1
_space_group_crystal_system       triclinic
_cell_length_a                    7.432381
_cell_length_b                    8.694922
_cell_length_c                    15.843337
_cell_angle_alpha                 94.271569
_cell_angle_beta                  74.927457
_cell_angle_gamma                 103.170411
_cell_volume                      962.505158808

loop_
_atom_site_label
_atom_site_type_symbol
_atom_type_description
_atom_site_fract_x
_atom_site_fract_y
_atom_site_fract_z
_atom_type_partial_charge
C1    C     C_R   0.545094 0.800161 0.502599 0.545998
C2    C     C_R   0.616446 0.512107 0.333685 0.564744
C3    C     C_R   0.312347 0.469669 0.761591 0.003048
C4    C     C_R   0.687663 0.529936 0.238377 0.002990
C5    C     C_R   0.071790 0.358534 0.889135 -0.094991
C6    C     C_R   0.928726 0.639756 0.110672 -0.094961
C7    C     C_R   0.124242 0.393468 0.800532 0.359727
C8    C     C_R   0.876056 0.605319 0.199343 0.359774
C9    C     C_R   0.443181 0.517213 0.813152 -0.174898
C10   C     C_R   0.556755 0.482646 0.186843 -0.174980
C11   C     C_R   0.394703 0.481702 0.902536 0.015107
C12   C     C_R   0.454906 0.199839 0.497401 0.546083
C13   C     C_R   0.605608 0.517275 0.097335 0.015061
C14   C     C_R   0.205571 0.399492 0.939807 -0.019068
C15   C     C_R   0.794944 0.598942 0.059994 -0.018989
C16   C     C_R   0.529224 0.521704 0.955134 0.049158
C17   C     C_R   0.471222 0.477014 0.044684 0.049143
C18   C     C_R   0.280835 0.394004 0.078508 -0.106380
C19   C     C_R   0.719829 0.604183 0.921231 -0.106376
C20   C     C_R   0.151538 0.356696 0.027030 -0.131810
C21   C     C_R   0.849173 0.641311 0.972701 -0.131841
C22   C     C_2   0.570494 0.968049 0.503861 -0.140765
C23   C     C_2   0.429505 0.031951 0.496140 -0.140733
C24   C     C_R   0.383552 0.487852 0.666308 0.564809
Cu1   Cu    Cu3+1 0.322120 0.483240 0.490330 1.027897
Cu2   Cu    Cu3+1 0.677880 0.516760 0.509670 1.027880
F1    F     F_    0.006888 0.652023 0.247177 -0.623845
F2    F     F_    0.993507 0.346524 0.752678 -0.623790
H1    H     H_    0.007284 0.293330 0.055988 0.118575
H2    H     H_    0.293614 0.960584 0.488844 0.145272
H3    H     H_    0.003843 0.614865 0.568879 0.244070
H4    H     H_    0.996157 0.385135 0.431121 0.244178
H5    H     H_    0.993619 0.704211 0.943677 0.118522
H6    H     H_    0.415409 0.422464 0.219465 0.144175
H7    H     H_    0.584114 0.578411 0.780678 0.143494
H8    H     H_    0.926764 0.296811 0.917962 0.143324
H9    H     H_    0.073949 0.700978 0.081786 0.143319
H10   H     H_    0.225016 0.354602 0.144804 0.127303
H11   H     H_    0.775888 0.642947 0.854820 0.127677
H12   H     H_    0.706385 0.039416 0.511158 0.145299
N1    N     N_2   0.945180 0.542040 0.524240 -0.235367
N2    N     N_2   0.054820 0.457960 0.475760 -0.235287
O1    O     O_R   0.384450 0.714270 0.493720 -0.511404
O2    O     O_R   0.615550 0.285730 0.506280 -0.511400
O3    O     O_R   0.684880 0.742590 0.510050 -0.493871
O4    O     O_R   0.315120 0.257410 0.489950 -0.493791
O5    O     O_R   0.265540 0.477900 0.617090 -0.445362
O6    O     O_R   0.734460 0.522100 0.382910 -0.445217
O7    O     O_R   0.565970 0.506210 0.633420 -0.510715
O8    O     O_R   0.434030 0.493790 0.366580 -0.510786

loop_
_geom_bond_atom_site_label_1
_geom_bond_atom_site_label_2
_ccdc_geom_bond_type
Cu1   N2    S    
C2    C4    S    
C23   H2    S    
C3    C9    A    
Cu2   O6    S    
C5    C7    A    
N1    N2    D    
Cu1   O5    S    
C18   C20   A    
C13   C17   A    
C4    C8    A    
C22   H12   S    
Cu1   O1    S    
C17   C18   A    
C5    C14   A    
C6    H9    S    
Cu2   O2    S    
C1    C22   S    
C10   H6    S    
Cu1   Cu2   S    
H3    N1    S    
C9    C11   A    
C12   C23   S    
C1    O3    A    
C3    C24   S    
C19   H11   S    
C16   C19   A    
C19   C21   A    
C3    C7    A    
C20   H1    S    
C13   C15   A    
C18   H10   S    
C11   C14   A    
C21   H5    S    
C4    C10   A    
C5    H8    S    
C14   C20   A    
C15   C21   A    
C12   O4    A    
C11   C16   A    
Cu2   O7    S    
C24   O7    A    
C9    H7    S    
C8    F1    S    
H4    N2    S    
C22   C23   D    
C12   O2    A    
C6    C8    A    
C2    O8    A    
Cu2   O3    S    
C2    O6    A    
C6    C15   A    
Cu1   O8    S    
C24   O5    A    
Cu1   O4    S    
C1    O1    A    
C7    F2    S    
Cu2   N1    S    
C16   C17   A    
C10   C13   A    
