data_mof_unit_64537.cif
_audit_creation_date              2013-03-05T16:52:25-0500
_audit_creation_method            fapswitch 2.2
_symmetry_space_group_name_H-M    P1
_symmetry_Int_Tables_number       1
_space_group_crystal_system       triclinic
_cell_length_a                    15.868372
_cell_length_b                    15.052927
_cell_length_c                    27.711207
_cell_angle_alpha                 90.001112
_cell_angle_beta                  89.982954
_cell_angle_gamma                 90.001555
_cell_volume                      6619.24950392

loop_
_atom_site_label
_atom_site_type_symbol
_atom_site_description
_atom_site_fract_x
_atom_site_fract_y
_atom_site_fract_z
_atom_type_partial_charge
O1    O     O_R   0.378020 0.573650 0.500020 -0.604305
O2    O     O_R   0.621980 0.426350 0.499980 -0.591432
O3    O     O_R   0.621980 0.573650 0.499980 -0.604292
O4    O     O_R   0.378020 0.426350 0.500020 -0.591831
C1    C     C_R   0.338919 0.499996 0.500035 0.893688
C2    C     C_R   0.661081 0.499999 0.499964 0.894188
O5    O     O_R   0.500010 0.573660 0.428760 -0.627248
O6    O     O_R   0.499990 0.426340 0.571240 -0.565452
O7    O     O_R   0.499990 0.573660 0.571240 -0.627891
O8    O     O_R   0.500010 0.426340 0.428760 -0.566187
C3    C     C_R   0.500633 0.499996 0.405645 0.938990
C4    C     C_R   0.499375 0.499994 0.594365 0.938524
Zn1   Zn    Zn3+2 0.500000 0.598370 0.500000 1.022358
Zn2   Zn    Zn3+2 0.500000 0.401630 0.500000 1.093336
C5    C     C_R   0.418617 0.525030 0.176376 0.577255
C6    C     C_R   0.580604 0.526543 0.823675 0.577191
O9    O     O_2   0.345430 0.512066 0.200203 -0.525253
O10   O     O_2   0.653992 0.514892 0.799851 -0.525348
N1    N     N_R   0.492900 0.527300 0.201217 -0.335769
N2    N     N_R   0.506298 0.527488 0.798832 -0.335740
C7    C     C_R   0.568150 0.541667 0.178563 0.574933
C8    C     C_R   0.430827 0.540499 0.821486 0.574957
C9    C     C_R   0.525173 0.437849 0.273375 0.294937
C10   C     C_R   0.475461 0.437489 0.726663 0.294807
C11   C     C_R   0.528590 0.430800 0.323999 0.282881
C12   C     C_R   0.472259 0.430340 0.676036 0.283392
C13   C     C_R   0.464713 0.577731 0.330661 -0.238217
C14   C     C_R   0.533945 0.578318 0.669398 -0.238535
C15   C     C_R   0.461638 0.584488 0.280971 -0.131707
C16   C     C_R   0.536787 0.585164 0.719087 -0.132095
C17   C     C_R   0.491876 0.515511 0.252310 0.144805
C18   C     C_R   0.507526 0.515717 0.747737 0.144952
C19   C     C_R   0.495565 0.546189 0.101749 -0.045659
C20   C     C_R   0.503322 0.546303 0.898303 -0.045661
C21   C     C_R   0.418471 0.535013 0.126187 -0.035282
C22   C     C_R   0.580586 0.536521 0.873864 -0.035249
C23   C     C_R   0.343347 0.532204 0.100097 -0.109520
C24   C     C_R   0.655744 0.535062 0.899953 -0.109559
C25   C     C_R   0.571030 0.550454 0.128362 -0.032576
C26   C     C_R   0.427802 0.549219 0.871687 -0.032527
C27   C     C_R   0.498157 0.501664 0.352760 -0.180249
C28   C     C_R   0.501694 0.501689 0.647271 -0.180508
H1    H     H_    0.440614 0.632541 0.351922 0.195468
H2    H     H_    0.557281 0.633529 0.648166 0.195534
H3    H     H_    0.436715 0.644221 0.264496 0.176825
H4    H     H_    0.560774 0.645316 0.735566 0.176761
H5    H     H_    0.283339 0.523088 0.118095 0.198913
H6    H     H_    0.715890 0.527037 0.881954 0.198864
C29   C     C_R   0.422677 0.555828 0.973498 0.045930
C30   C     C_R   0.576040 0.557199 0.026554 0.045924
C31   C     C_R   0.578271 0.551602 0.975557 0.046088
C32   C     C_R   0.420538 0.550168 0.024494 0.046065
C33   C     C_R   0.501459 0.551825 0.949302 0.082657
C34   C     C_R   0.497335 0.551765 0.050750 0.082661
C35   C     C_R   0.348469 0.563843 0.945588 -0.193505
C36   C     C_R   0.650110 0.566537 0.054464 -0.193485
C37   C     C_R   0.351148 0.560404 0.895607 -0.101482
C38   C     C_R   0.647490 0.563026 0.104444 -0.101433
O11   O     O_2   0.359068 0.544498 0.795417 -0.517155
O12   O     O_2   0.639837 0.546939 0.204630 -0.516977
C39   C     C_R   0.344148 0.539815 0.050227 -0.190296
C40   C     C_R   0.654819 0.542638 0.949823 -0.190273
H7    H     H_    0.292469 0.565321 0.875806 0.200436
H8    H     H_    0.706080 0.568990 0.124246 0.200477
H9    H     H_    0.287084 0.573908 0.961263 0.151353
H10   H     H_    0.711323 0.577714 0.038791 0.151369
H11   H     H_    0.283754 0.533888 0.032808 0.152608
H12   H     H_    0.715299 0.537799 0.967241 0.152566
C41   C     C_R   0.956099 0.581265 0.498531 0.323953
C42   C     C_R   0.043902 0.418684 0.501449 0.325090
C43   C     C_R   0.043912 0.581264 0.498567 0.323838
C44   C     C_R   0.956088 0.418684 0.501404 0.325108
C45   C     C_R   0.912995 0.499975 0.499948 -0.213097
C46   C     C_R   0.087005 0.499975 0.500028 -0.213181
C47   C     C_1   0.824009 0.499981 0.499937 0.189317
C48   C     C_1   0.175991 0.499977 0.500048 0.189071
C49   C     C_1   0.250712 0.499987 0.500049 -0.085573
C50   C     C_1   0.749288 0.499992 0.499943 -0.085202
H13   H     H_    0.405830 0.081977 0.444077 0.164643
H14   H     H_    0.594176 0.918046 0.555922 0.156972
H15   H     H_    0.594167 0.081987 0.555927 0.165093
H16   H     H_    0.405820 0.918036 0.444080 0.157217
C51   C     C_R   0.447192 0.953101 0.468645 -0.121406
C52   C     C_R   0.552802 0.046918 0.531361 -0.106518
C53   C     C_R   0.552805 0.953107 0.531358 -0.121809
C54   C     C_R   0.447195 0.046912 0.468643 -0.107223
C55   C     C_R   0.499999 0.905054 0.500001 0.055373
C56   C     C_R   0.499999 0.094960 0.500002 0.045480
C57   C     C_1   0.499999 0.807209 0.500000 0.103791
C58   C     C_1   0.500000 0.192796 0.500001 0.164148
N3    N     N_1   0.500000 0.270550 0.500000 -0.055585
N4    N     N_1   0.500000 0.729450 0.500000 -0.078887
Cl1   Cl    Cl    0.431232 0.332208 0.649857 -0.467490
Cl2   Cl    Cl    0.571222 0.333476 0.350214 -0.468290
N5    N     N_R   0.446126 0.366202 0.756811 0.241581
O13   O     O_R   0.371215 0.333014 0.750572 -0.262219
O14   O     O_R   0.491337 0.339262 0.793141 -0.351591
N6    N     N_R   0.555566 0.367064 0.243223 0.241548
O15   O     O_R   0.630988 0.335177 0.249433 -0.262396
O16   O     O_R   0.510726 0.339330 0.206913 -0.351644
Cl3   Cl    Cl    0.099803 0.682950 0.496782 -0.459559
Cl4   Cl    Cl    0.900193 0.316999 0.503169 -0.441037
Cl5   Cl    Cl    0.900221 0.682952 0.496717 -0.458581
Cl6   Cl    Cl    0.099784 0.317000 0.503286 -0.439929

loop_
_geom_bond_atom_site_label_1
_geom_bond_atom_site_label_2
_geom_bond_distance
_ccdc_geom_bond_type
C51   C55   1.407402 A    
C13   C15   1.381606 A    
N5    O13   1.301006 A    
O3    C2    1.270496 A    
N1    C17   1.427020 S    
C5    N1    1.365636 A    
C19   C25   1.408033 A    
C46   C48   1.412054 S    
O1    C1    1.270495 A    
N1    C7    1.366132 A    
C10   C12   1.407989 A    
C32   C39   1.414803 A    
C54   C56   1.407377 A    
C2    C50   1.399700 S    
C41   C43   1.393439 A    
C13   C27   1.402873 A    
O7    Zn1   2.008886 S    
C42   C46   1.402380 A    
C4    C28   1.466775 S    
C36   H10   1.077137 S    
C41   C45   1.402374 A    
C23   H5    1.083517 S    
C24   H6    1.083521 S    
O3    Zn1   1.971075 S    
O6    C4    1.280614 A    
C12   Cl1   1.769849 S    
C41   Cl5   1.769711 S    
C43   Cl3   1.769717 S    
C11   Cl2   1.769757 S    
C45   C47   1.412055 S    
O2    C2    1.270439 A    
C31   C40   1.414816 A    
C5    C21   1.398887 A    
C35   H9    1.077139 S    
C32   C34   1.419704 A    
C37   H7    1.083469 S    
C53   C55   1.407417 A    
C38   H8    1.083451 S    
C48   C49   1.185704 T    
C7    O12   1.350047 S    
O8    Zn2   2.008892 S    
C10   N5    1.437326 S    
C11   C27   1.416346 A    
C8    O11   1.350036 S    
O4    C1    1.270434 A    
C29   C35   1.414187 A    
C25   C38   1.395263 A    
C14   H2    1.083449 S    
C30   C36   1.414191 A    
C15   H3    1.083247 S    
C31   C33   1.419700 A    
C9    C17   1.409550 A    
O5    C3    1.280601 A    
C10   C18   1.409500 A    
H14   C53   1.083135 S    
C39   H11   1.076876 S    
C7    C25   1.398116 A    
C6    N2    1.365640 A    
C29   C32   1.416144 A    
C8    C26   1.398138 A    
C51   C54   1.412127 A    
C30   C31   1.416128 A    
C30   C34   1.419697 A    
C52   C53   1.412129 A    
C57   N4    1.170499 T    
C56   C58   1.472720 S    
H16   C51   1.083142 S    
N6    O16   1.301306 A    
C35   C37   1.386631 A    
Zn1   N4    1.973139 S    
C20   C26   1.408025 A    
O1    Zn1   1.971059 S    
C1    C49   1.399698 S    
C22   C24   1.395017 A    
H15   C52   1.083145 S    
C12   C28   1.416634 A    
N2    C18   1.427056 S    
C19   C34   1.416000 A    
C5    O9    1.349939 S    
O6    Zn2   2.008872 S    
C26   C37   1.395283 A    
C21   C23   1.395031 A    
O7    C4    1.280782 A    
C16   H4    1.083205 S    
C52   C56   1.407364 A    
N2    C8    1.366125 A    
C44   C45   1.402378 A    
C43   C46   1.402371 A    
C23   C39   1.386758 A    
N5    O14   1.301211 A    
C40   H12   1.076861 S    
C14   C16   1.381554 A    
C15   C17   1.392427 A    
C6    C22   1.398860 A    
C16   C18   1.392307 A    
C58   N3    1.170418 T    
C44   Cl4   1.769722 S    
C29   C33   1.419699 A    
C14   C28   1.403049 A    
C19   C21   1.408210 A    
C20   C22   1.408203 A    
C36   C38   1.386618 A    
C3    C27   1.466247 S    
C42   Cl6   1.769712 S    
C9    C11   1.407935 A    
O4    Zn2   1.971078 S    
O2    Zn2   1.971055 S    
C47   C50   1.185705 T    
Zn2   N3    1.973139 S    
O8    C3    1.280511 A    
C13   H1    1.083484 S    
O5    Zn1   2.008878 S    
C9    N6    1.437299 S    
C20   C33   1.415993 A    
C6    O10   1.349943 S    
N6    O15   1.300978 A    
C55   C57   1.472860 S    
C42   C44   1.393461 A    
H13   C54   1.083139 S    
C24   C40   1.386727 A    
