data_mof_unit_12109.cif
_audit_creation_date              2012-12-10T20:12:32-0500
_audit_creation_method            fapswitch 2.2
_symmetry_space_group_name_H-M    P1
_symmetry_Int_Tables_number       1
_space_group_crystal_system       triclinic
_cell_length_a                    15.862578
_cell_length_b                    15.858517
_cell_length_c                    60.049377
_cell_angle_alpha                 90.01527
_cell_angle_beta                  90.017607
_cell_angle_gamma                 89.999396
_cell_volume                      15105.8376502

loop_
_atom_site_label
_atom_site_type_symbol
_atom_type_description
_atom_site_fract_x
_atom_site_fract_y
_atom_site_fract_z
_atom_type_partial_charge
C1    C     C_R   0.500029 0.000013 0.810452 0.564296
C2    C     C_R   0.474052 0.846996 0.453063 0.259288
C3    C     C_1   0.223419 0.723354 0.749988 -0.030261
C4    C     C_1   0.276593 0.223371 0.249992 -0.028411
C5    C     C_1   0.723354 0.776581 0.749989 -0.030011
C6    C     C_1   0.223361 0.723417 0.249997 -0.028565
C7    C     C_1   0.776591 0.276636 0.749984 -0.030053
C8    C     C_R   0.544203 0.059424 0.582346 0.428117
C9    C     C_R   0.484402 0.925388 0.417584 0.426142
C10   C     C_R   0.938908 0.544804 0.582374 0.428109
C11   C     C_R   0.073322 0.486920 0.417642 0.425764
C12   C     C_R   0.454891 0.938351 0.582296 0.429009
C13   C     C_R   0.871164 0.585903 0.546914 0.264804
C14   C     C_R   0.513991 0.072986 0.417629 0.425926
C15   C     C_R   0.060024 0.455555 0.582302 0.428314
C16   C     C_R   0.925669 0.516100 0.417620 0.426554
C17   C     C_R   0.047232 0.562752 0.082317 0.428378
C18   C     C_R   0.984832 0.426449 0.917708 0.426547
C19   C     C_R   0.438231 0.047269 0.082323 0.428143
C20   C     C_R   0.574392 0.987325 0.917684 0.425984
C21   C     C_R   0.958828 0.441020 0.082517 0.431282
C22   C     C_R   0.014508 0.574018 0.917603 0.425825
C23   C     C_R   0.560348 0.959411 0.082497 0.431523
C24   C     C_R   0.151611 0.476520 0.453152 0.259406
C25   C     C_R   0.426258 0.013891 0.917623 0.425854
C26   C     C_R   0.432462 0.036414 0.629070 0.171065
C27   C     C_R   0.435532 0.043022 0.370637 0.178922
C28   C     C_R   0.962327 0.432912 0.629090 0.171245
C29   C     C_R   0.956557 0.437205 0.370656 0.158403
C30   C     C_R   0.566726 0.961744 0.629090 0.171321
C31   C     C_R   0.563029 0.956239 0.370617 0.158420
C32   C     C_R   0.037202 0.567090 0.629091 0.171168
C33   C     C_R   0.043088 0.564881 0.370627 0.178898
C34   C     C_R   0.934538 0.539156 0.129026 0.171001
C35   C     C_R   0.414339 0.870679 0.546767 0.254898
C36   C     C_R   0.935796 0.543563 0.870655 0.178729
C37   C     C_R   0.462103 0.934374 0.128972 0.171111
C38   C     C_R   0.458730 0.935239 0.870695 0.159216
C39   C     C_R   0.069800 0.465999 0.129290 0.151146
C40   C     C_R   0.063161 0.456608 0.870652 0.158213
C41   C     C_R   0.534709 0.069951 0.129326 0.151033
C42   C     C_R   0.542027 0.065126 0.870649 0.158975
C43   C     C_R   0.433279 0.038970 0.652543 0.083094
C44   C     C_R   0.437199 0.045839 0.347135 0.078523
C45   C     C_R   0.960291 0.433514 0.652565 0.082952
C46   C     C_R   0.525048 0.151098 0.453148 0.260099
C47   C     C_R   0.955709 0.437734 0.347082 0.082245
C48   C     C_R   0.566283 0.959973 0.652568 0.082967
C49   C     C_R   0.562352 0.955440 0.347046 0.082400
C50   C     C_R   0.039481 0.566429 0.652564 0.083097
C51   C     C_R   0.045865 0.563069 0.347125 0.078670
C52   C     C_R   0.933757 0.540057 0.152491 0.076176
C53   C     C_R   0.937338 0.546128 0.847146 0.078381
C54   C     C_R   0.460826 0.933590 0.152436 0.076227
C55   C     C_R   0.456825 0.936326 0.847128 0.074907
C56   C     C_R   0.067767 0.462606 0.152855 0.093284
C57   C     C_R   0.127667 0.415185 0.546778 0.264923
C58   C     C_R   0.062370 0.455589 0.847077 0.082151
C59   C     C_R   0.537772 0.067908 0.152894 0.093189
C60   C     C_R   0.543720 0.063846 0.847083 0.074956
C61   C     C_R   0.499501 0.998887 0.617443 0.227023
C62   C     C_R   0.499046 0.999272 0.382340 0.222601
C63   C     C_R   0.999675 0.500033 0.617455 0.227233
C64   C     C_R   0.999473 0.501363 0.382358 0.222552
C65   C     C_R   0.002669 0.502961 0.117546 0.232778
C66   C     C_R   0.999312 0.499860 0.882374 0.222480
C67   C     C_R   0.498143 0.002695 0.117537 0.232787
C68   C     C_R   0.847385 0.526672 0.453122 0.260466
C69   C     C_R   0.500405 0.000248 0.882382 0.228578
C70   C     C_R   0.499724 0.998902 0.547056 -0.148313
C71   C     C_R   0.499799 0.998989 0.452888 -0.154261
C72   C     C_R   0.999413 0.500544 0.547076 -0.148069
C73   C     C_R   0.999488 0.501571 0.452912 -0.154391
C74   C     C_R   0.002475 0.501372 0.047141 -0.148112
C75   C     C_R   0.000246 0.500545 0.952946 -0.154338
C76   C     C_R   0.499831 0.003078 0.047135 -0.148110
C77   C     C_R   0.500266 0.001215 0.952944 -0.153863
C78   C     C_R   0.542966 0.062900 0.558859 -0.013286
C79   C     C_R   0.087682 0.629720 0.046710 0.265014
C80   C     C_R   0.485315 0.923083 0.441087 -0.017332
C81   C     C_R   0.935398 0.543678 0.558886 -0.013477
C82   C     C_R   0.075522 0.487623 0.441146 -0.016363
C83   C     C_R   0.456325 0.934921 0.558804 -0.011947
C84   C     C_R   0.513676 0.075067 0.441135 -0.015924
C85   C     C_R   0.063445 0.457134 0.558816 -0.013374
C86   C     C_R   0.923469 0.515537 0.441129 -0.015888
C87   C     C_R   0.045781 0.565670 0.058819 -0.013536
C88   C     C_R   0.985770 0.424472 0.941221 -0.015947
C89   C     C_R   0.435335 0.045997 0.058825 -0.013582
C90   C     C_R   0.974491 0.348536 0.953270 0.260552
C91   C     C_R   0.576439 0.987809 0.941198 -0.016434
C92   C     C_R   0.959636 0.437357 0.059025 -0.013081
C93   C     C_R   0.014259 0.576425 0.941110 -0.016402
C94   C     C_R   0.564044 0.960463 0.059005 -0.012985
C95   C     C_R   0.424121 0.014164 0.941134 -0.016395
C96   C     C_3   0.610772 0.834493 0.672683 -0.282221
C97   C     C_3   0.704336 0.942653 0.331786 -0.265618
C98   C     C_3   0.165347 0.610442 0.672595 -0.282484
C99   C     C_3   0.060150 0.705525 0.332056 -0.272273
C100  C     C_3   0.389213 0.165025 0.672488 -0.282477
C101  C     C_R   0.371115 0.087719 0.046728 0.265163
C102  C     C_3   0.294706 0.060323 0.332108 -0.272433
C103  C     C_3   0.834598 0.389360 0.672621 -0.282391
C104  C     C_3   0.943246 0.295614 0.331852 -0.265718
C105  C     C_3   0.109507 0.338037 0.174307 -0.275219
C106  C     C_3   0.204280 0.442481 0.831787 -0.265905
C107  C     C_3   0.661958 0.109996 0.174458 -0.275518
C108  C     C_3   0.553103 0.205978 0.831719 -0.265657
C109  C     C_3   0.886571 0.664488 0.172611 -0.281693
C110  C     C_3   0.794807 0.560566 0.832145 -0.272796
C111  C     C_3   0.336281 0.885888 0.172388 -0.281347
C112  C     C_R   0.499818 0.999905 0.189517 0.524724
C113  C     C_R   0.652503 0.977046 0.953230 0.260001
C114  C     C_3   0.447468 0.794084 0.831824 -0.265836
C115  C     C_3   0.630358 0.843299 0.609676 -0.290929
C116  C     C_3   0.693239 0.966690 0.391640 -0.300881
C117  C     C_3   0.155569 0.630715 0.609671 -0.290635
C118  C     C_3   0.037473 0.695066 0.391878 -0.304288
C119  C     C_3   0.368517 0.154491 0.609577 -0.290475
C120  C     C_3   0.305532 0.037572 0.391938 -0.303631
C121  C     C_3   0.843932 0.369182 0.609673 -0.290616
C122  C     C_3   0.967372 0.307138 0.391721 -0.300306
C123  C     C_3   0.133155 0.344556 0.111236 -0.297887
C124  C     C_R   0.917198 0.373060 0.047123 0.264772
C125  C     C_3   0.193494 0.467084 0.891621 -0.300655
C126  C     C_3   0.656158 0.133696 0.111399 -0.298003
C127  C     C_3   0.527586 0.195406 0.891485 -0.301443
C128  C     C_3   0.870823 0.657103 0.109424 -0.291645
C129  C     C_3   0.805886 0.538498 0.891996 -0.304079
C130  C     C_3   0.344838 0.869970 0.109230 -0.291521
C131  C     C_3   0.473424 0.805246 0.891624 -0.301196
C132  C     C_3   0.587992 0.264103 0.558124 0.030362
C133  C     C_3   0.641056 0.331158 0.569613 -0.369724
C134  C     C_3   0.385447 0.740245 0.443142 0.014441
C135  C     C_R   0.025876 0.652592 0.953050 0.260283
C136  C     C_3   0.381374 0.653130 0.432594 -0.351394
C137  C     C_3   0.734149 0.588772 0.558081 0.030354
C138  C     C_3   0.667061 0.641876 0.569531 -0.370142
C139  C     C_3   0.260502 0.390435 0.443222 0.016669
C140  C     C_3   0.346707 0.388045 0.432155 -0.355017
C141  C     C_3   0.413809 0.733557 0.557889 0.026255
C142  C     C_3   0.361774 0.665448 0.569256 -0.371648
C143  C     C_3   0.610735 0.260220 0.443148 0.016637
C144  C     C_3   0.612658 0.346682 0.432200 -0.354949
C145  C     C_3   0.264672 0.411955 0.557978 0.030306
C146  C     C_R   0.628578 0.918494 0.047088 0.264593
C147  C     C_3   0.331789 0.358363 0.569261 -0.369796
C148  C     C_3   0.738492 0.612665 0.443141 0.015838
C149  C     C_3   0.652146 0.614906 0.432135 -0.353643
C150  C     C_3   0.090840 0.766974 0.057723 0.030483
C151  C     C_3   0.144265 0.834301 0.068982 -0.370120
C152  C     C_3   0.887916 0.239985 0.943369 0.016181
C153  C     C_3   0.885158 0.153625 0.932369 -0.354431
C154  C     C_3   0.233889 0.090376 0.057724 0.030268
C155  C     C_3   0.166435 0.143495 0.069018 -0.369821
C156  C     C_3   0.761310 0.891067 0.943191 0.016671
C157  C     C_R   0.347994 0.025277 0.953105 0.260086
C158  C     C_3   0.847908 0.888985 0.932335 -0.355228
C159  C     C_3   0.914175 0.236059 0.058328 0.030077
C160  C     C_3   0.860994 0.169067 0.069787 -0.369559
C161  C     C_3   0.111710 0.761371 0.942882 0.016861
C162  C     C_3   0.113777 0.847541 0.931780 -0.354914
C163  C     C_3   0.765519 0.916056 0.058351 0.030220
C164  C     C_3   0.832636 0.863196 0.069871 -0.369583
C165  C     C_3   0.238928 0.110593 0.942852 0.016955
C166  C     C_3   0.152206 0.111979 0.932044 -0.355997
C167  C     C_3   0.933157 0.748113 0.991189 -0.001964
C168  C     C_R   0.499882 0.999681 0.664637 -0.005031
C169  C     C_3   0.926050 0.837539 0.000186 -0.379772
C170  C     C_3   0.786957 0.364767 0.007858 0.007643
C171  C     C_3   0.721233 0.303529 0.999021 -0.380793
C172  C     C_3   0.253149 0.932700 0.991326 -0.001188
C173  C     C_3   0.163813 0.925356 0.000334 -0.379313
C174  C     C_3   0.638070 0.788656 0.007764 0.007999
C175  C     C_3   0.699917 0.723458 0.998956 -0.380668
C176  C     C_3   0.068343 0.253339 0.991290 -0.001041
C177  C     C_3   0.075523 0.163899 0.000255 -0.379249
C178  C     C_3   0.215944 0.637782 0.006991 0.007507
C179  C     C_R   0.500121 0.001144 0.335220 0.005246
C180  C     C_3   0.281058 0.699158 0.997924 -0.380603
C181  C     C_3   0.747490 0.070713 0.991322 -0.001485
C182  C     C_3   0.836880 0.078046 0.000313 -0.378778
C183  C     C_3   0.362774 0.215994 0.006948 0.007498
C184  C     C_3   0.301261 0.281117 0.997943 -0.380712
C185  C     C_3   0.431557 0.246092 0.491176 -0.001792
C186  C     C_3   0.424209 0.335166 0.500401 -0.379521
C187  C     C_3   0.278538 0.848704 0.511606 0.003225
C188  C     C_3   0.263971 0.902916 0.490972 -0.408533
C189  C     C_3   0.752564 0.432576 0.491135 -0.001808
C190  C     C_R   0.999930 0.499970 0.664643 -0.005058
C191  C     C_3   0.663498 0.424911 0.500313 -0.379989
C192  C     C_3   0.136584 0.286856 0.507091 0.007090
C193  C     C_3   0.198244 0.221589 0.498221 -0.380533
C194  C     C_3   0.569156 0.752081 0.491137 -0.002954
C195  C     C_3   0.576980 0.662537 0.499991 -0.378447
C196  C     C_3   0.714257 0.136540 0.507395 0.007665
C197  C     C_3   0.779233 0.198461 0.498516 -0.380391
C198  C     C_3   0.247009 0.570487 0.490971 -0.001936
C199  C     C_3   0.335740 0.577603 0.500419 -0.378010
C200  C     C_3   0.862544 0.715305 0.507497 0.007288
C201  C     C_R   0.001250 0.499997 0.335230 0.005133
C202  C     C_3   0.801158 0.780669 0.498555 -0.381029
C203  C     C_R   0.999968 0.500639 0.164657 0.006299
C204  C     C_R   0.000017 0.500384 0.810440 0.539355
C205  C     C_R   0.000153 0.501262 0.835235 0.004994
C206  C     C_R   0.499768 0.999977 0.164652 0.006132
C207  C     C_R   0.500188 0.000060 0.835265 0.021258
C208  C     C_R   0.021833 0.575063 0.988299 -0.013444
C209  C     C_R   0.966872 0.432244 0.011817 -0.013548
C210  C     C_R   0.425844 0.022180 0.988319 -0.013524
C211  C     C_R   0.569122 0.968134 0.011796 -0.013499
C212  C     C_R   0.980220 0.426613 0.988438 -0.013590
C213  C     C_R   0.036384 0.569829 0.011633 -0.013293
C214  C     C_R   0.574569 0.981692 0.988418 -0.013586
C215  C     C_R   0.999904 0.500241 0.189520 0.524722
C216  C     C_R   0.431141 0.036791 0.011646 -0.013438
C217  C     C_R   0.520774 0.073110 0.488325 -0.014218
C218  C     C_R   0.465613 0.929855 0.511631 -0.001272
C219  C     C_R   0.925184 0.521854 0.488331 -0.013495
C220  C     C_R   0.068293 0.466438 0.511650 -0.012475
C221  C     C_R   0.479970 0.924447 0.488291 -0.006118
C222  C     C_R   0.534765 0.067649 0.511675 -0.014175
C223  C     C_R   0.073729 0.480846 0.488324 -0.012919
C224  C     C_R   0.930579 0.535609 0.511695 -0.013359
C225  C     C_R   0.000765 0.500737 0.976550 -0.098161
C226  C     C_R   0.000397 0.500013 0.310439 0.539576
C227  C     C_R   0.001944 0.501129 0.023538 -0.096621
C228  C     C_R   0.500232 0.001693 0.976549 -0.098048
C229  C     C_R   0.500055 0.002697 0.023534 -0.096621
C230  C     C_R   0.500239 0.998841 0.476490 -0.100528
C231  C     C_R   0.500040 0.998792 0.523463 -0.099522
C232  C     C_R   0.999464 0.501441 0.476509 -0.098636
C233  C     C_R   0.999417 0.500847 0.523483 -0.096851
C234  C     C_R   0.023974 0.652227 0.976462 0.279954
C235  C     C_R   0.916679 0.373790 0.023731 0.280796
C236  C     C_R   0.348591 0.023736 0.976516 0.279763
C237  C     C_R   0.999991 0.499989 0.689508 0.511525
C238  C     C_R   0.627919 0.918238 0.023692 0.280640
C239  C     C_R   0.977322 0.349270 0.976676 0.279846
C240  C     C_R   0.087084 0.628559 0.023318 0.280799
C241  C     C_R   0.651855 0.979491 0.976639 0.279821
C242  C     C_R   0.372243 0.087225 0.023338 0.281041
C243  C     C_R   0.522847 0.150428 0.476558 0.280210
C244  C     C_R   0.414528 0.871664 0.523328 0.293604
C245  C     C_R   0.847944 0.524150 0.476531 0.280103
C246  C     C_R   0.126924 0.415830 0.523386 0.281455
C247  C     C_R   0.477594 0.847297 0.476442 0.286212
C248  C     C_R   0.500013 0.000384 0.310435 0.539607
C249  C     C_R   0.585039 0.126356 0.523496 0.281272
C250  C     C_R   0.150997 0.478975 0.476562 0.279732
C251  C     C_R   0.871942 0.585891 0.523521 0.280828
C252  C     C_R   0.660282 0.839658 0.749990 0.510815
C253  C     C_R   0.339689 0.160315 0.250000 0.510850
C254  C     C_R   0.160344 0.660285 0.749989 0.509759
C255  C     C_R   0.839686 0.339682 0.249999 0.515486
C256  C     C_R   0.339712 0.160347 0.749990 0.510877
C257  C     C_R   0.660319 0.839683 0.249999 0.515612
C258  C     C_R   0.839664 0.339707 0.749986 0.512797
C259  C     C_R   0.499979 0.999961 0.689508 0.511216
C260  C     C_R   0.160309 0.660322 0.250003 0.510960
C261  C     C_R   0.660344 0.160285 0.249989 0.505950
C262  C     C_R   0.339685 0.839683 0.749999 0.514628
C263  C     C_R   0.160282 0.339659 0.249990 0.506071
C264  C     C_R   0.839690 0.660315 0.750000 0.511867
C265  C     C_R   0.339665 0.839706 0.249987 0.512890
C266  C     C_R   0.660305 0.160325 0.750002 0.514835
C267  C     C_R   0.839713 0.660347 0.249989 0.512785
C268  C     C_R   0.160319 0.339682 0.749999 0.515384
C269  C     C_1   0.723357 0.223421 0.749995 -0.029248
C270  C     C_R   0.585175 0.127109 0.546886 0.265136
C271  C     C_1   0.276593 0.776632 0.249985 -0.029205
C272  C     C_1   0.776595 0.723371 0.749992 -0.029830
C273  C     C_1   0.223352 0.276581 0.249989 -0.030151
C274  C     C_1   0.276631 0.776589 0.749992 -0.029543
C275  C     C_1   0.723420 0.223352 0.249987 -0.030977
C276  C     C_1   0.223409 0.276630 0.749992 -0.029859
C277  C     C_1   0.776646 0.723421 0.249988 -0.030007
C278  C     C_1   0.723410 0.776630 0.249991 -0.029558
C279  C     C_1   0.276646 0.223420 0.749989 -0.030254
C280  C     C_1   0.776633 0.276587 0.249991 -0.029393
H1    H     H_    0.670745 0.952427 0.673576 0.282509
H2    H     H_    0.200094 0.668802 0.677061 0.145212
H3    H     H_    0.136129 0.304917 0.126413 0.142622
H4    H     H_    0.150426 0.359554 0.875518 0.255908
H5    H     H_    0.239920 0.427954 0.900828 0.124575
H6    H     H_    0.167436 0.514215 0.903366 0.170167
H7    H     H_    0.226514 0.500529 0.877930 0.129489
H8    H     H_    0.550169 0.197988 0.122870 0.255640
H9    H     H_    0.673475 0.187063 0.100346 0.150692
H10   H     H_    0.669660 0.074139 0.102417 0.177237
H11   H     H_    0.695595 0.136777 0.126615 0.142419
H12   H     H_    0.636504 0.155158 0.875548 0.256443
H13   H     H_    0.203163 0.574869 0.660189 0.141065
H14   H     H_    0.565244 0.243028 0.900700 0.124811
H15   H     H_    0.481030 0.168170 0.903193 0.169944
H16   H     H_    0.493454 0.227324 0.877724 0.129539
H17   H     H_    0.806544 0.557459 0.123871 0.278627
H18   H     H_    0.818159 0.671530 0.097855 0.150110
H19   H     H_    0.930840 0.668276 0.100478 0.170003
H20   H     H_    0.866676 0.700553 0.123850 0.146932
H21   H     H_    0.851484 0.643169 0.875098 0.281057
H22   H     H_    0.763519 0.579177 0.902056 0.127687
H23   H     H_    0.831216 0.488560 0.903035 0.167647
H24   H     H_    0.158234 0.571433 0.687808 0.149483
H25   H     H_    0.768471 0.508835 0.878490 0.127069
H26   H     H_    0.444613 0.806254 0.123793 0.279149
H27   H     H_    0.330927 0.817233 0.097634 0.151045
H28   H     H_    0.333428 0.929951 0.100278 0.169618
H29   H     H_    0.301206 0.865511 0.123601 0.147364
H30   H     H_    0.364389 0.845132 0.875667 0.256161
H31   H     H_    0.435869 0.757682 0.900877 0.124524
H32   H     H_    0.519978 0.832703 0.903310 0.170393
H33   H     H_    0.507558 0.773208 0.877884 0.130102
H34   H     H_    0.527742 0.256943 0.567482 0.117746
H35   H     H_    0.132043 0.600144 0.322558 0.259722
H36   H     H_    0.573992 0.286669 0.540965 0.152231
H37   H     H_    0.701142 0.340432 0.560431 0.148024
H38   H     H_    0.606150 0.391858 0.569972 0.070015
H39   H     H_    0.655282 0.311614 0.586972 0.175635
H40   H     H_    0.342382 0.783083 0.433830 0.130289
H41   H     H_    0.362774 0.734378 0.460623 0.157317
H42   H     H_    0.422437 0.608708 0.441925 0.149082
H43   H     H_    0.315555 0.629333 0.433033 0.146466
H44   H     H_    0.402744 0.656224 0.415002 0.182655
H45   H     H_    0.741154 0.528459 0.567426 0.117821
H46   H     H_    0.099333 0.753887 0.340496 0.134127
H47   H     H_    0.711728 0.574868 0.540900 0.151592
H48   H     H_    0.657979 0.702049 0.560367 0.147779
H49   H     H_    0.606321 0.607050 0.569819 0.069975
H50   H     H_    0.686428 0.655958 0.586915 0.175336
H51   H     H_    0.217917 0.345954 0.434291 0.131076
H52   H     H_    0.268583 0.368738 0.460706 0.159072
H53   H     H_    0.372294 0.322887 0.432705 0.144890
H54   H     H_    0.341475 0.408346 0.414510 0.183838
H55   H     H_    0.390837 0.430780 0.441054 0.146488
H56   H     H_    0.473879 0.741532 0.567291 0.120383
H57   H     H_    0.994614 0.709422 0.338556 0.145998
H58   H     H_    0.428263 0.711539 0.540705 0.150677
H59   H     H_    0.301921 0.655332 0.560019 0.145056
H60   H     H_    0.397677 0.605329 0.569564 0.071356
H61   H     H_    0.347082 0.684471 0.586629 0.176193
H62   H     H_    0.655049 0.217890 0.434085 0.130890
H63   H     H_    0.632879 0.267989 0.460606 0.158216
H64   H     H_    0.570044 0.390542 0.441226 0.147566
H65   H     H_    0.677751 0.372418 0.432687 0.144174
H66   H     H_    0.591949 0.341762 0.414579 0.182617
H67   H     H_    0.257723 0.471886 0.567502 0.117988
H68   H     H_    0.058588 0.719977 0.313958 0.168201
H69   H     H_    0.287035 0.426558 0.540836 0.152260
H70   H     H_    0.340861 0.298596 0.559904 0.148035
H71   H     H_    0.392526 0.393182 0.569661 0.070005
H72   H     H_    0.312459 0.343508 0.586597 0.175413
H73   H     H_    0.780962 0.657032 0.434148 0.130777
H74   H     H_    0.730638 0.634593 0.460615 0.157765
H75   H     H_    0.626574 0.680073 0.432652 0.145494
H76   H     H_    0.657160 0.594379 0.414501 0.182241
H77   H     H_    0.608123 0.572285 0.441097 0.148437
H78   H     H_    0.030805 0.760172 0.067194 0.118314
H79   H     H_    0.328998 0.047234 0.673580 0.282420
H80   H     H_    0.076447 0.789056 0.040543 0.151638
H81   H     H_    0.204167 0.843178 0.059689 0.147948
H82   H     H_    0.109471 0.895073 0.069257 0.069822
H83   H     H_    0.158822 0.815290 0.086363 0.175341
H84   H     H_    0.843717 0.282685 0.934386 0.131067
H85   H     H_    0.866083 0.232267 0.960852 0.157705
H86   H     H_    0.927521 0.109354 0.941338 0.147418
H87   H     H_    0.819861 0.128442 0.932882 0.147292
H88   H     H_    0.905688 0.158499 0.914737 0.182170
H89   H     H_    0.240899 0.030257 0.067156 0.118455
H90   H     H_    0.330844 0.199748 0.676942 0.145123
H91   H     H_    0.211821 0.076083 0.040535 0.151943
H92   H     H_    0.157345 0.203468 0.059763 0.148504
H93   H     H_    0.105794 0.108493 0.069273 0.069708
H94   H     H_    0.185436 0.157960 0.086408 0.174977
H95   H     H_    0.718976 0.847009 0.934036 0.130745
H96   H     H_    0.768727 0.868671 0.960636 0.157742
H97   H     H_    0.891775 0.931304 0.941461 0.146534
H98   H     H_    0.873382 0.823772 0.932770 0.145404
H99   H     H_    0.843342 0.909989 0.914735 0.182533
H100  H     H_    0.974554 0.242901 0.067653 0.118858
H101  H     H_    0.424654 0.202766 0.660044 0.141168
H102  H     H_    0.927895 0.213631 0.041139 0.151678
H103  H     H_    0.800794 0.160089 0.060626 0.148326
H104  H     H_    0.895701 0.108247 0.070077 0.070136
H105  H     H_    0.846988 0.188479 0.087170 0.175310
H106  H     H_    0.155869 0.718706 0.933875 0.130981
H107  H     H_    0.133975 0.769530 0.960317 0.158688
H108  H     H_    0.071360 0.891746 0.940752 0.147244
H109  H     H_    0.178947 0.873095 0.932182 0.146842
H110  H     H_    0.092908 0.842230 0.914180 0.182319
H111  H     H_    0.758283 0.976416 0.067670 0.118514
H112  H     H_    0.669237 0.800050 0.677205 0.145354
H113  H     H_    0.428307 0.158130 0.687697 0.149444
H114  H     H_    0.788045 0.929887 0.041181 0.152128
H115  H     H_    0.842030 0.803038 0.060714 0.147692
H116  H     H_    0.893254 0.898226 0.070222 0.070513
H117  H     H_    0.813096 0.849062 0.087233 0.175941
H118  H     H_    0.281020 0.154448 0.933566 0.130773
H119  H     H_    0.231617 0.133630 0.960245 0.157993
H120  H     H_    0.108592 0.069825 0.941294 0.147089
H121  H     H_    0.126496 0.177113 0.932343 0.145258
H122  H     H_    0.156660 0.090369 0.914490 0.181033
H123  H     H_    0.905775 0.704019 0.003664 0.116548
H124  H     H_    0.400088 0.132106 0.322584 0.259293
H125  H     H_    0.895825 0.744743 0.975469 0.132901
H126  H     H_    0.952751 0.882918 0.987990 0.153553
H127  H     H_    0.858790 0.853484 0.003090 0.169480
H128  H     H_    0.960792 0.843143 0.016167 0.129960
H129  H     H_    0.799152 0.413294 0.994856 0.113104
H130  H     H_    0.760365 0.395849 0.022972 0.145478
H131  H     H_    0.707205 0.254929 0.011803 0.154871
H132  H     H_    0.662266 0.338035 0.994990 0.089008
H133  H     H_    0.744745 0.272238 0.983706 0.128228
H134  H     H_    0.297370 0.905542 0.003808 0.116706
H135  H     H_    0.246451 0.099594 0.340554 0.133542
H136  H     H_    0.256570 0.895265 0.975622 0.133457
H137  H     H_    0.118331 0.952034 0.988156 0.153868
H138  H     H_    0.148056 0.858028 0.003210 0.171302
H139  H     H_    0.158203 0.959990 0.016331 0.128985
H140  H     H_    0.589537 0.800481 0.994735 0.113096
H141  H     H_    0.607126 0.761754 0.022854 0.145499
H142  H     H_    0.748571 0.709852 0.011762 0.154792
H143  H     H_    0.665963 0.664176 0.994907 0.088707
H144  H     H_    0.731078 0.747256 0.983658 0.128494
H145  H     H_    0.096141 0.297366 0.003726 0.117071
H146  H     H_    0.290755 0.994786 0.338618 0.146876
H147  H     H_    0.105245 0.256640 0.975504 0.133023
H148  H     H_    0.048295 0.118593 0.988111 0.153357
H149  H     H_    0.142839 0.147804 0.003002 0.171573
H150  H     H_    0.041325 0.158368 0.016313 0.129556
H151  H     H_    0.203266 0.589125 0.994046 0.113164
H152  H     H_    0.243353 0.606889 0.022029 0.145310
H153  H     H_    0.295590 0.747858 0.010650 0.154405
H154  H     H_    0.339912 0.664792 0.993705 0.088858
H155  H     H_    0.256703 0.730322 0.982684 0.128715
H156  H     H_    0.703370 0.098227 0.003771 0.116745
H157  H     H_    0.280166 0.058750 0.314014 0.168065
H158  H     H_    0.744075 0.107806 0.975567 0.132070
H159  H     H_    0.882266 0.051133 0.988149 0.153834
H160  H     H_    0.852766 0.145378 0.003139 0.172084
H161  H     H_    0.842507 0.043603 0.016334 0.130096
H162  H     H_    0.411151 0.203261 0.993945 0.113300
H163  H     H_    0.393975 0.243454 0.021941 0.144766
H164  H     H_    0.252920 0.295804 0.010740 0.154662
H165  H     H_    0.335572 0.339918 0.993638 0.088698
H166  H     H_    0.269701 0.256667 0.982766 0.128687
H167  H     H_    0.403631 0.201531 0.503451 0.116686
H168  H     H_    0.952371 0.329130 0.673582 0.282376
H169  H     H_    0.394857 0.243389 0.475345 0.133537
H170  H     H_    0.451616 0.380985 0.488431 0.153585
H171  H     H_    0.356855 0.351152 0.503117 0.169465
H172  H     H_    0.458162 0.340033 0.516517 0.130280
H173  H     H_    0.261046 0.884809 0.526871 0.148261
H174  H     H_    0.234868 0.794053 0.510775 0.138511
H175  H     H_    0.282392 0.867656 0.475755 0.142208
H176  H     H_    0.196226 0.919904 0.489763 0.094365
H177  H     H_    0.301366 0.961930 0.492038 0.142285
H178  H     H_    0.797123 0.404865 0.503449 0.116665
H179  H     H_    0.799965 0.330964 0.677102 0.145121
H180  H     H_    0.755512 0.395781 0.475321 0.133279
H181  H     H_    0.617650 0.451972 0.488291 0.153267
H182  H     H_    0.647831 0.357485 0.503073 0.169672
H183  H     H_    0.658377 0.459041 0.516397 0.129953
H184  H     H_    0.088315 0.299306 0.494035 0.113096
H185  H     H_    0.105262 0.259651 0.522090 0.145466
H186  H     H_    0.246584 0.207332 0.511059 0.155367
H187  H     H_    0.164058 0.162603 0.494007 0.090505
H188  H     H_    0.229806 0.245669 0.483012 0.127963
H189  H     H_    0.595936 0.796151 0.503717 0.116051
H190  H     H_    0.796653 0.424839 0.660222 0.141151
H191  H     H_    0.606611 0.756165 0.475455 0.130095
H192  H     H_    0.550816 0.617187 0.487696 0.154222
H193  H     H_    0.644339 0.647157 0.502926 0.173458
H194  H     H_    0.542130 0.656260 0.515931 0.129604
H195  H     H_    0.702186 0.088021 0.494374 0.112795
H196  H     H_    0.741461 0.105565 0.522447 0.145577
H197  H     H_    0.793090 0.247088 0.511315 0.154976
H198  H     H_    0.838426 0.164534 0.494379 0.088776
H199  H     H_    0.755111 0.229696 0.483259 0.128494
H200  H     H_    0.202218 0.599507 0.503021 0.116338
H201  H     H_    0.841749 0.428430 0.687828 0.149582
H202  H     H_    0.245194 0.606395 0.475010 0.135323
H203  H     H_    0.381791 0.549137 0.488683 0.154124
H204  H     H_    0.352164 0.644976 0.502925 0.170572
H205  H     H_    0.339661 0.544503 0.516674 0.129720
H206  H     H_    0.911206 0.703060 0.494535 0.112708
H207  H     H_    0.893397 0.742290 0.522599 0.145234
H208  H     H_    0.752434 0.794762 0.511297 0.154623
H209  H     H_    0.835477 0.839700 0.494479 0.088763
H210  H     H_    0.770085 0.756768 0.483248 0.128104
H211  H     H_    0.842901 0.377074 0.339057 0.244069
H212  H     H_    0.575439 0.796332 0.660297 0.141024
H213  H     H_    0.919615 0.251118 0.344678 0.110817
H214  H     H_    0.013269 0.298280 0.332597 0.156842
H215  H     H_    0.924722 0.271329 0.315221 0.170028
H216  H     H_    0.192802 0.421637 0.158545 0.253165
H217  H     H_    0.143738 0.286474 0.165674 0.118199
H218  H     H_    0.040641 0.325645 0.173065 0.133528
H219  H     H_    0.127759 0.337105 0.192144 0.172151
H220  H     H_    0.122496 0.342475 0.839063 0.243910
H221  H     H_    0.248832 0.418569 0.844568 0.110582
H222  H     H_    0.201944 0.512529 0.832562 0.156220
H223  H     H_    0.571650 0.841674 0.687873 0.149426
H224  H     H_    0.228250 0.423940 0.815129 0.170143
H225  H     H_    0.578264 0.193090 0.158642 0.252510
H226  H     H_    0.713482 0.144423 0.165875 0.117175
H227  H     H_    0.674574 0.041154 0.173215 0.133941
H228  H     H_    0.662663 0.128208 0.192298 0.172012
H229  H     H_    0.655177 0.126963 0.839125 0.244731
H230  H     H_    0.575702 0.251273 0.844490 0.111269
H231  H     H_    0.483155 0.201763 0.832448 0.156305
H232  H     H_    0.571116 0.230315 0.815061 0.170378
H233  H     H_    0.828896 0.545479 0.173365 0.281949
H234  H     H_    0.622662 0.842473 0.338981 0.244600
H235  H     H_    0.827428 0.697740 0.177136 0.145598
H236  H     H_    0.921247 0.703490 0.160293 0.141487
H237  H     H_    0.925748 0.657855 0.187814 0.148772
H238  H     H_    0.900192 0.632219 0.822555 0.259348
H239  H     H_    0.746593 0.599964 0.840565 0.133389
H240  H     H_    0.790824 0.495107 0.838707 0.146220
H241  H     H_    0.780234 0.558798 0.814053 0.167950
H242  H     H_    0.455484 0.828685 0.173306 0.282374
H243  H     H_    0.303220 0.826599 0.176881 0.147100
H244  H     H_    0.297346 0.920368 0.160010 0.141360
H245  H     H_    0.748856 0.918745 0.344575 0.111147
H246  H     H_    0.342484 0.925151 0.187591 0.148664
H247  H     H_    0.345371 0.873019 0.839252 0.244261
H248  H     H_    0.425287 0.748946 0.844673 0.111009
H249  H     H_    0.517424 0.798454 0.832434 0.157364
H250  H     H_    0.429078 0.769451 0.815218 0.169720
H251  H     H_    0.694719 0.942581 0.624282 0.278603
H252  H     H_    0.683398 0.828454 0.598271 0.150886
H253  H     H_    0.570645 0.832477 0.600549 0.169865
H254  H     H_    0.633620 0.799913 0.624126 0.147452
H255  H     H_    0.650398 0.859253 0.375452 0.256344
H256  H     H_    0.701887 0.012693 0.332584 0.155938
H257  H     H_    0.739668 0.927536 0.400839 0.124857
H258  H     H_    0.667056 0.013674 0.403407 0.170038
H259  H     H_    0.726284 0.000309 0.377983 0.129530
H260  H     H_    0.056388 0.695095 0.624295 0.278275
H261  H     H_    0.170383 0.683726 0.598251 0.150493
H262  H     H_    0.166366 0.570953 0.600560 0.169918
H263  H     H_    0.198988 0.634037 0.624117 0.147914
H264  H     H_    0.142402 0.649534 0.375081 0.281410
H265  H     H_    0.077937 0.737673 0.401934 0.127788
H266  H     H_    0.987519 0.669726 0.402903 0.167479
H267  H     H_    0.728422 0.924231 0.315131 0.170518
H268  H     H_    0.007834 0.732249 0.378328 0.127137
H269  H     H_    0.304429 0.055337 0.624298 0.278149
H270  H     H_    0.315392 0.169092 0.598171 0.150559
H271  H     H_    0.428162 0.165287 0.600428 0.169737
H272  H     H_    0.365256 0.198077 0.623991 0.147770
H273  H     H_    0.351070 0.142472 0.375127 0.281160
H274  H     H_    0.263060 0.078103 0.402008 0.128010
H275  H     H_    0.330873 0.987574 0.402956 0.167649
H276  H     H_    0.268225 0.007975 0.378401 0.127384
H277  H     H_    0.943214 0.304888 0.624281 0.278393
H278  H     H_    0.047654 0.670823 0.673588 0.282504
H279  H     H_    0.829112 0.316105 0.598266 0.150542
H280  H     H_    0.833075 0.428889 0.600548 0.170024
H281  H     H_    0.800563 0.365912 0.624123 0.147558
H282  H     H_    0.859830 0.349594 0.375526 0.256086
H283  H     H_    0.928360 0.260644 0.400933 0.124733
H284  H     H_    0.014274 0.333531 0.403481 0.170367
H285  H     H_    0.001072 0.274094 0.378073 0.129972
H286  H     H_    0.197745 0.450250 0.122805 0.256287
H287  H     H_    0.186460 0.327222 0.100166 0.151686
H288  H     H_    0.073575 0.331330 0.102240 0.176838
N1    N     N_R   0.499523 0.998867 0.593432 -0.372044
N2    N     N_2   0.621783 0.905713 0.335027 -0.497120
N3    N     N_2   0.083802 0.632753 0.663492 -0.512478
N4    N     N_2   0.097037 0.623040 0.335707 -0.514611
N5    N     N_2   0.366973 0.083331 0.663453 -0.512473
N6    N     N_2   0.377237 0.097115 0.335738 -0.515081
N7    N     N_2   0.916119 0.367142 0.663497 -0.512536
N8    N     N_2   0.906106 0.378105 0.335086 -0.497413
N9    N     N_2   0.132372 0.418844 0.164742 -0.484637
N10   N     N_2   0.121689 0.405682 0.835072 -0.497467
N11   N     N_2   0.581190 0.132637 0.164831 -0.484751
N12   N     N_R   0.499073 0.999234 0.406437 -0.381515
N13   N     N_2   0.592076 0.124407 0.835076 -0.500167
N14   N     N_2   0.866198 0.582682 0.163343 -0.513584
N15   N     N_2   0.877367 0.597346 0.835735 -0.515027
N16   N     N_2   0.418309 0.865841 0.163232 -0.513230
N17   N     N_2   0.408424 0.875632 0.835166 -0.500481
N18   N     N_2   0.637238 0.929996 0.616968 -0.471835
N19   N     N_2   0.627296 0.913205 0.382782 -0.471040
N20   N     N_2   0.068912 0.637616 0.616967 -0.472373
N21   N     N_2   0.088428 0.627774 0.382719 -0.461741
N22   N     N_2   0.361823 0.067883 0.616943 -0.472160
N23   N     N_R   0.999511 0.500104 0.593447 -0.371710
N24   N     N_2   0.372810 0.088451 0.382755 -0.461648
N25   N     N_2   0.930615 0.362357 0.616962 -0.471831
N26   N     N_2   0.913715 0.372895 0.382845 -0.470975
N27   N     N_2   0.139157 0.432934 0.116987 -0.486607
N28   N     N_2   0.127434 0.413604 0.882822 -0.470915
N29   N     N_2   0.567716 0.139444 0.117064 -0.486941
N30   N     N_2   0.583020 0.130749 0.882809 -0.471510
N31   N     N_2   0.864225 0.570408 0.116725 -0.472998
N32   N     N_2   0.873189 0.589199 0.882759 -0.461622
N33   N     N_2   0.431436 0.863878 0.116633 -0.472622
N34   N     N_R   0.999497 0.501502 0.406459 -0.381663
N35   N     N_2   0.417865 0.869708 0.882904 -0.471731
N36   N     N_R   0.002950 0.502233 0.093529 -0.368510
N37   N     N_R   0.999494 0.500130 0.906480 -0.381496
N38   N     N_R   0.498929 0.003160 0.093521 -0.368504
N39   N     N_R   0.500351 0.000459 0.906483 -0.379234
N40   N     N_2   0.632778 0.916013 0.663515 -0.512508
O1    O     O_3   0.500000 0.000000 0.750000 -0.430565
O2    O     O_R   0.500000 0.069020 0.200420 -0.510265
O3    O     O_3   0.818079 0.640591 0.512563 -0.521541
O4    O     O_R   0.069020 0.500000 0.799580 -0.518057
O5    O     O_R   0.930980 0.500000 0.200420 -0.557835
O6    O     O_R   0.000000 0.569020 0.299580 -0.546472
O7    O     O_R   0.000000 0.430980 0.700420 -0.548759
O8    O     O_R   0.430980 0.000000 0.299580 -0.546109
O9    O     O_R   0.569020 0.000000 0.700420 -0.548686
O10   O     O_R   0.000000 0.430980 0.299580 -0.517605
O11   O     O_R   0.000000 0.569020 0.700420 -0.548186
O12   O     O_R   0.569020 0.000000 0.299580 -0.517995
O13   O     O_3   0.500000 0.000000 0.250000 -0.431298
O14   O     O_R   0.430980 0.000000 0.700420 -0.548772
O15   O     O_R   0.597490 0.833170 0.762730 -0.541312
O16   O     O_R   0.402510 0.166830 0.237270 -0.529595
O17   O     O_R   0.166830 0.597490 0.762730 -0.541977
O18   O     O_R   0.833170 0.402510 0.237270 -0.532001
O19   O     O_R   0.402510 0.166830 0.762730 -0.541591
O20   O     O_R   0.597490 0.833170 0.237270 -0.532098
O21   O     O_R   0.833170 0.402510 0.762730 -0.538232
O22   O     O_R   0.166830 0.597490 0.237270 -0.529639
O23   O     O_R   0.597490 0.166830 0.237270 -0.537035
O24   O     O_3   0.000000 0.500000 0.750000 -0.428004
O25   O     O_R   0.402510 0.833170 0.762730 -0.540719
O26   O     O_R   0.166830 0.402510 0.237270 -0.536640
O27   O     O_R   0.833170 0.597490 0.762730 -0.547512
O28   O     O_R   0.402510 0.833170 0.237270 -0.535641
O29   O     O_R   0.597490 0.166830 0.762730 -0.540738
O30   O     O_R   0.833170 0.597490 0.237270 -0.535820
O31   O     O_R   0.166830 0.402510 0.762730 -0.540014
O32   O     O_R   0.097490 0.333170 0.262730 -0.542029
O33   O     O_R   0.902510 0.666830 0.737270 -0.531708
O34   O     O_R   0.666830 0.097490 0.262730 -0.542120
O35   O     O_3   0.000000 0.500000 0.250000 -0.431311
O36   O     O_R   0.333170 0.902510 0.737270 -0.532488
O37   O     O_R   0.902510 0.666830 0.262730 -0.538382
O38   O     O_R   0.097490 0.333170 0.737270 -0.532071
O39   O     O_R   0.333170 0.902510 0.262730 -0.538127
O40   O     O_R   0.666830 0.097490 0.737270 -0.532387
O41   O     O_R   0.097490 0.666830 0.737270 -0.536340
O42   O     O_R   0.902510 0.333170 0.262730 -0.539909
O43   O     O_R   0.666830 0.902510 0.737270 -0.536077
O44   O     O_R   0.333170 0.097490 0.262730 -0.548514
O45   O     O_R   0.902510 0.333170 0.737270 -0.535713
O46   O     O_R   0.500000 0.069020 0.799580 -0.523502
O47   O     O_R   0.097490 0.666830 0.262730 -0.548429
O48   O     O_R   0.333170 0.097490 0.737270 -0.535991
O49   O     O_R   0.666830 0.902510 0.262730 -0.539807
O50   O     O_2   0.588978 0.116265 0.594165 -0.463877
O51   O     O_2   0.468097 0.854769 0.405819 -0.458467
O52   O     O_2   0.882075 0.589500 0.594206 -0.464083
O53   O     O_2   0.143978 0.470594 0.405912 -0.456754
O54   O     O_2   0.409941 0.881551 0.594066 -0.463126
O55   O     O_2   0.530301 0.143674 0.405906 -0.457574
O56   O     O_2   0.116886 0.410614 0.594062 -0.464019
O57   O     O_R   0.500000 0.930980 0.200420 -0.557700
O58   O     O_2   0.854983 0.532125 0.405866 -0.459388
O59   O     O_2   0.091771 0.620116 0.094020 -0.465076
O60   O     O_2   0.968383 0.355691 0.906016 -0.459679
O61   O     O_2   0.380654 0.091442 0.094039 -0.466224
O62   O     O_2   0.645431 0.972694 0.905960 -0.459214
O63   O     O_2   0.914790 0.383874 0.094410 -0.465745
O64   O     O_2   0.030852 0.644531 0.905810 -0.457644
O65   O     O_2   0.617656 0.915505 0.094377 -0.464788
O66   O     O_2   0.355263 0.028154 0.905840 -0.460117
O67   O     O_3   0.633094 0.187242 0.557816 -0.496795
O68   O     O_R   0.930980 0.500000 0.799580 -0.546319
O69   O     O_3   0.469259 0.770315 0.442089 -0.513492
O70   O     O_3   0.811051 0.633788 0.557851 -0.496762
O71   O     O_3   0.228389 0.473488 0.442187 -0.516251
O72   O     O_3   0.367481 0.809679 0.557668 -0.507391
O73   O     O_3   0.527746 0.227949 0.442201 -0.514775
O74   O     O_3   0.187749 0.366981 0.557632 -0.496783
O75   O     O_3   0.770608 0.529607 0.442142 -0.514554
O76   O     O_3   0.135821 0.690033 0.057504 -0.496924
O77   O     O_3   0.971112 0.271658 0.942341 -0.514667
O78   O     O_3   0.310667 0.135612 0.057534 -0.496913
O79   O     O_R   0.069020 0.500000 0.200420 -0.510170
O80   O     O_3   0.729343 0.974195 0.942295 -0.515423
O81   O     O_3   0.869371 0.313099 0.058130 -0.497001
O82   O     O_3   0.028633 0.729293 0.942031 -0.514830
O83   O     O_3   0.688738 0.870844 0.058081 -0.497061
O84   O     O_3   0.271179 0.027545 0.942134 -0.515294
O85   O     O_3   0.018899 0.728834 0.987459 -0.520159
O86   O     O_3   0.861567 0.320043 0.012870 -0.520861
O87   O     O_3   0.272127 0.018499 0.987555 -0.520257
O88   O     O_3   0.682115 0.863651 0.012810 -0.520038
O89   O     O_3   0.982543 0.272796 0.987721 -0.520271
O90   O     O_R   0.500000 0.930980 0.799580 -0.523151
O91   O     O_3   0.141448 0.682322 0.012219 -0.521085
O92   O     O_3   0.728337 0.984874 0.987675 -0.518983
O93   O     O_3   0.318331 0.141503 0.012250 -0.521016
O94   O     O_3   0.517413 0.226873 0.487620 -0.519528
O95   O     O_3   0.361867 0.816747 0.511972 -0.530444
O96   O     O_3   0.771476 0.518517 0.487555 -0.520640
O97   O     O_3   0.180900 0.361511 0.512331 -0.520949
O98   O     O_3   0.483300 0.770584 0.487350 -0.517776
O99   O     O_3   0.639374 0.180562 0.512537 -0.520378
O100  O     O_3   0.227355 0.484539 0.487653 -0.520481
Zn1   Zn    Zn3+2 0.599000 0.000000 0.730930 0.930252
Zn2   Zn    Zn3+2 0.901000 0.500000 0.769070 0.924395
Zn3   Zn    Zn3+2 0.500000 0.099000 0.230930 0.944153
Zn4   Zn    Zn3+2 0.500000 0.901000 0.769070 0.937820
Zn5   Zn    Zn3+2 0.901000 0.500000 0.230930 0.930100
Zn6   Zn    Zn3+2 0.099000 0.500000 0.769070 0.935702
Zn7   Zn    Zn3+2 0.500000 0.901000 0.230930 0.930527
Zn8   Zn    Zn3+2 0.500000 0.099000 0.769070 0.937536
Zn9   Zn    Zn3+2 0.401000 0.000000 0.269070 0.923633
Zn10  Zn    Zn3+2 0.000000 0.599000 0.730930 0.928424
Zn11  Zn    Zn3+2 0.000000 0.401000 0.269070 0.935314
Zn12  Zn    Zn3+2 0.401000 0.000000 0.730930 0.930140
Zn13  Zn    Zn3+2 0.599000 0.000000 0.269070 0.935055
Zn14  Zn    Zn3+2 0.000000 0.401000 0.730930 0.932310
Zn15  Zn    Zn3+2 0.000000 0.599000 0.269070 0.923298
Zn16  Zn    Zn3+2 0.099000 0.500000 0.230930 0.944560

loop_
_geom_bond_atom_site_label_1
_geom_bond_atom_site_label_2
_ccdc_geom_bond_type
C65   N36   S    
C198  H200  S    
C120  H275  S    
C109  H235  S    
C183  H163  S    
C202  H210  S    
C117  N20   S    
C215  O79   A    
C150  H78   S    
C219  C232  A    
H273  N24   S    
C79   C87   A    
C41   C67   A    
C63   N23   S    
C1    O90   A    
C36   N32   S    
C90   O77   S    
H282  N26   S    
C171  H131  S    
C265  O39   A    
C115  H254  S    
C203  C215  S    
C160  H105  S    
C125  N28   S    
C29   C64   A    
C97   N2    S    
C30   N18   S    
C68   O75   S    
C36   C66   A    
C128  N31   S    
C109  H237  S    
C56   N9    S    
C195  H193  S    
C196  H195  S    
C132  H34   S    
C71   C80   A    
C36   C53   A    
O27   Zn2   S    
C159  H102  S    
C59   N11   S    
H264  N21   S    
C102  H157  S    
O4    Zn6   S    
C186  H170  S    
C129  H23   S    
C38   C55   A    
C102  H135  S    
O24   Zn2   S    
C173  H138  S    
C166  H121  S    
C176  H147  S    
C98   H24   S    
C252  O43   A    
C187  O95   S    
C15   C85   A    
C240  O91   S    
C38   C69   A    
H229  N13   S    
C179  C248  S    
C170  O86   S    
C39   C65   A    
O1    Zn4   S    
O90   Zn4   S    
C193  H186  S    
C190  C237  S    
C46   C243  A    
C115  H252  S    
O7    Zn14  S    
H286  N27   S    
C128  H20   S    
C106  H221  S    
H238  N15   S    
C149  H75   S    
C125  H5    S    
C129  H22   S    
C40   C58   A    
C154  O78   S    
C19   O61   S    
C27   N24   S    
C252  O15   A    
C118  H266  S    
C174  H140  S    
C22   C93   A    
C221  C247  A    
C58   C205  A    
C44   N6    S    
C43   C168  A    
C131  H31   S    
C110  H241  S    
C49   N2    S    
C177  H148  S    
C224  C233  A    
C181  H156  S    
O25   Zn4   S    
C126  H9    S    
C167  H125  S    
C39   C56   A    
O13   Zn7   S    
C238  O88   S    
C144  H65   S    
C96   H112  S    
C242  O93   S    
O8    Zn9   S    
C259  O9    A    
C175  H144  S    
C154  C155  S    
C121  H279  S    
C142  H59   S    
C261  O23   A    
C66   N37   S    
C46   C84   A    
C152  O77   S    
C59   C206  A    
H247  N17   S    
C20   N39   A    
C111  H244  S    
C25   C95   A    
C163  O83   S    
C22   N37   A    
C180  H154  S    
C239  O89   S    
O1    Zn8   S    
C174  O88   S    
C188  H177  S    
C108  N13   S    
O20   Zn7   S    
C223  C232  A    
C75   C93   A    
C3    C274  T    
C127  H15   S    
C57   O74   S    
C156  H96   S    
C270  O67   S    
C77   C91   A    
C91   C113  A    
C89   C101  A    
C28   N25   S    
C17   C87   A    
C241  O92   S    
C210  C228  A    
C249  C270  A    
H255  N19   S    
C196  C197  S    
C200  O3    S    
C32   N20   S    
C139  C140  S    
H234  N2    S    
C60   C207  A    
C123  H288  S    
C200  H207  S    
C76   C94   A    
C263  O32   A    
C266  O29   A    
H233  N14   S    
C52   C203  A    
H220  N10   S    
C140  H53   S    
C132  H36   S    
C156  C158  S    
C275  C280  T    
C151  H83   S    
O5    Zn5   S    
C192  O97   S    
C172  O87   S    
C116  H257  S    
C167  O85   S    
C57   C85   A    
C185  H167  S    
C184  H166  S    
C163  H114  S    
C104  H213  S    
H17   N31   S    
H216  N9    S    
C3    C254  S    
C212  C239  A    
C54   C206  A    
C133  H37   S    
C100  H101  S    
C55   N17   S    
C28   C63   A    
C119  H271  S    
C187  C188  S    
H21   N32   S    
C147  H71   S    
C77   C228  A    
C200  C202  S    
C197  H198  S    
C30   C61   A    
C18   N37   A    
C193  H188  S    
C263  O26   A    
C188  H175  S    
C157  O84   S    
C108  H232  S    
C143  C144  S    
O46   Zn8   S    
O57   Zn7   S    
C21   C92   A    
C125  H7    S    
C16   N34   A    
C208  C213  A    
H278  N3    S    
H26   N33   S    
C64   N34   S    
C209  C212  A    
C254  O17   A    
C72   C85   A    
C162  H108  S    
C185  O94   S    
C167  C169  S    
C208  C225  A    
C139  H51   S    
C120  H274  S    
C110  H239  S    
C253  O16   A    
C22   O64   S    
C29   C47   A    
C169  H127  S    
C4    C273  T    
C237  O11   A    
C30   C48   A    
C261  O34   A    
C102  N6    S    
C168  C259  S    
C196  O99   S    
C2    C80   A    
H124  N6    S    
C8    N1    A    
C170  C171  S    
C74   C92   A    
C105  H218  S    
C170  H129  S    
C148  H74   S    
C158  H99   S    
C202  H208  S    
C189  C191  S    
C175  H142  S    
C174  C175  S    
O11   Zn10  S    
C121  H281  S    
C169  H126  S    
C162  H109  S    
C219  C224  A    
C27   C44   A    
C11   O53   S    
C146  C238  A    
C138  H48   S    
C221  C230  A    
C67   N38   S    
C264  O27   A    
C42   N30   S    
C218  C244  A    
C74   C87   A    
O16   Zn3   S    
C107  H226  S    
C107  H227  S    
C76   C89   A    
C108  H230  S    
C107  N11   S    
H30   N35   S    
C20   O62   S    
C277  C278  T    
C202  H209  S    
C164  H116  S    
C5    C252  S    
C129  H25   S    
C79   C240  A    
O35   Zn5   S    
C137  O70   S    
C181  O92   S    
C58   N10   S    
O41   Zn10  S    
C11   C82   A    
C216  C242  A    
C13   C251  A    
C138  H49   S    
C103  H179  S    
C192  H185  S    
C135  C234  A    
O28   Zn7   S    
C151  H81   S    
C140  H55   S    
O1    Zn1   S    
C220  C233  A    
C75   C225  A    
C133  H39   S    
H1    N40   S    
C264  O33   A    
C246  O97   S    
C116  H259  S    
O47   Zn15  S    
C106  H224  S    
C110  N15   S    
C18   C88   A    
C114  H249  S    
C123  N27   S    
C79   O76   S    
C104  H215  S    
C27   C62   A    
C217  C230  A    
C204  O4    A    
C257  O49   A    
C164  H117  S    
C268  C276  S    
C260  O47   A    
C216  C229  A    
C141  H56   S    
C54   N16   S    
C254  O41   A    
O79   Zn16  S    
C139  O71   S    
C101  C242  A    
C19   N38   A    
C187  H173  S    
C223  C250  A    
C178  H152  S    
C194  O98   S    
C267  O37   A    
C253  O44   A    
C98   H13   S    
C37   C54   A    
C259  O14   A    
C17   O59   S    
C194  H191  S    
C265  O28   A    
C218  C221  A    
C256  O19   A    
C182  H159  S    
C120  H276  S    
C5    C272  T    
C6    C271  T    
C95   C157  A    
C57   C246  A    
C93   C135  A    
C266  C269  S    
O42   Zn11  S    
C234  O85   S    
C25   N39   A    
C174  H141  S    
C117  H263  S    
C55   C207  A    
C158  H97   S    
C37   N33   S    
O24   Zn10  S    
C115  H253  S    
C24   C250  A    
C132  O67   S    
C39   N27   S    
C29   N26   S    
C169  H128  S    
C268  O38   A    
C248  O12   A    
C192  H184  S    
C260  O22   A    
C13   O70   S    
C200  H206  S    
C109  H236  S    
C37   C67   A    
C196  H196  S    
O1    Zn12  S    
C114  N17   S    
C103  N7    S    
C104  N8    S    
C23   C94   A    
C137  H47   S    
C186  H171  S    
C211  C214  A    
C152  C153  S    
C155  H94   S    
O35   Zn16  S    
C173  H137  S    
C150  C151  S    
C166  H122  S    
O34   Zn13  S    
C236  O87   S    
O48   Zn12  S    
C161  O82   S    
C215  O5    A    
C105  H219  S    
C48   C168  A    
C220  C223  A    
O21   Zn2   S    
C184  H164  S    
C10   O52   S    
C191  H182  S    
H242  N16   S    
C94   C146  A    
C127  N30   S    
H79   N5    S    
C255  C280  S    
C256  C279  S    
C31   C62   A    
C14   C84   A    
C213  C240  A    
C97   H245  S    
O44   Zn9   S    
C160  H104  S    
C161  C162  S    
C96   H212  S    
C18   O60   S    
O29   Zn8   S    
C56   C203  A    
C181  C182  S    
C106  H222  S    
C17   N36   A    
C109  N14   S    
C26   N22   S    
C90   C239  A    
O23   Zn3   S    
C26   C61   A    
C31   C49   A    
C92   C124  A    
C122  H283  S    
O13   Zn13  S    
C251  O3    S    
C130  H27   S    
C153  H87   S    
C13   C81   A    
H168  N7    S    
C68   C86   A    
C72   C233  A    
C44   C179  A    
C136  H43   S    
C6    C260  S    
C150  H80   S    
C1    O46   A    
C126  H10   S    
C156  O80   S    
C185  H169  S    
C263  C273  S    
C114  H248  S    
C144  H66   S    
C126  N29   S    
C210  C236  A    
C103  H201  S    
C175  H143  S    
C131  H32   S    
C72   C81   A    
C142  H60   S    
O39   Zn9   S    
O9    Zn1   S    
C194  C195  S    
C199  H205  S    
C111  H243  S    
C264  C272  S    
C40   C66   A    
C16   C86   A    
C237  O7    A    
C161  H107  S    
C255  O18   A    
O38   Zn14  S    
C159  O81   S    
C172  H136  S    
C145  C147  S    
C137  H45   S    
C159  H100  S    
O30   Zn5   S    
O24   Zn14  S    
C201  C226  S    
C20   C91   A    
O68   Zn2   S    
C100  H113  S    
C171  H132  S    
C24   O71   S    
C143  O73   S    
C134  H40   S    
O10   Zn11  S    
C258  O45   A    
C35   C83   A    
C154  H91   S    
C123  H287  S    
C111  H246  S    
C69   N39   S    
C243  O94   S    
C267  C277  S    
C118  N21   S    
C9    O51   S    
C134  H41   S    
C198  H202  S    
C12   C83   A    
C140  H54   S    
C102  H146  S    
C213  C227  A    
H4    N28   S    
C116  H258  S    
C159  C160  S    
C276  C279  T    
C25   O66   S    
C149  H77   S    
O19   Zn8   S    
C35   O72   S    
C173  H139  S    
O18   Zn5   S    
O17   Zn6   S    
C101  O78   S    
C70   C83   A    
C124  O81   S    
C99   N4    S    
C97   H256  S    
C88   C90   A    
C197  H197  S    
C112  O57   A    
C21   N36   A    
C193  H187  S    
C188  H176  S    
C47   N8    S    
C73   C82   A    
C99   H68   S    
C128  H19   S    
C167  H123  S    
C217  C222  A    
C149  H76   S    
C125  H6    S    
C177  H150  S    
C211  C229  A    
C184  H165  S    
H251  N18   S    
H277  N25   S    
C161  H106  S    
C178  C180  S    
C98   H2    S    
C157  C236  A    
C98   N3    S    
C245  O96   S    
C68   C245  A    
C33   C51   A    
C41   N29   S    
C199  H204  S    
C10   C81   A    
C110  H240  S    
C100  N5    S    
C153  H88   S    
C46   O73   S    
C177  H149  S    
C265  C271  S    
C9    N12   A    
C112  C206  S    
H35   N4    S    
C106  N10   S    
C119  N22   S    
C105  N9    S    
O33   Zn10  S    
C224  C251  A    
C11   N34   A    
C33   N21   S    
C185  C186  S    
C199  H203  S    
C60   N13   S    
C143  H62   S    
C210  C216  A    
C105  H217  S    
C170  H130  S    
C258  O21   A    
C45   N7    S    
C78   C270  A    
C50   C190  A    
C121  H280  S    
C52   N14   S    
C162  H110  S    
C53   N15   S    
C267  O30   A    
C100  H90   S    
C131  N35   S    
C165  H118  S    
C183  H162  S    
C76   C229  A    
C165  O84   S    
C180  H153  S    
C7    C258  S    
O14   Zn12  S    
C51   N4    S    
C209  C227  A    
H12   N30   S    
C117  H261  S    
O45   Zn14  S    
C152  H85   S    
C51   C201  A    
C180  H155  S    
C127  H16   S    
C96   N40   S    
C156  H95   S    
C122  H284  S    
C122  N26   S    
C23   N38   A    
C165  C166  S    
C121  N25   S    
C70   C78   A    
O24   Zn6   S    
C40   N28   S    
C163  C164  S    
C2    C247  A    
C247  O98   S    
O35   Zn11  S    
C248  O8    A    
C129  N32   S    
C209  C235  A    
O12   Zn13  S    
C154  H89   S    
C176  O89   S    
C191  H183  S    
C138  H50   S    
C103  H190  S    
C114  H250  S    
C195  H192  S    
C118  H265  S    
O2    Zn3   S    
C214  C241  A    
C152  H84   S    
C50   N3    S    
O22   Zn16  S    
C133  H38   S    
C108  H231  S    
C189  O96   S    
O6    Zn15  S    
C112  O2    A    
H269  N22   S    
C163  H111  S    
C148  O75   S    
C47   C201  A    
C198  O100  S    
C8    O50   S    
C144  H64   S    
C24   C82   A    
C34   C52   A    
C70   C231  A    
C124  C235  A    
C119  H272  S    
C244  O95   S    
C150  O76   S    
C147  H72   S    
C178  H151  S    
C197  H199  S    
C14   O55   S    
C53   C205  A    
C219  C245  A    
C136  H42   S    
C198  C199  S    
O32   Zn11  S    
C189  H178  S    
C214  C228  A    
C262  C274  S    
C257  C278  S    
C226  O6    A    
C155  H92   S    
C8    C78   A    
C21   O63   S    
C4    C253  S    
C1    C207  S    
H8    N29   S    
C183  O93   S    
C34   C65   A    
C15   O56   S    
C249  O99   S    
C26   C43   A    
O49   Zn13  S    
C139  H52   S    
C160  H103  S    
C73   C86   A    
C182  H160  S    
C28   C45   A    
C211  C238  A    
C204  O68   A    
C115  N18   S    
C12   O54   S    
C7    C269  T    
C145  H69   S    
C148  C149  S    
C41   C59   A    
C12   N1    A    
C99   H57   S    
C42   C60   A    
C132  C133  S    
C134  C136  S    
C165  H119  S    
C117  H262  S    
C166  H120  S    
C38   N35   S    
C77   C95   A    
C42   C69   A    
C148  H73   S    
C158  H98   S    
C171  H133  S    
C9    C80   A    
C104  H214  S    
C217  C243  A    
C183  C184  S    
C74   C227  A    
C19   C89   A    
C255  O42   A    
O15   Zn4   S    
C141  O72   S    
C45   C190  A    
C31   N19   S    
C226  O10   A    
C195  H194  S    
C194  H189  S    
O40   Zn1   S    
C134  O69   S    
C268  O31   A    
C181  H158  S    
C204  C205  S    
O13   Zn9   S    
C2    O69   S    
C32   C50   A    
C107  H228  S    
C113  O80   S    
C178  O91   S    
C99   H46   S    
C186  H172  S    
C176  C177  S    
C266  O40   A    
C222  C231  A    
O36   Zn12  S    
C113  C241  A    
C155  H93   S    
O35   Zn15  S    
O37   Zn15  S    
C164  H115  S    
H260  N20   S    
C212  C225  A    
C235  O86   S    
C127  H14   S    
C176  H145  S    
C208  C234  A    
C15   N23   A    
C172  C173  S    
C43   N5    S    
C71   C84   A    
C191  H181  S    
C220  C246  A    
C145  O74   S    
C14   N12   A    
C48   N40   S    
C151  H82   S    
C141  H58   S    
C32   C63   A    
C49   C179  A    
C145  H67   S    
H211  N8    S    
C10   N23   A    
O43   Zn1   S    
C128  H18   S    
C261  C275  S    
C257  O20   A    
C111  N16   S    
C172  H134  S    
C137  C138  S    
C96   H223  S    
C130  N33   S    
C62   N12   S    
C23   O65   S    
C192  C193  S    
C61   N1    S    
C123  H3    S    
C141  C142  S    
C16   O58   S    
C256  O48   A    
C119  H270  S    
C118  H268  S    
C147  H70   S    
C130  H28   S    
C153  H86   S    
C33   C64   A    
C131  H33   S    
C71   C230  A    
H225  N11   S    
C146  O83   S    
C136  H44   S    
O26   Zn16  S    
C34   N31   S    
C122  H285  S    
C189  H180  S    
C135  O82   S    
O31   Zn6   S    
C218  C231  A    
O13   Zn3   S    
C187  H174  S    
C126  H11   S    
C222  C249  A    
C75   C88   A    
C35   C244  A    
C143  H63   S    
C116  N19   S    
C262  O25   A    
C182  H161  S    
C73   C232  A    
C262  O36   A    
C142  H61   S    
C250  O100  S    
C97   H267  S    
C130  H29   S    
C120  N24   S    
