data_mof_unit_50156.cif
_audit_creation_date              2012-12-10T19:32:03-0500
_audit_creation_method            fapswitch 2.2
_symmetry_space_group_name_H-M    P1
_symmetry_Int_Tables_number       1
_space_group_crystal_system       triclinic
_cell_length_a                    18.506585
_cell_length_b                    18.70505
_cell_length_c                    18.803041
_cell_angle_alpha                 109.682817
_cell_angle_beta                  109.394173
_cell_angle_gamma                 108.968646
_cell_volume                      5033.09947836

loop_
_atom_site_label
_atom_site_type_symbol
_atom_type_description
_atom_site_fract_x
_atom_site_fract_y
_atom_site_fract_z
_atom_type_partial_charge
C1    C     C_R   0.378319 0.380246 0.499089 0.929500
C2    C     C_R   0.263445 0.183154 0.507642 0.109842
C3    C     C_3   0.273716 0.112904 0.450851 0.296048
C4    C     C_R   0.619176 0.498189 0.620456 0.874536
C5    C     C_3   0.339173 0.183270 0.446359 -0.443314
C6    C     C_R   0.269573 0.436303 0.226586 0.085587
C7    C     C_R   0.304432 0.494645 0.314167 -0.309066
C8    C     C_R   0.266894 0.547951 0.336835 0.371751
C9    C     C_R   0.211564 0.556111 0.271933 0.361238
C10   C     C_R   0.183576 0.501194 0.184570 -0.262775
C11   C     C_R   0.208118 0.437947 0.162519 0.028952
C12   C     C_3   0.807248 0.499530 0.809387 0.025638
C13   C     C_3   0.246910 0.419450 0.104912 -0.490740
C14   C     C_3   0.314733 0.417555 0.175745 -0.404558
C15   C     C_R   0.674813 0.683274 0.422783 0.042014
C16   C     C_R   0.620693 0.620002 0.500538 0.925402
C17   C     C_R   0.685546 0.686718 0.500657 -0.156629
C18   C     C_R   0.754458 0.760345 0.579748 -0.327152
C19   C     C_R   0.820766 0.824019 0.580402 0.489661
C20   C     C_R   0.812274 0.815782 0.500353 -0.269356
C21   C     C_R   0.736298 0.748190 0.422186 0.055179
C22   C     C_3   0.727214 0.683528 0.341395 0.310893
C23   C     C_3   0.846883 0.581010 0.799796 -0.430473
C24   C     C_3   0.660436 0.612461 0.343753 -0.463929
C25   C     C_R   0.997617 0.380115 0.876921 0.876770
C26   C     C_R   0.876241 0.500736 0.877468 0.864894
C27   C     C_R   0.995871 0.620156 0.116015 0.970210
C28   C     C_R   0.377272 0.498977 0.379362 0.936250
C29   C     C_R   0.118061 0.499574 0.117109 0.961518
C30   C     C_R   0.998368 0.119035 0.619106 0.944553
C31   C     C_R   0.120433 0.117884 0.498333 0.886875
C32   C     C_R   0.001109 0.880132 0.380752 0.867191
C33   C     C_R   0.879553 0.879005 0.498811 0.915641
C34   C     C_3   0.733442 0.499632 0.832104 0.371051
C35   C     C_R   0.983830 0.236564 0.810156 -0.076889
C36   C     C_R   0.000926 0.315644 0.812071 -0.266070
C37   C     C_R   0.027727 0.333580 0.754758 0.508624
C38   C     C_R   0.027554 0.268126 0.691188 -0.313053
C39   C     C_R   0.000400 0.186269 0.684684 -0.127748
C40   C     C_3   0.697964 0.417133 0.649056 -0.414878
C41   C     C_R   0.983910 0.172442 0.747020 0.022875
C42   C     C_3   0.906012 0.100255 0.733803 -0.512242
C43   C     C_3   0.904304 0.170441 0.802674 0.365625
C44   C     C_R   0.019787 0.690685 0.262422 -0.024670
C45   C     C_R   0.324100 0.246341 0.504727 -0.026990
C46   C     C_R   0.997965 0.687447 0.182668 -0.214719
C47   C     C_R   0.994068 0.757980 0.173289 0.448734
C48   C     C_R   0.995515 0.822513 0.240129 -0.357415
C49   C     C_R   0.006688 0.818709 0.315860 -0.220258
C50   C     C_R   0.024431 0.755996 0.328435 0.124566
C51   C     C_3   0.982512 0.696146 0.356102 0.327332
C52   C     C_3   0.766658 0.415540 0.721293 0.262487
C53   C     C_3   0.978283 0.623676 0.283617 -0.493777
C54   C     C_3   0.774616 0.581615 0.730702 -0.444985
C55   C     C_3   0.660759 0.495791 0.758144 -0.432151
C56   C     C_R   0.314233 0.316557 0.503477 -0.211489
C57   C     C_3   0.686610 0.497763 0.687999 0.064690
C58   C     C_3   0.757303 0.557584 0.975148 0.101491
C59   C     C_3   0.664674 0.535293 0.961598 -0.402690
C60   C     C_3   0.648803 0.505063 0.023569 -0.946213
C61   C     C_3   0.278331 0.463335 0.612911 0.123510
C62   C     C_3   0.209602 0.452339 0.642684 -0.398653
C63   C     C_3   0.246189 0.529605 0.731654 -0.936252
C64   C     C_3   0.257281 0.997057 0.475811 0.093399
C65   C     C_3   0.302425 0.970687 0.538464 -0.353047
C66   C     C_3   0.239644 0.881386 0.519398 -0.882882
C67   C     C_R   0.247279 0.328909 0.516560 0.469280
C68   C     C_3   0.241822 0.552930 0.449301 0.152890
C69   C     C_3   0.156339 0.557152 0.428556 -0.344127
C70   C     C_3   0.109272 0.518578 0.470429 -0.984033
C71   C     C_3   0.233485 0.692024 0.295783 0.091804
C72   C     C_3   0.318576 0.755690 0.383465 -0.318868
C73   C     C_3   0.366411 0.842585 0.388923 -0.984561
C74   C     C_3   0.941349 0.871776 0.710220 0.098408
C75   C     C_3   0.942328 0.903331 0.797068 -0.349170
C76   C     C_3   0.990782 0.873444 0.853219 -0.986347
C77   C     C_3   0.746880 0.727077 0.244600 0.095179
C78   C     C_R   0.181379 0.260812 0.511204 -0.286764
C79   C     C_3   0.701059 0.736768 0.167090 -0.319325
C80   C     C_3   0.765351 0.777851 0.140166 -0.962442
C81   C     C_3   0.758630 0.282769 0.707854 0.138452
C82   C     C_3   0.720703 0.227057 0.609739 -0.398829
C83   C     C_3   0.752012 0.160355 0.590283 -0.958399
C84   C     C_3   0.977210 0.414268 0.706265 0.067813
C85   C     C_3   0.988515 0.431200 0.635591 -0.330795
C86   C     C_3   0.908280 0.431285 0.577201 -0.994101
C87   C     C_3   0.001149 0.186003 0.935323 0.129223
C88   C     C_3   0.999123 0.152824 0.998999 -0.335923
C89   C     C_R   0.187709 0.186219 0.502622 -0.214203
C90   C     C_3   0.091190 0.177069 0.063160 -0.985051
C91   C     C_3   0.029059 0.836789 0.105099 0.110727
C92   C     C_3   0.970782 0.873591 0.072199 -0.336260
C93   C     C_3   0.025894 0.967963 0.097156 -1.002425
C94   C     C_3   0.997889 0.682699 0.477088 0.094597
C95   C     C_3   0.064517 0.710449 0.568824 -0.313648
C96   C     C_3   0.019383 0.672043 0.612033 -1.000120
H1    H     H_    0.719762 0.419256 0.600884 0.154679
H2    H     H_    0.772170 0.505034 0.977337 0.151223
H3    H     H_    0.073886 0.973461 0.073426 0.267296
H4    H     H_    0.984928 0.873538 0.232154 0.179900
H5    H     H_    0.960968 0.610153 0.437325 0.133977
H6    H     H_    0.951383 0.707372 0.481973 0.126684
H7    H     H_    0.112915 0.688347 0.565856 0.231623
H8    H     H_    0.100681 0.782790 0.608889 0.219023
H9    H     H_    0.971817 0.694651 0.617148 0.257006
H10   H     H_    0.069418 0.693287 0.678428 0.269642
H11   H     H_    0.984096 0.599767 0.573664 0.273535
H12   H     H_    0.917277 0.689583 0.345965 0.011459
H13   H     H_    0.656709 0.593802 0.972698 0.236371
H14   H     H_    0.022020 0.598143 0.307256 0.239464
H15   H     H_    0.909857 0.572941 0.231077 0.165058
H16   H     H_    0.792721 0.586008 0.680835 0.163259
H17   H     H_    0.897365 0.580164 0.780302 0.168901
H18   H     H_    0.649657 0.551506 0.785340 0.213078
H19   H     H_    0.614244 0.482468 0.893837 0.218313
H20   H     H_    0.649506 0.442603 0.008281 0.263506
H21   H     H_    0.583680 0.494811 0.016466 0.270871
H22   H     H_    0.700473 0.554606 0.091863 0.263082
H23   H     H_    0.880033 0.642197 0.862927 0.237280
H24   H     H_    0.305857 0.529280 0.620155 0.154879
H25   H     H_    0.334891 0.461459 0.656880 0.128930
H26   H     H_    0.150182 0.446569 0.594692 0.233107
H27   H     H_    0.768872 0.640298 0.761528 0.202604
H28   H     H_    0.190051 0.392184 0.647529 0.217205
H29   H     H_    0.306740 0.537592 0.780352 0.264141
H30   H     H_    0.196721 0.518242 0.753388 0.298968
H31   H     H_    0.261635 0.590416 0.728028 0.252284
H32   H     H_    0.124953 0.265555 0.512481 0.164672
H33   H     H_    0.235571 0.949301 0.408127 0.123198
H34   H     H_    0.199065 0.996385 0.480722 0.175877
H35   H     H_    0.359886 0.969179 0.532928 0.233259
H36   H     H_    0.326754 0.019858 0.606336 0.229297
H37   H     H_    0.186482 0.884223 0.533136 0.298796
H38   H     H_    0.314858 0.176327 0.380487 0.166245
H39   H     H_    0.276045 0.861371 0.561593 0.250117
H40   H     H_    0.210143 0.831834 0.450354 0.277674
H41   H     H_    0.213282 0.063161 0.386380 0.032833
H42   H     H_    0.407843 0.195663 0.478256 0.219835
H43   H     H_    0.282097 0.583812 0.520898 0.161838
H44   H     H_    0.227328 0.483704 0.421386 0.148432
H45   H     H_    0.171354 0.626137 0.452824 0.256682
H46   H     H_    0.111598 0.519796 0.357050 0.232391
H47   H     H_    0.094054 0.449703 0.447441 0.285399
H48   H     H_    0.046641 0.520433 0.452384 0.266212
H49   H     H_    0.923268 0.056032 0.753914 0.243796
H50   H     H_    0.150971 0.556950 0.542397 0.265462
H51   H     H_    0.633570 0.356177 0.613492 0.201493
H52   H     H_    0.193108 0.724217 0.285585 0.162965
H53   H     H_    0.249585 0.678276 0.242318 0.141628
H54   H     H_    0.303144 0.766871 0.437157 0.252127
H55   H     H_    0.363189 0.727618 0.391643 0.240239
H56   H     H_    0.385714 0.832789 0.337885 0.268815
H57   H     H_    0.426740 0.887966 0.453597 0.273781
H58   H     H_    0.323465 0.872380 0.380125 0.266183
H59   H     H_    0.201738 0.354861 0.044646 0.192884
H60   H     H_    0.845371 0.177457 0.775519 0.108176
H61   H     H_    0.275368 0.474709 0.094413 0.214479
H62   H     H_    0.308332 0.351768 0.156417 0.199957
H63   H     H_    0.382695 0.471780 0.206525 0.199516
H64   H     H_    0.759095 0.765931 0.640521 0.163750
H65   H     H_    0.009945 0.904420 0.723140 0.166346
H66   H     H_    0.918591 0.800334 0.679095 0.113540
H67   H     H_    0.975211 0.975749 0.832651 0.222677
H68   H     H_    0.873837 0.877463 0.785355 0.223501
H69   H     H_    0.957898 0.801073 0.819610 0.264979
H70   H     H_    0.990011 0.897257 0.915334 0.277437
H71   H     H_    0.820112 0.417400 0.705632 0.045180
H72   H     H_    0.060211 0.900139 0.867669 0.265547
H73   H     H_    0.775117 0.684202 0.226399 0.111858
H74   H     H_    0.800543 0.792243 0.299213 0.188388
H75   H     H_    0.647215 0.671618 0.111293 0.230615
H76   H     H_    0.671631 0.778498 0.184498 0.226531
H77   H     H_    0.816159 0.845536 0.193007 0.278935
H78   H     H_    0.729259 0.779829 0.081089 0.260288
H79   H     H_    0.798074 0.739109 0.125417 0.274553
H80   H     H_    0.787776 0.678227 0.351605 0.011165
H81   H     H_    0.592229 0.578765 0.288733 0.217818
H82   H     H_    0.597580 0.435059 0.727901 0.127444
H83   H     H_    0.739135 0.238737 0.733576 0.169447
H84   H     H_    0.831654 0.318335 0.742711 0.096686
H85   H     H_    0.647658 0.192250 0.576943 0.241180
H86   H     H_    0.741383 0.269396 0.582763 0.208358
H87   H     H_    0.824944 0.193587 0.622822 0.262461
H88   H     H_    0.725075 0.122274 0.519064 0.276163
H89   H     H_    0.728777 0.114632 0.613173 0.260060
H90   H     H_    0.683713 0.568415 0.357888 0.161777
H91   H     H_    0.972110 0.468311 0.748560 0.163918
H92   H     H_    0.913773 0.353047 0.674479 0.111364
H93   H     H_    0.702196 0.438513 0.833844 0.119782
H94   H     H_    0.047804 0.495350 0.666166 0.231160
H95   H     H_    0.997635 0.379592 0.595162 0.219821
H96   H     H_    0.848053 0.367642 0.545660 0.264555
H97   H     H_    0.917589 0.441996 0.525562 0.267002
H98   H     H_    0.899421 0.484212 0.615846 0.261100
H99   H     H_    0.045967 0.280366 0.645686 0.150600
H100  H     H_    0.847965 0.066654 0.667915 0.181209
H101  H     H_    0.040545 0.258448 0.972487 0.151981
H102  H     H_    0.032769 0.158672 0.901191 0.132916
H103  H     H_    0.970025 0.181331 0.035685 0.232999
H104  H     H_    0.805855 0.616510 0.039883 0.176487
H105  H     H_    0.957221 0.080650 0.962143 0.225151
H106  H     H_    0.120946 0.147846 0.027964 0.264848
H107  H     H_    0.087290 0.152066 0.108346 0.275965
H108  H     H_    0.133840 0.248952 0.101907 0.277806
H109  H     H_    0.060736 0.825568 0.064657 0.153918
H110  H     H_    0.084229 0.885492 0.172958 0.115690
H111  H     H_    0.929341 0.832962 0.000230 0.226918
H112  H     H_    0.926068 0.870869 0.099835 0.230525
H113  H     H_    0.062196 0.010542 0.168973 0.267205
H114  H     H_    0.982126 0.990833 0.067681 0.274579
O1    O     O_R   0.408690 0.356690 0.448570 -0.628558
O2    O     O_R   0.947510 0.091650 0.539220 -0.625830
O3    O     O_R   0.143610 0.091630 0.552030 -0.625576
O4    O     O_R   0.408080 0.460090 0.551420 -0.628014
O5    O     O_R   0.039620 0.091690 0.448080 -0.620727
O6    O     O_R   0.052490 0.908450 0.460880 -0.631426
O7    O     O_R   0.948500 0.908500 0.356930 -0.648361
O8    O     O_R   0.960380 0.908410 0.552020 -0.601360
O9    O     O_R   0.856390 0.908470 0.448070 -0.630462
O10   O     O_R   0.592400 0.448300 0.540680 -0.634251
O11   O     O_R   0.591790 0.551700 0.643540 -0.638463
O12   O     O_R   0.049530 0.460080 0.906210 -0.578380
O13   O     O_R   0.591920 0.539910 0.448580 -0.629591
O14   O     O_R   0.591310 0.643310 0.551430 -0.618614
O15   O     O_R   0.408210 0.448300 0.356460 -0.627521
O16   O     O_R   0.407600 0.551700 0.459320 -0.585478
O17   O     O_R   0.946090 0.356720 0.906270 -0.628364
O18   O     O_3   0.768738 0.576754 0.911643 -0.638963
O19   O     O_3   0.239775 0.401932 0.523832 -0.663822
O20   O     O_3   0.317335 0.081089 0.498551 -0.613621
O21   O     O_3   0.292166 0.600946 0.422434 -0.627764
O22   O     O_3   0.182857 0.615702 0.294533 -0.650850
O23   O     O_R   0.853510 0.448360 0.905260 -0.630679
O24   O     O_3   0.891433 0.896452 0.658015 -0.646565
O25   O     O_3   0.685521 0.691372 0.268480 -0.613134
O26   O     O_3   0.724107 0.339740 0.725585 -0.647526
O27   O     O_3   0.052165 0.413638 0.758714 -0.630343
O28   O     O_3   0.913897 0.159660 0.876336 -0.620048
O29   O     O_3   0.976411 0.755192 0.094136 -0.632255
O30   O     O_3   0.043327 0.718510 0.439838 -0.621625
O31   O     O_R   0.956950 0.551730 0.905200 -0.638372
O32   O     O_R   0.945130 0.540000 0.088470 -0.642721
O33   O     O_R   0.048570 0.643360 0.088400 -0.611069
O34   O     O_R   0.037700 0.448350 0.089480 -0.612328
O35   O     O_R   0.141150 0.551720 0.089410 -0.648679
O36   O     O_R   0.051500 0.091600 0.643170 -0.609056
Zn1   Zn    Zn3+2 0.500410 0.430960 0.431320 0.927180
Zn2   Zn    Zn3+2 0.499590 0.569040 0.568680 0.943989
Zn3   Zn    Zn3+2 0.928260 0.431020 0.997380 0.954926
Zn4   Zn    Zn3+2 0.066400 0.569060 0.997290 0.957820
Zn5   Zn    Zn3+2 0.069430 0.000010 0.569450 0.945141
Zn6   Zn    Zn3+2 0.930570 0.000090 0.430650 0.933105

loop_
_geom_bond_atom_site_label_1
_geom_bond_atom_site_label_2
_ccdc_geom_bond_type
C53   H14   S    
O15   Zn1   S    
C59   C60   S    
C87   C88   S    
C19   O24   S    
C1    O1    A    
O8    Zn5   S    
C95   C96   S    
C58   H2    S    
C62   H26   S    
C96   H9    S    
C78   H32   S    
C91   H110  S    
C62   H28   S    
C81   C82   S    
C26   O31   A    
O23   Zn3   S    
C7    C8    A    
C39   C41   A    
C71   H53   S    
C33   O8    A    
C12   C23   S    
C58   H104  S    
C70   H47   S    
C62   C63   S    
C14   H62   S    
C9    O22   S    
C88   H103  S    
C61   H25   S    
C36   C37   A    
C1    C56   S    
C80   H77   S    
C60   H20   S    
C52   H71   S    
C30   O2    A    
C38   C39   A    
C8    O21   S    
C32   C49   S    
C6    C14   S    
C61   C62   S    
O1    Zn1   S    
C4    O11   A    
C77   O25   S    
O35   Zn4   S    
C38   H99   S    
C24   H90   S    
C18   C19   A    
C41   C42   S    
C79   H75   S    
C13   H59   S    
C69   H46   S    
C65   H35   S    
C21   C22   S    
C44   C53   S    
O14   Zn2   S    
C52   O26   S    
C35   C36   A    
C94   H5    S    
C44   C46   A    
C8    C9    A    
C4    O10   A    
C73   H58   S    
C83   H88   S    
C61   O19   S    
C71   O22   S    
C76   H70   S    
C51   O30   S    
C70   H50   S    
O7    Zn6   S    
C88   H105  S    
C74   O24   S    
C35   C43   S    
C9    C10   A    
C93   H3    S    
C93   H113  S    
C32   O7    A    
C45   C56   A    
C68   O21   S    
O17   Zn3   S    
C53   H15   S    
C33   O9    A    
C71   H52   S    
C34   C55   S    
C78   C89   A    
C87   O28   S    
C13   C14   S    
C61   H24   S    
C94   C95   S    
C67   C78   A    
C81   H84   S    
C3    O20   S    
C13   H61   S    
C91   H109  S    
C95   H7    S    
C50   C51   S    
C90   H108  S    
O36   Zn5   S    
C77   C79   S    
C2    C45   A    
C5    H38   S    
C48   H4    S    
C74   C75   S    
C54   H16   S    
C1    O4    A    
C5    H42   S    
C18   H64   S    
C84   C85   S    
C81   H83   S    
O34   Zn3   S    
C28   O16   A    
C91   C92   S    
C74   H66   S    
C68   C69   S    
C84   O27   S    
O13   Zn1   S    
C85   H94   S    
C40   C52   S    
C5    C45   S    
C25   O17   A    
C7    C28   S    
C22   O25   S    
C12   C26   S    
C75   H68   S    
C51   C53   S    
C79   H76   S    
C4    C57   S    
C2    C89   A    
C34   O18   S    
C75   C76   S    
C37   C38   A    
C92   H112  S    
C43   O28   S    
C23   H17   S    
C66   H37   S    
C37   O27   S    
C47   C48   A    
C82   H85   S    
C25   O12   A    
C66   H39   S    
C72   H55   S    
C3    C5    S    
C17   C18   A    
C81   O26   S    
C83   H87   S    
C76   H69   S    
C20   C21   A    
C12   C34   S    
C60   H22   S    
C24   H81   S    
C67   O19   S    
C85   C86   S    
C63   H29   S    
C76   H72   S    
C47   O29   S    
C20   C33   S    
C42   H100  S    
C27   C46   S    
C94   O30   S    
C15   C24   S    
O11   Zn2   S    
O10   Zn1   S    
C88   C90   S    
C51   H12   S    
C72   H54   S    
O9    Zn6   S    
C55   C57   S    
C73   H56   S    
C60   H21   S    
O5    Zn6   S    
C55   H82   S    
C66   H40   S    
C16   O14   A    
C54   H27   S    
O2    Zn6   S    
C42   C43   S    
C87   H101  S    
C91   O29   S    
C43   H60   S    
C27   O32   A    
O12   Zn4   S    
C6    C11   A    
C65   H36   S    
C58   O18   S    
C95   H8    S    
C26   O23   A    
C23   C54   S    
C90   H107  S    
C44   C50   A    
C15   C17   A    
C77   H73   S    
C96   H10   S    
C46   C47   A    
C48   C49   A    
C40   C57   S    
C30   O36   A    
C40   H51   S    
O32   Zn3   S    
C29   O35   A    
C96   H11   S    
C34   H93   S    
O31   Zn4   S    
C80   H79   S    
C64   H34   S    
C72   C73   S    
C16   O13   A    
C27   O33   A    
C28   O15   A    
C74   H65   S    
C22   H80   S    
O16   Zn2   S    
C6    C7    A    
C31   O3    A    
C55   H18   S    
C31   C89   S    
C85   H95   S    
C56   C67   A    
C82   H86   S    
C70   H48   S    
C14   H63   S    
C64   C65   S    
C19   C20   A    
C23   H23   S    
C2    C3    S    
C12   C52   S    
C80   H78   S    
C71   C72   S    
C86   H97   S    
C92   H111  S    
C86   H98   S    
C64   O20   S    
C11   C13   S    
C10   C29   S    
C16   C17   S    
C75   H67   S    
O6    Zn5   S    
C3    H41   S    
C92   C93   S    
C59   H13   S    
C29   O34   A    
C30   C39   S    
O3    Zn5   S    
C22   C24   S    
C65   C66   S    
C84   H92   S    
C69   C70   S    
C35   C41   A    
C58   C59   S    
C86   H96   S    
C63   H30   S    
C68   H44   S    
C10   C11   A    
C25   C36   S    
C79   C80   S    
C32   O6    A    
C15   C21   A    
C40   H1    S    
C31   O5    A    
C64   H33   S    
C94   H6    S    
C59   H19   S    
C49   C50   A    
C68   H43   S    
C73   H57   S    
C93   H114  S    
O33   Zn4   S    
C83   H89   S    
C84   H91   S    
O4    Zn2   S    
C87   H102  S    
C82   C83   S    
C77   H74   S    
C42   H49   S    
C69   H45   S    
C63   H31   S    
C90   H106  S    
C54   C57   S    
