data_mof_unit_62628.cif
_audit_creation_date              2012-12-10T19:40:48-0500
_audit_creation_method            fapswitch 2.2
_symmetry_space_group_name_H-M    P1
_symmetry_Int_Tables_number       1
_space_group_crystal_system       triclinic
_cell_length_a                    18.402802
_cell_length_b                    18.390065
_cell_length_c                    18.408203
_cell_angle_alpha                 119.880741
_cell_angle_beta                  119.990164
_cell_angle_gamma                 89.999631
_cell_volume                      4413.77137037

loop_
_atom_site_label
_atom_site_type_symbol
_atom_type_description
_atom_site_fract_x
_atom_site_fract_y
_atom_site_fract_z
_atom_type_partial_charge
Br1   Br    Br    0.136142 0.912498 0.433350 -0.526254
Br2   Br    Br    0.646634 0.035712 0.887615 -0.491789
C1    C     C_R   0.360152 0.139950 0.500098 0.815729
C2    C     C_3   0.723844 0.783281 0.360172 -0.466699
C3    C     C_R   0.213323 0.779976 0.441464 0.090512
C4    C     C_R   0.639940 0.860085 0.500132 0.800848
C5    C     C_R   0.305415 0.804239 0.500726 -0.080666
C6    C     C_R   0.343961 0.771846 0.561897 -0.196941
C7    C     C_R   0.289941 0.717600 0.561701 -0.214886
C8    C     C_R   0.196456 0.694661 0.500133 -0.058488
C9    C     C_R   0.161494 0.727353 0.440731 0.068387
C10   C     C_3   0.077157 0.730535 0.367499 -0.496691
C11   C     C_3   0.136275 0.790918 0.368457 0.116960
C12   C     C_2   0.304717 0.802415 0.112183 -0.294131
C13   C     C_R   0.213489 0.161716 0.433199 0.133442
C14   C     C_R   0.305398 0.196381 0.501960 -0.073969
C15   C     C_R   0.343791 0.289617 0.574329 -0.222857
C16   C     C_R   0.639948 0.139816 0.499942 0.805551
C17   C     C_R   0.289784 0.343708 0.574392 -0.221611
C18   C     C_R   0.196496 0.305443 0.502129 -0.076389
C19   C     C_R   0.161689 0.213606 0.433374 0.124915
C20   C     C_3   0.077990 0.137556 0.342863 -0.466157
C21   C     C_3   0.137132 0.078286 0.342531 -0.440837
C22   C     C_R   0.732710 0.284052 0.947561 0.090782
C23   C     C_R   0.725295 0.777225 0.438592 0.130913
C24   C     C_R   0.690879 0.193038 0.890514 -0.165301
C25   C     C_R   0.703625 0.157469 0.948074 0.266306
C26   C     C_R   0.759340 0.213059 0.056424 -0.253312
C27   C     C_R   0.802386 0.304491 0.110337 -0.138147
C28   C     C_R   0.360167 0.860182 0.500219 0.825827
C29   C     C_R   0.785262 0.336836 0.051502 0.135488
C30   C     C_3   0.810509 0.417371 0.057241 -0.466905
C31   C     C_3   0.750828 0.357461 0.939079 -0.457508
C32   C     C_R   0.724471 0.286612 0.562990 0.131838
C33   C     C_R   0.695535 0.194508 0.499036 -0.082492
C34   C     C_R   0.695389 0.804325 0.500851 -0.082046
C35   C     C_R   0.722621 0.155877 0.432504 -0.218861
C36   C     C_R   0.776650 0.209917 0.432500 -0.215698
C37   C     C_R   0.804505 0.303498 0.499027 -0.083565
C38   C     C_R   0.776298 0.338468 0.562976 0.130986
C39   C     C_3   0.780679 0.422734 0.644358 -0.470368
C40   C     C_R   0.637803 0.138560 0.777984 0.836353
C41   C     C_3   0.721491 0.363495 0.644371 -0.475351
C42   C     C_R   0.140028 0.639748 0.499933 0.811503
C43   C     C_R   0.860136 0.359967 0.499927 0.807299
C44   C     C_R   0.860099 0.639853 0.500016 0.809269
C45   C     C_R   0.721351 0.775185 0.565437 -0.216304
C46   C     C_R   0.140056 0.360172 0.500203 0.805638
C47   C     C_R   0.861042 0.361130 0.222280 0.819840
C48   C     C_R   0.138463 0.638882 0.777013 0.854168
C49   C     C_R   0.361471 0.861055 0.222988 0.845819
C50   C     C_2   0.281380 0.720225 0.943756 -0.158724
C51   C     C_2   0.192523 0.697479 0.887826 -0.294001
C52   C     C_2   0.337638 0.779521 0.056240 -0.159710
C53   C     C_R   0.775367 0.721122 0.565374 -0.222185
C54   C     C_R   0.804351 0.695300 0.500737 -0.081675
C55   C     C_R   0.777140 0.725363 0.438548 0.130611
C56   C     C_3   0.783063 0.724055 0.360149 -0.469405
H1    H     H_    0.315045 0.695774 0.906274 0.176913
H2    H     H_    0.033033 0.126594 0.362755 0.221423
H3    H     H_    0.156702 0.722797 0.921970 0.150298
H4    H     H_    0.046534 0.140530 0.275226 0.208701
H5    H     H_    0.126184 0.032995 0.361995 0.255405
H6    H     H_    0.139736 0.047191 0.274733 0.201766
H7    H     H_    0.768375 0.184348 0.098165 0.203694
H8    H     H_    0.784610 0.469336 0.091320 0.208468
H9    H     H_    0.882347 0.440621 0.090473 0.198641
H10   H     H_    0.690428 0.374828 0.904778 0.210835
H11   H     H_    0.788428 0.346387 0.904525 0.199227
H12   H     H_    0.656354 0.750054 0.287139 0.207304
H13   H     H_    0.702358 0.084377 0.380630 0.180171
H14   H     H_    0.408795 0.803860 0.093707 0.176908
H15   H     H_    0.796305 0.178336 0.380621 0.182202
H16   H     H_    0.848961 0.460487 0.716338 0.208351
H17   H     H_    0.746927 0.461788 0.615430 0.209075
H18   H     H_    0.755622 0.367059 0.716349 0.204961
H19   H     H_    0.653579 0.368354 0.615442 0.209294
H20   H     H_    0.234741 0.777185 0.078051 0.149775
H21   H     H_    0.700239 0.793883 0.615849 0.187117
H22   H     H_    0.794159 0.699871 0.615751 0.179864
H23   H     H_    0.415390 0.788218 0.609823 0.190787
H24   H     H_    0.851734 0.758559 0.391717 0.213667
H25   H     H_    0.749757 0.656640 0.287115 0.206037
H26   H     H_    0.758355 0.851949 0.391738 0.212457
H27   H     H_    0.321454 0.694009 0.609627 0.178783
H28   H     H_    0.035159 0.664623 0.292706 0.179695
H29   H     H_    0.042384 0.764333 0.402979 0.236563
H30   H     H_    0.127795 0.760853 0.294118 0.129504
H31   H     H_    0.415097 0.320890 0.630482 0.176092
H32   H     H_    0.321150 0.414965 0.630559 0.177148
O1    O     O_3   0.500000 0.000000 0.500000 -0.491969
O2    O     O_R   0.055460 0.323770 0.439940 -0.640764
O3    O     O_R   0.885490 0.446080 0.270840 -0.642768
O4    O     O_R   0.323800 0.055370 0.439900 -0.623192
O5    O     O_R   0.175320 0.614550 0.729170 -0.641217
O6    O     O_R   0.885490 0.324650 0.270840 -0.644273
O7    O     O_R   0.053870 0.614540 0.729150 -0.645757
O8    O     O_R   0.883910 0.615420 0.560060 -0.648760
O9    O     O_R   0.176240 0.444580 0.560100 -0.650766
O10   O     O_R   0.055460 0.616070 0.439920 -0.642658
O11   O     O_R   0.884570 0.323750 0.439920 -0.646980
O12   O     O_R   0.616140 0.055410 0.439930 -0.649392
O13   O     O_R   0.616140 0.884540 0.439940 -0.645562
O14   O     O_R   0.615480 0.176200 0.560080 -0.645241
O15   O     O_R   0.444590 0.883880 0.560080 -0.634694
O16   O     O_R   0.614550 0.175310 0.729160 -0.648869
O17   O     O_R   0.324730 0.885400 0.270830 -0.647653
O18   O     O_R   0.614550 0.053870 0.729160 -0.589402
O19   O     O_R   0.446170 0.885420 0.270850 -0.644153
O20   O     O_R   0.323800 0.884510 0.439910 -0.623667
O21   O     O_R   0.444590 0.176180 0.560060 -0.653677
O22   O     O_R   0.615480 0.883900 0.560100 -0.641612
O23   O     O_3   0.000040 0.499960 0.500000 -0.482163
O24   O     O_R   0.176240 0.615450 0.560090 -0.649508
O25   O     O_R   0.883910 0.444550 0.560070 -0.643427
O26   O     O_R   0.884570 0.616050 0.439900 -0.642992
Zn1   Zn    Zn3+2 0.543850 0.957090 0.414170 0.956610
Zn2   Zn    Zn3+2 0.542910 0.129670 0.585830 0.961712
Zn3   Zn    Zn3+2 0.542910 0.956180 0.585840 1.011034
Zn4   Zn    Zn3+2 0.370330 0.957070 0.414150 0.991872
Zn5   Zn    Zn3+2 0.956190 0.542870 0.585830 0.965589
Zn6   Zn    Zn3+2 0.957140 0.543780 0.414160 0.961514
Zn7   Zn    Zn3+2 0.957140 0.370280 0.414170 0.967293
Zn8   Zn    Zn3+2 0.129710 0.542890 0.585850 0.965307

loop_
_geom_bond_atom_site_label_1
_geom_bond_atom_site_label_2
_ccdc_geom_bond_type
O5    Zn8   S    
O8    Zn5   S    
C53   C54   A    
O25   Zn5   S    
C17   C18   A    
C45   H21   S    
C2    H12   S    
C2    C23   S    
O19   Zn1   S    
C5    C6    A    
C27   C47   S    
C24   C25   A    
O11   Zn7   S    
O26   Zn6   S    
C28   O20   A    
O21   Zn2   S    
C32   C38   A    
C45   C53   A    
C26   C27   A    
C33   C35   A    
C22   C24   A    
C3    C9    A    
C56   H24   S    
C20   H2    S    
C36   C37   A    
C48   O5    A    
C39   H17   S    
C13   C14   A    
C54   C55   A    
C34   C45   A    
C32   C33   A    
C16   O12   A    
O7    Zn5   S    
C7    H27   S    
C39   H16   S    
C51   H3    S    
O23   Zn6   S    
C12   C49   S    
C1    O21   A    
C14   C15   A    
C2    H26   S    
O1    Zn1   S    
Br2   C25   S    
C16   C33   S    
C3    C11   S    
O6    Zn7   S    
C31   H11   S    
C37   C43   S    
O24   Zn8   S    
C21   H5    S    
C44   O8    A    
C42   O24   A    
C49   O19   A    
C5    C28   S    
C19   C20   S    
O16   Zn2   S    
C39   C41   S    
O18   Zn3   S    
O13   Zn1   S    
C23   C55   A    
C50   C52   S    
O14   Zn2   S    
C48   C51   S    
C8    C42   S    
C6    H23   S    
C15   H31   S    
O3    Zn6   S    
O2    Zn7   S    
O20   Zn4   S    
C37   C38   A    
C3    C5    A    
C6    C7    A    
C35   C36   A    
C50   H1    S    
C20   H4    S    
C43   O25   A    
C29   C30   S    
O23   Zn7   S    
O1    Zn2   S    
O23   Zn5   S    
C16   O14   A    
C4    O13   A    
C18   C19   A    
C40   O16   A    
C18   C46   S    
O12   Zn1   S    
C43   O11   A    
C30   H9    S    
C38   C39   S    
C12   C52   D    
C35   H13   S    
C28   O15   A    
O1    Zn3   S    
Br1   C11   S    
C44   C54   S    
O17   Zn4   S    
C50   C51   D    
C24   C40   S    
C30   H8    S    
C7    C8    A    
C41   H18   S    
C46   O9    A    
C21   H6    S    
C48   O7    A    
C10   H29   S    
O1    Zn4   S    
C4    O22   A    
C32   C41   S    
O22   Zn3   S    
C9    C10   S    
C10   H28   S    
C41   H19   S    
O4    Zn4   S    
C22   C31   S    
C44   O26   A    
C30   C31   S    
C26   H7    S    
C22   C29   A    
C27   C29   A    
C17   H32   S    
C56   H25   S    
C53   H22   S    
C42   O10   A    
C55   C56   S    
O23   Zn8   S    
C11   H30   S    
C13   C21   S    
C15   C17   A    
C4    C34   S    
C1    O4    A    
O10   Zn6   S    
C12   H20   S    
C47   O6    A    
C8    C9    A    
C23   C34   A    
C13   C19   A    
C52   H14   S    
C10   C11   S    
C49   O17   A    
C46   O2    A    
C2    C56   S    
C25   C26   A    
C20   C21   S    
O15   Zn3   S    
C47   O3    A    
C40   O18   A    
C1    C14   S    
C31   H10   S    
O9    Zn8   S    
C36   H15   S    
