data_mof_unit_57995.cif
_audit_creation_date              2012-12-10T17:12:04-0500
_audit_creation_method            fapswitch 2.2
_symmetry_space_group_name_H-M    P1
_symmetry_Int_Tables_number       1
_space_group_crystal_system       triclinic
_cell_length_a                    11.650127
_cell_length_b                    13.06325
_cell_length_c                    15.804964
_cell_angle_alpha                 92.21177
_cell_angle_beta                  73.635537
_cell_angle_gamma                 98.977249
_cell_volume                      2279.58399028

loop_
_atom_site_label
_atom_site_type_symbol
_atom_type_description
_atom_site_fract_x
_atom_site_fract_y
_atom_site_fract_z
_atom_type_partial_charge
C1    C     C_R   0.519812 0.700264 0.501143 0.831064
C2    C     C_R   0.480538 0.299359 0.498338 0.816629
C3    C     C_R   0.351346 0.474963 0.090725 -0.231379
C4    C     C_R   0.627505 0.587568 0.919942 -0.222920
C5    C     C_R   0.268093 0.453255 0.042188 -0.190421
C6    C     C_R   0.710612 0.609984 0.968309 -0.165577
C7    C     C_R   0.473148 0.186539 0.493870 -0.142717
C8    C     C_R   0.528434 0.812468 0.504153 -0.132936
C9    C     C_R   0.617456 0.975450 0.552005 -0.193266
C10   C     C_R   0.377785 0.022190 0.451505 -0.190483
C11   C     C_R   0.609769 0.868992 0.545185 -0.286291
C12   C     C_R   0.383884 0.128737 0.460437 -0.305636
C13   C     C_R   0.453323 0.863239 0.469300 0.438092
C14   C     C_R   0.556737 0.136198 0.519908 0.440646
C15   C     C_R   0.457979 0.970764 0.479111 0.012504
C16   C     C_R   0.544415 0.027711 0.517261 0.007761
C17   C     C_R   0.935257 0.590611 0.587491 0.406598
C18   C     C_R   0.065051 0.410022 0.411138 0.391388
C19   C     C_R   0.817061 0.581150 0.578917 -0.000783
C20   C     C_R   0.183566 0.419377 0.420583 -0.034087
C21   C     C_R   0.863263 0.464157 0.460386 0.026071
C22   C     C_R   0.137155 0.536724 0.539076 0.088343
C23   C     C_R   0.426023 0.492902 0.668483 0.849932
C24   C     C_R   0.573967 0.507488 0.331529 0.846897
C25   C     C_R   0.982425 0.468599 0.466998 -0.118013
C26   C     C_R   0.018374 0.532231 0.532041 -0.108993
C27   C     C_R   0.380071 0.482446 0.765369 -0.228385
C28   C     C_R   0.619348 0.522213 0.234989 -0.231941
C29   C     C_R   0.222504 0.427655 0.900373 0.396963
C30   C     C_R   0.771184 0.593107 0.102297 0.398367
C31   C     C_R   0.258928 0.441362 0.808323 0.413117
C32   C     C_R   0.738186 0.570032 0.193067 0.395890
C33   C     C_R   0.462302 0.509687 0.814885 -0.329049
C34   C     C_R   0.536813 0.495582 0.185586 -0.339272
C35   C     C_R   0.426882 0.502436 0.907268 0.032381
C36   C     C_R   0.563675 0.526391 0.097185 0.030390
C37   C     C_R   0.305258 0.460669 0.950198 -0.023391
C38   C     C_R   0.682751 0.575663 0.055395 -0.023397
C39   C     C_R   0.510581 0.532662 0.957680 0.115234
C40   C     C_R   0.475083 0.509785 0.049402 0.115651
Cu1   Cu    Cu3+1 0.386820 0.492450 0.493500 0.957147
Cu2   Cu    Cu3+1 0.613180 0.507550 0.506500 0.966691
H1    H     H_    0.174078 0.429263 0.077599 0.176235
H2    H     H_    0.797341 0.655057 0.936521 0.188800
H3    H     H_    0.250357 0.378587 0.376728 0.133141
H4    H     H_    0.752015 0.623824 0.622707 0.130586
H5    H     H_    0.450450 0.451719 0.218559 0.177021
H6    H     H_    0.555235 0.534867 0.779256 0.186812
H7    H     H_    0.314742 0.466764 0.161207 0.150611
H8    H     H_    0.656594 0.618100 0.853669 0.149705
H9    H     H_    0.320238 0.166293 0.438949 0.172938
H10   H     H_    0.666550 0.830584 0.573369 0.171516
H11   H     H_    0.680247 0.016349 0.585377 0.187646
H12   H     H_    0.309333 0.980295 0.423608 0.188007
H13   H     H_    0.167169 0.585323 0.588105 0.187563
H14   H     H_    0.833333 0.416618 0.410942 0.159014
N1    N     N_R   0.216750 0.481110 0.483710 -0.218251
N2    N     N_R   0.783250 0.518890 0.516290 -0.204099
O1    O     O_R   0.419950 0.645670 0.495380 -0.539580
O2    O     O_R   0.580050 0.354330 0.504620 -0.541475
O3    O     O_R   0.611110 0.658410 0.506370 -0.592288
O4    O     O_R   0.388890 0.341590 0.493630 -0.607199
O5    O     O_R   0.350820 0.490050 0.621260 -0.549109
O6    O     O_R   0.649180 0.509950 0.378740 -0.554152
O7    O     O_R   0.541970 0.502800 0.632250 -0.590682
O8    O     O_R   0.458030 0.497200 0.367750 -0.594717
O9    O     O_3   0.966576 0.651621 0.653341 -0.583766
C41   C     C_3   0.992444 0.755853 0.625068 -0.341758
H15   H     H_    0.067467 0.767136 0.562762 0.183354
H16   H     H_    0.022405 0.804449 0.676283 0.200635
H17   H     H_    0.910600 0.783589 0.616836 0.149115
O10   O     O_3   0.030476 0.351636 0.344450 -0.609363
C42   C     C_3   0.067011 0.252862 0.337964 -0.400308
H18   H     H_    0.009790 0.200366 0.304133 0.198004
H19   H     H_    0.054623 0.217842 0.403747 0.154404
H20   H     H_    0.162226 0.256847 0.296897 0.172187
O11   O     O_3   0.816496 0.607375 0.242590 -0.548634
C43   C     C_3   0.897626 0.536647 0.239177 -0.201325
H21   H     H_    0.852014 0.454585 0.247891 0.131666
H22   H     H_    0.940266 0.555088 0.293436 0.187002
H23   H     H_    0.972274 0.546211 0.177287 0.170331
O12   O     O_3   0.173651 0.419888 0.761705 -0.539637
C44   C     C_3   0.174197 0.318266 0.727726 -0.220049
H24   H     H_    0.265688 0.293996 0.707383 0.115447
H25   H     H_    0.141270 0.314685 0.668123 0.184550
H26   H     H_    0.110398 0.262316 0.776302 0.161945
O13   O     O_3   0.104188 0.384319 0.940739 -0.585174
C45   C     C_3   0.100421 0.278445 0.958744 -0.335087
H27   H     H_    0.162958 0.238933 0.905572 0.143732
H28   H     H_    0.007248 0.237882 0.965444 0.193718
H29   H     H_    0.120985 0.268949 0.022120 0.167300
O14   O     O_3   0.887777 0.641117 0.062330 -0.575929
C46   C     C_3   0.955005 0.567272 0.012018 -0.253407
H30   H     H_    0.934858 0.489962 0.044916 0.163634
H31   H     H_    0.052701 0.595850 0.002136 0.199552
H32   H     H_    0.939689 0.557767 0.945830 0.192523
O15   O     O_3   0.646736 0.192544 0.551678 -0.574110
C47   C     C_3   0.756778 0.202783 0.483608 -0.276126
H33   H     H_    0.827120 0.252539 0.507617 0.197264
H34   H     H_    0.748738 0.239621 0.423635 0.162754
H35   H     H_    0.789075 0.127171 0.465383 0.140404
O16   O     O_3   0.372236 0.807671 0.428802 -0.583737
C48   C     C_3   0.432126 0.797500 0.338586 -0.293695
H36   H     H_    0.367373 0.752756 0.306158 0.195180
H37   H     H_    0.509722 0.754014 0.328976 0.160181
H38   H     H_    0.463377 0.874496 0.305342 0.150365

loop_
_geom_bond_atom_site_label_1
_geom_bond_atom_site_label_2
_ccdc_geom_bond_type
O13   C45   S    
C46   H30   S    
C5    C37   A    
C1    C8    S    
C42   H18   S    
C2    C7    S    
Cu2   N2    S    
C22   N1    A    
O15   C47   S    
C3    H7    S    
C19   H4    S    
O11   C43   S    
C27   C33   A    
C8    C13   A    
C31   O12   S    
C17   C26   A    
C35   C37   A    
C9    C16   A    
C10   C15   A    
C1    O1    A    
C43   H22   S    
C15   C16   A    
C30   C38   A    
Cu1   Cu2   S    
C11   H10   S    
C33   C35   A    
C32   O11   S    
C7    C14   A    
C41   H15   S    
Cu2   O7    S    
C6    C38   A    
C23   C27   S    
C18   C20   A    
C20   H3    S    
C24   O8    A    
C23   O5    A    
C5    H1    S    
C28   C34   A    
C24   O6    A    
C6    H2    S    
C42   H19   S    
C18   C25   A    
Cu1   O4    S    
C19   N2    A    
C18   O10   S    
C7    C12   A    
C17   O9    S    
C27   C31   A    
O9    C41   S    
C28   C32   A    
C2    O2    A    
Cu1   O1    S    
C30   O14   S    
Cu2   O2    S    
C39   C40   A    
C43   H21   S    
C25   C26   A    
C4    H8    S    
C35   C39   A    
C44   H24   S    
C4    C39   A    
C36   C40   A    
C48   H37   S    
C9    C11   A    
Cu2   O3    S    
C22   H13   S    
C10   C12   A    
C4    C6    A    
C44   H25   S    
C45   H28   S    
C3    C40   A    
C47   H33   S    
C46   H32   S    
C47   H34   S    
C13   C15   A    
C42   H20   S    
C14   C16   A    
C9    H11   S    
Cu1   O5    S    
Cu2   O6    S    
C12   H9    S    
C14   O15   S    
C33   H6    S    
C21   C25   A    
C24   C28   S    
O10   C42   S    
C3    C5    A    
C1    O3    A    
C21   H14   S    
C41   H17   S    
Cu1   O8    S    
C47   H35   S    
C23   O7    A    
C36   C38   A    
C13   O16   S    
Cu1   N1    S    
C21   N2    A    
C29   C31   A    
C30   C32   A    
C43   H23   S    
C45   H29   S    
C8    C11   A    
O14   C46   S    
C17   C19   A    
C48   H38   S    
C34   C36   A    
O16   C48   S    
C10   H12   S    
C29   O13   S    
C44   H26   S    
C45   H27   S    
C46   H31   S    
O12   C44   S    
C22   C26   A    
C29   C37   A    
C48   H36   S    
C41   H16   S    
C34   H5    S    
C20   N1    A    
C2    O4    A    
