data_mof_unit_17876.cif
_audit_creation_date              2012-12-11T20:53:11-0500
_audit_creation_method            fapswitch 2.2
_symmetry_space_group_name_H-M    P1
_symmetry_Int_Tables_number       1
_space_group_crystal_system       triclinic
_cell_length_a                    8.431144
_cell_length_b                    22.951736
_cell_length_c                    27.053456
_cell_angle_alpha                 96.86807
_cell_angle_beta                  92.245737
_cell_angle_gamma                 89.755728
_cell_volume                      5193.53905147

loop_
_atom_site_label
_atom_site_type_symbol
_atom_type_description
_atom_site_fract_x
_atom_site_fract_y
_atom_site_fract_z
_atom_type_partial_charge
Ba1   Ba    Ba6+2 0.848110 0.472730 0.522970 1.800860
Ba2   Ba    Ba6+2 0.341700 0.527220 0.477020 1.736146
C1    C     C_3   0.706341 0.273392 0.677796 -0.187884
C2    C     C_3   0.694110 0.326196 0.648122 0.916956
C3    C     C_3   0.545327 0.616842 0.629611 0.354979
C4    C     C_3   0.537145 0.639282 0.684773 -0.297792
C5    C     C_3   0.136998 0.668803 0.351772 0.356877
C6    C     C_3   0.165798 0.704199 0.308551 -0.190295
C7    C     C_3   0.645333 0.675661 0.360476 0.263008
C8    C     C_3   0.627455 0.739226 0.350560 0.443110
C9    C     C_R   0.950341 0.461231 0.174603 0.585834
C10   C     C_R   0.014853 0.563425 0.189607 0.596332
C11   C     C_2   0.769796 0.533114 0.271231 -0.102884
C12   C     C_3   0.170326 0.332270 0.657840 0.329784
C13   C     C_3   0.716899 0.525465 0.322871 -0.043310
C14   C     C_1   0.984572 0.494856 0.344770 0.055857
C15   C     C_2   0.027512 0.492928 0.297428 -0.101045
C16   C     C_2   0.916571 0.513997 0.258038 0.246653
C17   C     C_R   0.036106 0.511922 0.105204 -0.115437
C18   C     C_R   0.984649 0.459427 0.122940 -0.047163
C19   C     C_R   0.962091 0.407848 0.087990 0.064957
C20   C     C_R   0.055239 0.564248 0.138963 -0.024494
C21   C     C_2   0.856525 0.525020 0.359519 -0.244394
C22   C     C_2   0.329333 0.483190 0.644280 -0.283115
C23   C     C_3   0.150311 0.313039 0.709161 1.069131
C24   C     C_R   0.118370 0.458659 0.971410 0.067290
C25   C     C_R   0.139010 0.565756 0.983199 -0.146753
C26   C     C_R   0.149766 0.511932 0.952042 -0.015806
C27   C     C_R   0.157290 0.405789 0.942197 -0.110389
C28   C     C_R   0.202672 0.405013 0.893104 -0.037157
C29   C     C_R   0.216246 0.457312 0.871509 0.015505
C30   C     C_R   0.192758 0.511131 0.901246 -0.170205
C31   C     C_R   0.213458 0.563942 0.880410 -0.217947
C32   C     C_R   0.255101 0.561851 0.829705 0.643606
C33   C     C_R   0.255460 0.456794 0.821100 0.611820
C34   C     C_3   0.185781 0.340660 0.394395 0.295587
C35   C     C_2   0.452933 0.493952 0.730572 0.004203
C36   C     C_3   0.482851 0.492440 0.674865 -0.086760
C37   C     C_1   0.202832 0.512006 0.660401 0.023203
C38   C     C_2   0.172151 0.517833 0.709453 -0.011380
C39   C     C_2   0.303876 0.506460 0.747150 0.240020
C40   C     C_R   0.057128 0.459739 0.020235 0.011170
C41   C     C_R   0.070762 0.512022 0.053692 0.029790
C42   C     C_R   0.117161 0.564710 0.035459 0.049209
C43   C     C_R   0.980224 0.410803 0.036412 0.045338
C44   C     C_R   0.116049 0.615307 0.120854 0.039152
C45   C     C_3   0.206043 0.280675 0.362052 -0.175401
C46   C     C_R   0.149791 0.618319 0.960564 0.525439
C47   C     C_R   0.188163 0.617307 0.910560 0.639823
C48   C     C_R   0.147439 0.614185 0.070296 -0.027623
C49   C     C_R   0.383022 0.335924 0.524670 0.383512
C50   C     C_R   0.537991 0.930708 0.518396 -0.101902
C51   C     C_R   0.590482 0.871985 0.517890 0.641010
C52   C     C_R   0.830336 0.895764 0.479891 0.640499
C53   C     C_R   0.792122 0.956180 0.487965 -0.023159
C54   C     C_R   0.642472 0.973327 0.505516 -0.058260
C55   C     C_R   0.384581 0.948170 0.532926 -0.080656
C56   C     C_3   0.080884 0.659938 0.597542 0.871511
C57   C     C_R   0.334774 0.006490 0.532993 0.610632
C58   C     C_R   0.440178 0.049822 0.520867 -0.097523
C59   C     C_R   0.596907 0.033388 0.509981 -0.120312
C60   C     C_R   0.899564 0.999962 0.478384 0.014446
C61   C     C_R   0.861086 0.059531 0.488482 0.009580
C62   C     C_R   0.708728 0.076852 0.503901 -0.039423
C63   C     C_R   0.664809 0.136523 0.513101 0.606985
C64   C     C_R   0.393063 0.108806 0.518181 0.618418
C65   C     C_2   0.941303 0.774996 0.496395 -0.085409
C66   C     C_3   0.990569 0.711334 0.497756 -0.072112
C67   C     C_3   0.183313 0.714345 0.612331 0.611074
C68   C     C_1   0.709185 0.690703 0.506974 0.007254
C69   C     C_2   0.665229 0.742697 0.494714 -0.189212
C70   C     C_2   0.785118 0.791439 0.495533 0.289728
C71   C     C_R   0.332700 0.238309 0.544879 -0.153068
C72   C     C_R   0.286087 0.296857 0.544931 -0.084972
C73   C     C_R   0.504406 0.315001 0.493726 0.062909
C74   C     C_R   0.531802 0.253183 0.484827 -0.027179
C75   C     C_R   0.458174 0.214717 0.515306 0.244738
C76   C     C_2   0.853191 0.670350 0.497861 0.362253
C77   C     C_3   0.652035 0.381668 0.362596 0.349057
C78   C     C_3   0.524419 0.397176 0.323857 -0.336112
H1    H     H_    0.814453 0.344666 0.648420 0.075424
H2    H     H_    0.279619 0.250866 0.383038 0.069297
H3    H     H_    0.087579 0.259588 0.354329 0.103361
H4    H     H_    0.117106 0.639440 0.560584 -0.080532
H5    H     H_    0.164340 0.746263 0.584953 -0.053536
H6    H     H_    0.310417 0.702377 0.613140 -0.076192
H7    H     H_    0.704800 0.422171 0.383117 -0.014913
H8    H     H_    0.741522 0.288681 0.717186 0.147743
H9    H     H_    0.524876 0.367628 0.288203 0.079800
H10   H     H_    0.537927 0.441574 0.314026 0.081372
H11   H     H_    0.405292 0.393716 0.337839 0.148817
H12   H     H_    0.800997 0.243623 0.662135 0.172183
H13   H     H_    0.423760 0.604213 0.615012 -0.090440
H14   H     H_    0.624321 0.577873 0.625239 0.028598
H15   H     H_    0.475278 0.682279 0.689536 0.180895
H16   H     H_    0.470264 0.608370 0.704504 0.062421
H17   H     H_    0.658902 0.644659 0.701887 0.137853
H18   H     H_    0.257766 0.325055 0.732869 0.000543
H19   H     H_    0.253333 0.650380 0.362684 0.085991
H20   H     H_    0.054889 0.631777 0.339122 0.012059
H21   H     H_    0.219654 0.675061 0.277976 0.130245
H22   H     H_    0.251536 0.740032 0.321011 0.098126
H23   H     H_    0.766839 0.660439 0.350897 0.002530
H24   H     H_    0.627316 0.674419 0.400742 0.007300
H25   H     H_    0.508067 0.755643 0.361155 0.029610
H26   H     H_    0.158466 0.380770 0.660657 -0.049603
H27   H     H_    0.642555 0.742849 0.310450 0.021011
H28   H     H_    0.141755 0.474784 0.286487 0.098375
H29   H     H_    0.227152 0.362993 0.872032 0.133281
H30   H     H_    0.156723 0.364397 0.957369 0.083773
H31   H     H_    0.685766 0.547406 0.243729 0.079186
H32   H     H_    0.291028 0.319272 0.645593 -0.093580
H33   H     H_    0.204068 0.652213 0.059055 0.161285
H34   H     H_    0.318919 0.449303 0.612864 0.134657
H35   H     H_    0.948610 0.091973 0.482227 0.157262
H36   H     H_    0.015783 0.988325 0.464609 0.134139
H37   H     H_    0.267259 0.211467 0.567195 0.162950
H38   H     H_    0.301236 0.916461 0.543444 0.154909
H39   H     H_    0.546190 0.748887 0.480332 0.159617
H40   H     H_    0.036335 0.806923 0.501556 0.133410
H41   H     H_    0.301631 0.361277 0.405313 0.055831
N1    N     N_R   0.963945 0.512677 0.206510 -0.420384
N2    N     N_R   0.270567 0.508567 0.800202 -0.442922
N3    N     N_R   0.734964 0.853678 0.497548 -0.409955
N4    N     N_R   0.505462 0.152658 0.515295 -0.435327
O1    O     O_2   0.919820 0.530450 0.618560 -0.460734
O2    O     O_3   0.582930 0.346061 0.394585 -0.676419
O3    O     O_3   0.053071 0.305067 0.624859 -0.597357
O4    O     O_2   0.269870 0.469530 0.381410 -0.472153
O5    O     O_3   0.037890 0.469550 0.441610 -0.489455
O6    O     O_3   0.535640 0.573600 0.413100 -0.481322
O7    O     O_3   0.088280 0.376775 0.367861 -0.657820
O8    O     O_3   0.647280 0.568810 0.525990 -0.404231
O9    O     O_3   0.133260 0.602900 0.438000 -0.475085
O10   O     O_2   0.297622 0.702102 0.457827 -0.507288
O11   O     O_3   0.070184 0.705343 0.391067 -0.587790
O12   O     O_3   0.151800 0.530410 0.558380 -0.441086
O13   O     O_3   0.542410 0.431140 0.474010 -0.417199
O14   O     O_2   0.406930 0.639920 0.526240 -0.523217
O15   O     O_3   0.606897 0.661802 0.605246 -0.550403
O16   O     O_2   0.381607 0.541983 0.326291 -0.488695
O17   O     O_3   0.531591 0.641149 0.331197 -0.654261
O18   O     O_2   0.904646 0.417447 0.191303 -0.614246
O19   O     O_2   0.276778 0.410060 0.795731 -0.590924
O20   O     O_2   0.023461 0.607988 0.218945 -0.633584
O21   O     O_2   0.278203 0.607347 0.811841 -0.494085
O22   O     O_2   0.507784 0.837684 0.536615 -0.585355
O23   O     O_3   0.654050 0.426350 0.586890 -0.401946
O24   O     O_2   0.947075 0.880959 0.456195 -0.566236
O25   O     O_2   0.768468 0.174013 0.518794 -0.528004
O26   O     O_2   0.251760 0.120474 0.517026 -0.542994
O27   O     O_2   0.802684 0.451382 0.674686 -0.516088
O28   O     O_3   0.099585 0.622529 0.634049 -0.646321
O29   O     O_3   0.588785 0.368460 0.670011 -0.658769
O30   O     O_2   0.782760 0.360070 0.473730 -0.487492
O31   O     O_3   0.056430 0.397060 0.562000 -0.433949
O32   O     O_2   0.954713 0.289146 0.531894 -0.408203
P1    P     P_3+3 0.092730 0.547450 0.611370 1.065931
P2    P     P_3+3 0.606840 0.368620 0.459370 1.033100
P3    P     P_3+3 0.087795 0.321930 0.565197 1.066130
P4    P     P_3+3 0.096970 0.452510 0.388620 0.970890
P5    P     P_3+3 0.125011 0.680189 0.447891 1.001303
P6    P     P_3+3 0.634381 0.437115 0.651416 0.988541
P7    P     P_3+3 0.590467 0.642392 0.540744 1.121145
P8    P     P_3+3 0.540808 0.569590 0.347516 0.934421
C79   C     C_3   0.280669 0.283630 0.312055 -0.394290
H42   H     H_    0.411228 0.286970 0.317444 0.138202
H43   H     H_    0.231801 0.320597 0.293273 0.153013
H44   H     H_    0.255416 0.242235 0.287364 0.121984
F1    F     F_    0.924782 0.677757 0.597011 -0.693779
F2    F     F_    0.144799 0.740897 0.658960 -0.617111
C80   C     C_3   0.778231 0.344900 0.334241 -0.310165
H45   H     H_    0.724772 0.308908 0.307801 0.094189
H46   H     H_    0.849989 0.372860 0.312770 0.107770
H47   H     H_    0.852103 0.322386 0.360538 0.124340
F3    F     F_    0.644946 0.307842 0.599444 -0.729130
C81   C     C_3   0.551876 0.238676 0.676353 -0.325762
H48   H     H_    0.460015 0.265410 0.696434 0.133513
H49   H     H_    0.509447 0.224813 0.637410 0.165915
H50   H     H_    0.572119 0.198774 0.695221 0.153921
C82   C     C_3   0.013322 0.731008 0.288942 -0.313585
H51   H     H_    0.969102 0.765628 0.317222 0.210716
H52   H     H_    0.037833 0.751500 0.254896 0.109305
H53   H     H_    0.920327 0.696946 0.279625 0.148882
F4    F     F_    0.740462 0.773477 0.378660 -0.711126
C83   C     C_3   0.917762 0.349264 0.104657 -0.317502
H54   H     H_    0.004543 0.337762 0.133867 0.150728
H55   H     H_    0.795564 0.351236 0.118641 0.150191
H56   H     H_    0.922324 0.312002 0.074723 0.094034
C84   C     C_3   0.593102 0.489461 0.766522 -0.288221
H57   H     H_    0.688653 0.519254 0.757811 0.095952
H58   H     H_    0.564306 0.502207 0.805973 0.107294
H59   H     H_    0.638087 0.443714 0.762888 0.152853
C85   C     C_3   0.886278 0.368036 0.999208 -0.401740
H60   H     H_    0.766945 0.360719 0.013369 0.125346
H61   H     H_    0.863392 0.385594 0.963122 0.131615
H62   H     H_    0.948283 0.325213 0.992812 0.122009
C86   C     C_3   0.152476 0.671951 0.154017 -0.316530
H63   H     H_    0.239702 0.663749 0.184209 0.135621
H64   H     H_    0.205128 0.705775 0.133486 0.108413
H65   H     H_    0.041507 0.690986 0.169784 0.156973
F5    F     F_    0.109499 0.671203 0.984732 -0.653399
F6    F     F_    0.196695 0.669353 0.891591 -0.576090
C87   C     C_3   0.029587 0.551663 0.729809 -0.265046
H66   H     H_    0.993587 0.535511 0.764744 0.097291
H67   H     H_    0.059883 0.598954 0.737526 0.170538
H68   H     H_    0.923636 0.547434 0.704716 0.135672
C88   C     C_3   0.830912 0.548523 0.412428 -0.180056
H69   H     H_    0.927741 0.551139 0.437993 0.217046
H70   H     H_    0.798387 0.595244 0.414257 0.028966
H71   H     H_    0.749365 0.518963 0.428786 0.127274
F7    F     F_    0.186325 0.020847 0.547824 -0.671241
F8    F     F_    0.020041 0.340504 0.731101 -0.713888
C89   C     C_3   0.622426 0.228847 0.439732 -0.315983
H72   H     H_    0.748371 0.242961 0.444030 0.158585
H73   H     H_    0.616687 0.180439 0.432210 0.094553
H74   H     H_    0.567479 0.244065 0.405784 0.096377
F9    F     F_    0.345097 0.393661 0.529760 -0.731256
F10   F     F_    0.894305 0.615305 0.506621 -0.726148
F11   F     F_    0.130781 0.252827 0.705463 -0.684999
C90   C     C_3   0.103636 0.327591 0.440488 -0.249083
H75   H     H_    0.095506 0.367698 0.467304 0.164834
H76   H     H_    0.984887 0.308934 0.430283 0.112747
H77   H     H_    0.169102 0.292819 0.457347 -0.034470

loop_
_geom_bond_atom_site_label_1
_geom_bond_atom_site_label_2
_ccdc_geom_bond_type
C25   C46   A    
C6    C82   S    
C85   H61   S    
C53   C54   A    
C47   F6    S    
C22   H34   S    
C32   N2    Am   
C10   C20   A    
C21   C88   S    
C68   C76   D    
C71   C72   A    
C2    O29   S    
C17   C18   A    
C49   C72   A    
C73   C74   A    
C8    F4    S    
C77   H7    S    
C3    H14   S    
C75   N4    S    
C5    C6    S    
O11   P5    S    
C82   H51   S    
C50   C51   A    
C12   H32   S    
C24   C40   A    
C5    O11   S    
Ba2   O9    S    
C5    H19   S    
O12   P1    S    
C35   C39   D    
Ba2   O14   S    
Ba1   P2    S    
O14   P7    D    
C56   F1    S    
C35   C36   S    
C49   C73   A    
C65   C70   D    
C90   H77   S    
C34   O7    S    
C3    C4    S    
C89   H73   S    
C44   C86   S    
C85   H62   S    
C73   P2    S    
C53   C60   A    
C46   F5    S    
C51   O22   D    
C22   C37   D    
C12   O3    S    
C34   C45   S    
Ba1   Ba2   S    
C67   F2    S    
C45   H2    S    
O28   P1    S    
Ba1   O30   S    
O7    P4    S    
C52   N3    Am   
C84   H59   S    
C63   O25   D    
C25   C42   A    
C72   P3    S    
C2    H1    S    
C38   C87   S    
C17   C41   A    
C88   H69   S    
C81   H49   S    
C22   C36   S    
C86   H63   S    
C45   H3    S    
C27   C28   A    
C7    C8    S    
C1    H12   S    
C80   H47   S    
C33   O19   D    
C23   F11   S    
C61   H35   S    
C13   C21   S    
C85   H60   S    
C78   H9    S    
C58   C64   A    
C57   C58   A    
C70   N3    S    
C79   H43   S    
C87   H66   S    
Ba2   O12   S    
C8    H27   S    
C86   H65   S    
Ba1   O8    S    
O13   P2    S    
Ba2   P4    S    
C80   H46   S    
Ba2   O6    S    
C52   O24   D    
C19   C43   A    
O1    P1    D    
C49   F9    S    
C66   C76   S    
C9    C18   A    
Ba2   O8    S    
C71   H37   S    
C5    H20   S    
C28   H29   S    
O30   P2    D    
C65   C66   S    
Ba2   O13   S    
C4    H17   S    
O29   P6    S    
C26   C30   A    
C17   C20   A    
C74   C75   A    
C10   N1    Am   
Ba1   O5    S    
C82   H52   S    
C37   C38   D    
C45   C79   S    
C89   H72   S    
C14   C15   D    
C51   N3    Am   
C61   C62   A    
C58   C59   A    
C40   C43   A    
C63   N4    Am   
C77   C80   S    
Ba1   O31   S    
C41   C42   A    
C84   H57   S    
C60   H36   S    
C60   C61   A    
C56   O28   S    
C56   H4    S    
C76   F10   S    
C90   H75   S    
C27   H30   S    
C29   C30   A    
C87   H68   S    
O31   P3    S    
C7    H23   S    
C81   H50   S    
C10   O20   D    
C15   C16   S    
O4    P4    D    
Ba1   O1    S    
C68   C69   D    
C16   N1    S    
C11   C16   D    
O5    P4    S    
C88   H70   S    
C38   C39   S    
C20   C44   A    
C87   H67   S    
C81   H48   S    
C14   C21   D    
C4    H16   S    
C11   C13   S    
C37   P1    S    
C88   H71   S    
C79   H42   S    
O10   P5    D    
C29   C33   A    
C15   H28   S    
C9    N1    Am   
O15   P7    S    
C40   C41   A    
C83   H55   S    
C1    C2    S    
O8    P7    S    
O2    P2    S    
Ba1   O12   S    
C80   H45   S    
O3    P3    S    
C3    O15   S    
C65   H40   S    
C82   H53   S    
C42   C48   A    
C43   C85   S    
C77   O2    S    
C52   C53   A    
C36   P6    S    
C84   H58   S    
Ba2   O4    S    
C1    H8    S    
O23   P6    S    
C24   C26   A    
C67   H5    S    
Ba1   O23   S    
C89   H74   S    
C68   P7    S    
C3    H13   S    
C7    O17   S    
C56   C67   S    
C6    H21   S    
C66   P5    S    
C14   P4    S    
O32   P3    D    
C19   C83   S    
C44   C48   A    
O16   P8    D    
C64   N4    Am   
C69   H39   S    
C48   H33   S    
C62   C63   A    
C39   N2    S    
C78   H11   S    
C23   F8    S    
C34   H41   S    
C1    C81   S    
C64   O26   D    
C90   H76   S    
C30   C31   A    
C59   C62   A    
C32   O21   D    
Ba1   P1    S    
C28   C29   A    
C9    O18   D    
C83   H56   S    
C7    H24   S    
C46   C47   A    
C33   N2    Am   
Ba2   O5    S    
C31   C32   A    
C35   C84   S    
C12   C23   S    
C78   H10   S    
C57   F7    S    
O27   P6    D    
C55   C57   A    
C50   C55   A    
C67   H6    S    
C77   C78   S    
O9    P5    S    
C23   H18   S    
C12   H26   S    
C69   C70   S    
C18   C19   A    
O6    P8    S    
C79   H44   S    
C11   H31   S    
C4    H15   S    
C2    F3    S    
C31   C47   A    
C25   C26   A    
C71   C75   A    
C54   C59   A    
C13   P8    S    
C8    H25   S    
C86   H64   S    
C24   C27   A    
C74   C89   S    
C83   H54   S    
C6    H22   S    
C34   C90   S    
Ba1   O13   S    
C50   C54   A    
C55   H38   S    
O17   P8    S    
