data_mof_unit_18645.cif
_audit_creation_date              2012-10-26T18:43:53-0400
_audit_creation_method            fapswitch 2.2
_symmetry_space_group_name_H-M    P1
_symmetry_Int_Tables_number       1
_space_group_crystal_system       triclinic
_cell_length_a                    9.581368
_cell_length_b                    10.842358
_cell_length_c                    17.159779
_cell_angle_alpha                 90.534428
_cell_angle_beta                  85.229217
_cell_angle_gamma                 89.342604
_cell_volume                      1776.24953918

loop_
_atom_site_label
_atom_site_type_symbol
_atom_type_description
_atom_site_fract_x
_atom_site_fract_y
_atom_site_fract_z
_atom_type_partial_charge
C1    C     C_R   0.499418 0.737447 0.499081 0.592492
C2    C     C_R   0.533062 0.490188 0.265117 -0.060753
C3    C     C_R   0.373369 0.937789 0.503953 -0.044092
C4    C     C_R   0.480664 0.501378 0.650415 0.602790
C5    C     C_R   0.498747 0.870436 0.493114 0.057017
C6    C     C_R   0.624157 0.933513 0.474469 -0.140584
C7    C     C_R   0.624696 0.061948 0.475750 -0.149366
C8    C     C_R   0.500420 0.128855 0.495325 0.052319
C9    C     C_R   0.374563 0.065087 0.505749 -0.044537
C10   C     C_3   0.262717 0.072108 0.571906 0.319346
C11   C     C_3   0.259339 0.932336 0.568789 0.334515
C12   C     C_R   0.359612 0.457738 0.784581 -0.037883
C13   C     C_R   0.931943 0.394135 0.483755 0.110725
C14   C     C_R   0.920813 0.600579 0.524226 0.009678
C15   C     C_R   0.069333 0.600663 0.523927 -0.015310
C16   C     C_R   0.500408 0.262377 0.500001 0.559355
C17   C     C_R   0.077819 0.393939 0.486138 0.167956
C18   C     C_3   0.103826 0.308631 0.418496 0.234813
C19   C     C_3   0.945240 0.306442 0.413819 -0.099175
C20   C     C_R   0.519298 0.499333 0.350000 0.532226
C21   C     C_R   0.469392 0.512640 0.736189 -0.011666
C22   C     C_R   0.572037 0.581956 0.770715 0.363215
C23   C     C_R   0.467537 0.390412 0.145942 -0.044811
C24   C     C_R   0.570213 0.592473 0.851289 -0.122183
C25   C     C_R   0.465998 0.535226 0.898839 -0.030191
C26   C     C_R   0.358724 0.471530 0.866141 0.379129
C27   C     C_3   0.897758 0.352286 0.334902 -0.208772
C28   C     C_3   0.780192 0.272814 0.307439 -0.443699
C29   C     C_3   0.678674 0.381403 0.971910 -0.274936
C30   C     C_3   0.826854 0.431727 0.970918 -0.362504
C31   C     C_3   0.380595 0.298318 0.103439 -0.265488
C32   C     C_3   0.280565 0.218972 0.155291 -0.428764
C33   C     C_3   0.247559 0.378648 0.752552 -0.218601
C34   C     C_R   0.453749 0.403792 0.227680 -0.114503
C35   C     C_3   0.113843 0.453571 0.744035 -0.379458
C36   C     C_R   0.630132 0.562674 0.221833 -0.107921
C37   C     C_R   0.644413 0.552327 0.140844 0.371387
C38   C     C_R   0.564222 0.466695 0.102678 0.039539
C39   C     C_2   0.475490 0.533866 0.983231 -0.050380
C40   C     C_2   0.572498 0.466278 0.016906 0.040974
Cu1   Cu    Cu3+1 0.359330 0.500020 0.500000 1.029821
Cu2   Cu    Cu3+1 0.640670 0.499980 0.500000 0.989420
F1    F     F_    0.674795 0.640331 0.726443 -0.602942
F2    F     F_    0.733479 0.628528 0.099379 -0.639585
F3    F     F_    0.312835 0.116723 0.639992 -0.590486
F4    F     F_    0.303644 0.877680 0.635293 -0.551485
F5    F     F_    0.177763 0.365600 0.356634 -0.656153
F6    F     F_    0.257186 0.417835 0.914013 -0.662142
H1    H     H_    0.722529 0.884145 0.461977 0.123357
H2    H     H_    0.692664 0.628932 0.250759 0.143686
H3    H     H_    0.395692 0.584939 0.019484 0.151024
H4    H     H_    0.651905 0.643485 0.876864 0.172045
H5    H     H_    0.817392 0.175884 0.298507 0.138841
H6    H     H_    0.687976 0.273806 0.350813 0.179476
H7    H     H_    0.748528 0.307392 0.250786 0.144490
H8    H     H_    0.867804 0.451196 0.338232 0.193986
H9    H     H_    0.983909 0.343957 0.287705 0.199787
H10   H     H_    0.831004 0.526375 0.946760 0.196114
H11   H     H_    0.862276 0.433116 0.030898 0.202350
H12   H     H_    0.722750 0.108066 0.464373 0.118030
H13   H     H_    0.899807 0.371441 0.933588 0.160180
H14   H     H_    0.676524 0.289330 0.999786 0.142953
H15   H     H_    0.653238 0.366006 0.910689 0.154793
H16   H     H_    0.339649 0.162069 0.195182 0.155003
H17   H     H_    0.201630 0.277880 0.189565 0.182895
H18   H     H_    0.224032 0.155736 0.117905 0.161133
H19   H     H_    0.316830 0.349474 0.062983 0.213384
H20   H     H_    0.452694 0.235050 0.067787 0.158902
H21   H     H_    0.135468 0.533467 0.705057 0.188181
H22   H     H_    0.035278 0.394373 0.718394 0.147716
H23   H     H_    0.164393 0.117669 0.556637 0.033933
H24   H     H_    0.069086 0.487861 0.802124 0.194810
H25   H     H_    0.284560 0.335218 0.695845 0.209029
H26   H     H_    0.222440 0.300097 0.792258 0.221263
H27   H     H_    0.159788 0.895497 0.549888 0.032243
H28   H     H_    0.862371 0.682845 0.543112 0.152058
H29   H     H_    0.120394 0.682604 0.542575 0.134270
H30   H     H_    0.384205 0.345778 0.263267 0.203456
H31   H     H_    0.149948 0.218642 0.433881 0.077473
H32   H     H_    0.906428 0.213672 0.429893 0.072192
N1    N     N_R   0.852130 0.499070 0.499500 -0.238799
N2    N     N_R   0.148040 0.499110 0.499500 -0.211828
O1    O     O_R   0.381190 0.680360 0.500000 -0.504793
O2    O     O_R   0.618770 0.680320 0.499990 -0.514838
O3    O     O_R   0.367430 0.500040 0.613600 -0.516752
O4    O     O_R   0.605020 0.500000 0.613590 -0.427461
O5    O     O_R   0.381230 0.319680 0.500010 -0.497662
O6    O     O_R   0.618810 0.319640 0.500000 -0.520675
O7    O     O_R   0.394980 0.500000 0.386410 -0.418957
O8    O     O_R   0.632570 0.499960 0.386400 -0.535636

loop_
_geom_bond_atom_site_label_1
_geom_bond_atom_site_label_2
_ccdc_geom_bond_type
C24   H4    S    
C39   H3    S    
C29   H15   S    
Cu1   Cu2   S    
Cu1   O7    S    
C18   F5    S    
C7    C8    A    
C1    O2    A    
C31   H19   S    
C29   C30   S    
C1    C5    S    
C36   C37   A    
C18   C19   S    
C5    C6    A    
C4    O4    A    
Cu1   O1    S    
C13   N1    A    
C17   N2    A    
C22   F1    S    
C35   H22   S    
C18   H31   S    
C16   O5    A    
Cu2   O4    S    
C19   C27   S    
C9    C10   S    
C26   F6    S    
C10   H23   S    
C2    C34   A    
C8    C16   S    
C21   C22   A    
Cu2   N1    S    
C28   H7    S    
C15   N2    A    
C31   H20   S    
Cu1   O5    S    
C13   C19   S    
C2    C20   S    
Cu2   O2    S    
C24   C25   A    
C32   H16   S    
C27   H9    S    
C39   C40   D    
C28   H6    S    
C27   H8    S    
C8    C9    A    
C4    O3    A    
C25   C26   A    
C20   O8    A    
C12   C21   A    
C12   C26   A    
Cu2   O8    S    
C14   H28   S    
C37   C38   A    
C3    C9    A    
C31   C32   S    
C23   C34   A    
C30   H11   S    
C10   F3    S    
C17   C18   S    
C33   H25   S    
C35   H24   S    
C22   C24   A    
Cu2   O6    S    
C7    H12   S    
C36   H2    S    
C32   H18   S    
C2    C36   A    
C29   H14   S    
C3    C5    A    
C28   H5    S    
C6    C7    A    
C1    O1    A    
C23   C38   A    
Cu1   O3    S    
C20   O7    A    
C13   C17   A    
C37   F2    S    
C11   H27   S    
C34   H30   S    
C38   C40   S    
C4    C21   S    
C15   H29   S    
Cu1   N2    S    
C30   H10   S    
C29   C40   S    
C33   C35   S    
C6    H1    S    
C19   H32   S    
C3    C11   S    
C10   C11   S    
C33   H26   S    
C35   H21   S    
C30   H13   S    
C27   C28   S    
C16   O6    A    
C14   C15   A    
C11   F4    S    
C14   N1    A    
C12   C33   S    
C25   C39   S    
C23   C31   S    
C32   H17   S    
