data_mof_unit_34925.cif
_audit_creation_date              2012-12-11T15:46:58-0500
_audit_creation_method            fapswitch 2.2
_symmetry_space_group_name_H-M    P1
_symmetry_Int_Tables_number       1
_space_group_crystal_system       triclinic
_cell_length_a                    11.55155
_cell_length_b                    11.548711
_cell_length_c                    19.565505
_cell_angle_alpha                 90.492596
_cell_angle_beta                  89.955923
_cell_angle_gamma                 60.215824
_cell_volume                      2265.23097053

loop_
_atom_site_label
_atom_site_type_symbol
_atom_type_description
_atom_site_fract_x
_atom_site_fract_y
_atom_site_fract_z
_atom_type_partial_charge
C1    C     C_R   0.640245 0.117082 0.599304 0.545793
C2    C     C_1   0.652801 0.149488 0.668676 0.007637
C3    C     C_R   0.662441 0.663499 0.193973 -0.005612
C4    C     C_R   0.612115 0.746350 0.598697 0.544423
C5    C     C_R   0.555982 0.666615 0.228638 0.014510
C6    C     C_R   0.550517 0.670885 0.298501 -0.011181
C7    C     C_R   0.766613 0.655475 0.302703 -0.176805
C8    C     C_R   0.768942 0.656660 0.231344 -0.174795
C9    C     C_3   0.411597 0.766557 0.220704 -0.064509
C10   C     C_3   0.403459 0.769127 0.297691 -0.220279
C11   C     C_R   0.651736 0.674135 0.336556 0.014274
C12   C     C_1   0.640708 0.704265 0.668038 0.007305
C13   C     C_R   0.144866 0.192493 0.191820 -0.020006
C14   C     C_R   0.188583 0.269031 0.226476 -0.006528
C15   C     C_R   0.206671 0.257448 0.296194 0.016507
C16   C     C_R   0.241090 0.145133 0.598195 0.551740
C17   C     C_R   0.140619 0.088009 0.299924 -0.012880
C18   C     C_R   0.126714 0.097595 0.228502 -0.158816
C19   C     C_3   0.120866 0.417718 0.229770 -0.255318
C20   C     C_3   0.135150 0.406014 0.306316 -0.057487
C21   C     C_R   0.184633 0.167543 0.333908 -0.032657
C22   C     C_R   0.686398 0.197277 0.199318 -0.001470
C23   C     C_1   0.126551 0.199097 0.859267 0.006070
C24   C     C_R   0.768559 0.072700 0.227144 0.047560
C25   C     C_R   0.765071 0.050706 0.295320 0.060605
C26   C     C_R   0.611576 0.283616 0.314867 -0.112699
C27   C     C_R   0.616014 0.306287 0.244512 -0.113529
C28   C     C_R   0.647179 0.113811 0.404002 0.546034
C29   C     C_3   0.784545 0.941223 0.206614 -0.271570
C30   C     C_3   0.778851 0.917256 0.282053 -0.250424
C31   C     C_R   0.678311 0.152350 0.339264 0.016257
C32   C     C_R   0.081611 0.231374 0.928569 0.548824
C33   C     C_R   0.684240 0.604144 0.929461 0.544403
C34   C     C_1   0.171512 0.170215 0.727713 -0.028280
C35   C     C_R   0.708810 0.206783 0.930079 0.543167
C36   C     C_R   0.082629 0.235691 0.125356 0.555581
C37   C     C_R   0.682123 0.613479 0.124986 0.539540
C38   C     C_R   0.711141 0.214197 0.128567 0.540558
C39   C     C_R   0.617328 0.736776 0.403197 0.538176
C40   C     C_R   0.240939 0.142017 0.402362 0.566490
C41   C     C_1   0.670936 0.646120 0.860090 0.006213
C42   C     C_1   0.654503 0.683847 0.728432 -0.028724
C43   C     C_1   0.663705 0.666495 0.799676 -0.029193
C44   C     C_2   0.218757 0.460276 0.335877 0.615959
C45   C     C_1   0.150059 0.182464 0.798929 -0.028893
C46   C     C_2   0.330831 0.713994 0.185437 0.628935
C47   C     C_2   0.096528 0.004755 0.337133 0.562497
C48   C     C_1   0.195365 0.160692 0.667393 0.008079
C49   C     C_1   0.679159 0.191113 0.860741 0.005160
C50   C     C_1   0.658620 0.167005 0.729045 -0.028411
C51   C     C_1   0.666098 0.180670 0.800336 -0.028979
Cr1   Cr    Cr6+3 0.404720 0.198220 0.499960 1.068143
Cr2   Cr    Cr6+3 0.698290 0.897110 0.500380 1.057206
Cr3   Cr    Cr6+3 0.396970 0.904720 0.499610 1.062734
Cr4   Cr    Cr6+3 0.926290 0.152010 0.028150 1.054165
Cr5   Cr    Cr6+3 0.921440 0.451830 0.027490 1.027376
Cr6   Cr    Cr6+3 0.626370 0.446880 0.028730 1.064717
H1    H     H_    0.846602 0.656418 0.330902 0.138606
H2    H     H_    0.345074 0.725528 0.319824 0.198840
H3    H     H_    0.016412 0.462144 0.213801 0.138418
H4    H     H_    0.239110 0.571114 0.409945 0.330006
H5    H     H_    0.564635 0.407135 0.225663 0.197046
H6    H     H_    0.883877 0.874354 0.183167 0.165805
H7    H     H_    0.850953 0.657135 0.205129 0.129483
H8    H     H_    0.197834 0.742231 0.111649 0.329681
H9    H     H_    0.065628 0.847710 0.334451 0.344706
H10   H     H_    0.087781 0.040897 0.202667 0.208910
H11   H     H_    0.179303 0.457157 0.203456 0.195446
H12   H     H_    0.038886 0.442264 0.333900 0.110482
H13   H     H_    0.552381 0.366341 0.349209 0.170728
H14   H     H_    0.697736 0.950136 0.177614 0.131018
H15   H     H_    0.687097 0.915161 0.297115 0.147024
H16   H     H_    0.874169 0.835522 0.302037 0.157068
H17   H     H_    0.395902 0.862029 0.198927 0.107953
H18   H     H_    0.379472 0.867931 0.318856 0.144297
O1    O     O_R   0.267750 0.231960 0.575440 -0.499393
O2    O     O_R   0.596230 0.579400 0.952760 -0.498991
O3    O     O_R   0.639160 0.321170 0.958690 -0.493444
O4    O     O_R   0.527290 0.186640 0.570530 -0.498213
O5    O     O_R   0.821370 0.124220 0.104400 -0.511590
O6    O     O_R   0.037020 0.167050 0.097880 -0.493690
O7    O     O_R   0.056310 0.349620 0.102920 -0.518702
O8    O     O_R   0.797790 0.564880 0.097980 -0.512437
O9    O     O_R   0.596000 0.584270 0.104310 -0.494395
O10   O     O_R   0.638950 0.325690 0.099180 -0.492901
O11   O     O_3   0.824700 0.350240 0.028120 -0.267621
O12   O     O_R   0.685950 0.784660 0.430010 -0.504058
O13   O     O_R   0.728110 0.003450 0.576380 -0.495584
O14   O     O_R   0.682980 0.789190 0.570500 -0.491705
O15   O     O_R   0.499300 0.771880 0.575540 -0.504037
O16   O     O_R   0.285350 0.030870 0.569740 -0.485792
O17   O     O_R   0.270960 0.227070 0.423890 -0.492439
O18   O     O_R   0.530270 0.182120 0.430040 -0.492862
O19   O     O_R   0.731320 0.998570 0.424830 -0.499849
O20   O     O_2   0.322406 0.437548 0.307863 -0.509144
O21   O     O_R   0.175546 0.539095 0.395122 -0.699987
O22   O     O_2   0.336174 0.610650 0.203984 -0.503313
O23   O     O_R   0.502510 0.767000 0.423980 -0.523950
O24   O     O_R   0.248407 0.785696 0.131203 -0.695398
O25   O     O_2   0.060079 0.029697 0.396785 -0.498945
O26   O     O_R   0.091861 0.900273 0.303045 -0.717820
O27   O     O_R   0.288320 0.026340 0.429250 -0.476783
O28   O     O_3   0.499990 0.000020 0.499980 -0.275872
O29   O     O_R   0.821590 0.119350 0.952850 -0.504553
O30   O     O_R   0.037230 0.162540 0.957390 -0.489214
O31   O     O_R   0.056530 0.344750 0.951370 -0.503738
O32   O     O_R   0.798000 0.560370 0.957490 -0.496690

loop_
_geom_bond_atom_site_label_1
_geom_bond_atom_site_label_2
_ccdc_geom_bond_type
C25   C31   A    
C46   O24   S    
C29   H6    S    
Cr1   O28   S    
C47   O26   S    
C19   C20   S    
C33   O32   A    
C39   O12   A    
C16   C48   S    
H4    O21   S    
C7    C8    A    
C7    C11   A    
C26   C27   A    
C13   C18   A    
Cr4   O30   S    
C23   C45   T    
Cr3   O15   S    
C5    C6    A    
C22   C38   S    
Cr6   O11   S    
C28   O19   A    
C1    C2    S    
C24   C29   S    
C12   C42   T    
C2    C50   T    
C36   O7    A    
C49   C51   T    
C35   C49   S    
C37   O9    A    
Cr4   O6    S    
Cr1   O4    S    
C9    C10   S    
C7    H1    S    
C1    O13   A    
C9    C46   S    
C32   O31   A    
C13   C14   A    
C41   C43   T    
H9    O26   S    
C14   C19   S    
C20   C44   S    
C50   C51   S    
C4    O15   A    
C15   C20   S    
C38   O10   A    
Cr6   O2    S    
Cr3   O28   S    
C19   H11   S    
C24   C25   A    
H8    O24   S    
C13   C36   S    
C35   O29   A    
C6    C11   A    
C30   H16   S    
C39   O23   A    
Cr1   O1    S    
C18   H10   S    
Cr4   O29   S    
C17   C21   A    
C47   O25   D    
C28   O18   A    
Cr5   O32   S    
C5    C9    S    
C29   C30   S    
C44   O21   S    
C27   H5    S    
C10   H18   S    
Cr5   O11   S    
C36   O6    A    
C17   C18   A    
Cr6   O9    S    
Cr1   O18   S    
Cr2   O12   S    
C34   C45   S    
C40   O17   A    
C11   C39   S    
Cr5   O31   S    
C8    H7    S    
C46   O22   D    
C3    C8    A    
C32   O30   A    
Cr2   O14   S    
C26   H13   S    
C22   C24   A    
C20   H12   S    
Cr1   O17   S    
C4    C12   S    
C42   C43   S    
Cr5   O8    S    
C4    O14   A    
C25   C30   S    
Cr2   O19   S    
C16   O1    A    
C26   C31   A    
Cr6   O3    S    
Cr3   O27   S    
C28   C31   S    
Cr3   O23   S    
C17   C47   S    
C3    C5    A    
C6    C10   S    
C30   H15   S    
Cr5   O7    S    
C19   H3    S    
C35   O3    A    
C22   C27   A    
C33   C41   S    
C23   C32   S    
Cr4   O11   S    
C10   H2    S    
Cr3   O16   S    
C44   O20   D    
Cr4   O5    S    
C33   O2    A    
C21   C40   S    
C38   O5    A    
Cr2   O28   S    
C1    O4    A    
Cr6   O10   S    
Cr2   O13   S    
C40   O27   A    
C15   C21   A    
C34   C48   T    
C3    C37   S    
C16   O16   A    
C9    H17   S    
C14   C15   A    
C37   O8    A    
C29   H14   S    
