data_mof_unit_68175.cif
_audit_creation_date              2012-12-11T16:30:27-0500
_audit_creation_method            fapswitch 2.2
_symmetry_space_group_name_H-M    P1
_symmetry_Int_Tables_number       1
_space_group_crystal_system       triclinic
_cell_length_a                    7.160389
_cell_length_b                    14.524506
_cell_length_c                    16.995407
_cell_angle_alpha                 89.999897
_cell_angle_beta                  90.733432
_cell_angle_gamma                 90.000203
_cell_volume                      1767.39643058

loop_
_atom_site_label
_atom_site_type_symbol
_atom_type_description
_atom_site_fract_x
_atom_site_fract_y
_atom_site_fract_z
_atom_type_partial_charge
O1    O     O_R   0.611670 0.415650 0.164070 -0.536887
O2    O     O_R   0.388330 0.915650 0.835930 -0.536889
O3    O     O_R   0.940950 0.405490 0.337780 -0.484273
O4    O     O_R   0.059050 0.905490 0.662220 -0.484272
O5    O     O_R   0.111350 0.584350 0.338470 -0.508260
O6    O     O_R   0.888650 0.084350 0.661530 -0.508258
C1    C     C_R   0.773595 0.377990 0.361647 0.737707
C2    C     C_R   0.226405 0.877989 0.638354 0.737724
O7    O     O_R   0.941380 0.404630 0.164680 -0.515692
O8    O     O_R   0.058620 0.904630 0.835320 -0.515691
O9    O     O_R   0.111780 0.583470 0.164130 -0.504415
O10   O     O_R   0.888220 0.083470 0.835870 -0.504419
C3    C     C_R   0.770423 0.377414 0.141199 0.679268
C4    C     C_R   0.229574 0.877416 0.858802 0.679254
O11   O     O_R   0.611240 0.416530 0.338400 -0.565479
O12   O     O_R   0.388760 0.916530 0.661600 -0.565481
O13   O     O_3   0.778020 0.558680 0.251290 -0.403540
O14   O     O_3   0.221980 0.058680 0.748710 -0.403543
V1    V     V_3+5 0.052840 0.489110 0.251260 1.645220
V2    V     V_3+5 0.947160 0.989110 0.748740 1.645242
O15   O     O_R   0.441500 0.594510 0.164760 -0.543549
O16   O     O_R   0.558500 0.094510 0.835240 -0.543550
C5    C     C_R   0.272461 0.612448 0.132549 0.767502
C6    C     C_R   0.727538 0.112447 0.867452 0.767533
O17   O     O_R   0.441080 0.595370 0.337860 -0.561590
O18   O     O_R   0.558920 0.095370 0.662140 -0.561590
C7    C     C_R   0.273965 0.613356 0.370351 0.764843
C8    C     C_R   0.726035 0.113357 0.629650 0.764809
V3    V     V_3+5 0.552850 0.510890 0.251270 1.513811
V4    V     V_3+5 0.447150 0.010890 0.748730 1.513822
O19   O     O_3   0.277800 0.441320 0.251250 -0.354260
O20   O     O_3   0.722200 0.941320 0.748750 -0.354248
C9    C     C_3   0.099599 0.654143 0.502135 -0.225564
C10   C     C_3   0.900401 0.154144 0.497865 -0.225549
H1    H     H_    0.130674 0.583119 0.520074 0.196634
H2    H     H_    0.869324 0.083119 0.479931 0.196686
C11   C     C_3   0.096714 0.714072 0.582330 -0.139473
C12   C     C_3   0.903282 0.214073 0.417668 -0.139416
H3    H     H_    0.117611 0.786342 0.375435 0.144840
H4    H     H_    0.882395 0.286342 0.624566 0.144848
C13   C     C_3   0.232904 0.785407 0.418751 -0.195831
C14   C     C_3   0.767103 0.285407 0.581249 -0.195818
C15   C     C_3   0.441530 0.678911 0.502212 -0.258999
C16   C     C_3   0.558468 0.178913 0.497790 -0.259016
C17   C     C_3   0.264454 0.681082 0.445519 -0.069181
C18   C     C_3   0.735547 0.181083 0.554482 -0.069193
H5    H     H_    0.561155 0.685498 0.464031 0.204950
H6    H     H_    0.438846 0.185502 0.535971 0.204950
C19   C     C_3   0.229714 0.802982 0.570963 -0.092149
C20   C     C_3   0.770289 0.302984 0.429038 -0.092140
C21   C     C_3   0.188252 0.849999 0.489626 -0.239353
C22   C     C_3   0.811757 0.349999 0.510375 -0.239351
C23   C     C_3   0.432740 0.761474 0.563379 -0.237713
C24   C     C_3   0.567264 0.261475 0.436622 -0.237700
H7    H     H_    0.473026 0.737398 0.622078 0.162090
H8    H     H_    0.526993 0.237396 0.377922 0.162103
H9    H     H_    0.281300 0.910270 0.488526 0.171234
H10   H     H_    0.718714 0.410270 0.511475 0.171250
H11   H     H_    0.427783 0.574246 0.769488 0.202839
H12   H     H_    0.572246 0.074241 0.230518 0.202871
C25   C     C_R   0.204331 0.937648 0.018096 -0.013558
C26   C     C_R   0.795569 0.437650 0.981905 -0.013524
C27   C     C_R   0.208543 0.974618 0.093006 -0.136018
C28   C     C_R   0.791381 0.474619 0.906994 -0.136047
C29   C     C_R   0.245260 0.917924 0.156180 -0.152784
C30   C     C_R   0.754717 0.417922 0.843819 -0.152813
C31   C     C_R   0.270813 0.823599 0.144508 0.034235
C32   C     C_R   0.729176 0.323597 0.855492 0.034218
C33   C     C_R   0.247297 0.780151 0.070712 0.055417
C34   C     C_R   0.752680 0.280150 0.929289 0.055399
C35   C     C_R   0.222581 0.841383 0.004964 0.143382
C36   C     C_R   0.777369 0.341384 0.995037 0.143374
C37   C     C_R   0.261652 0.680239 0.060624 -0.183350
C38   C     C_R   0.738343 0.180237 0.939377 -0.183359
C39   C     C_R   0.275116 0.648187 0.980060 0.009078
C40   C     C_R   0.724886 0.148183 0.019942 0.009075
C41   C     C_R   0.298208 0.715380 0.918179 0.015447
C42   C     C_R   0.701796 0.215376 0.081823 0.015462
C43   C     C_R   0.245076 0.809475 0.927619 -0.161485
C44   C     C_R   0.754910 0.309473 0.072383 -0.161455
C45   C     C_R   0.275978 0.552567 0.955965 -0.095906
C46   C     C_R   0.724023 0.052562 0.044037 -0.095931
C47   C     C_R   0.293811 0.529877 0.874929 -0.052010
C48   C     C_R   0.706207 0.029874 0.125074 -0.052002
C49   C     C_R   0.370303 0.595139 0.825398 -0.200905
C50   C     C_R   0.629716 0.095134 0.174606 -0.200901
C51   C     C_R   0.385430 0.686047 0.848856 -0.092565
C52   C     C_R   0.614580 0.186042 0.151148 -0.092604
H13   H     H_    0.196544 0.986768 0.970377 0.130977
H14   H     H_    0.803319 0.486770 0.029624 0.130991
H15   H     H_    0.195126 0.048181 0.101497 0.161738
H16   H     H_    0.804776 0.548183 0.898503 0.161757
H17   H     H_    0.264520 0.948397 0.213940 0.128472
H18   H     H_    0.735473 0.448393 0.786057 0.128500
C53   C     C_2   0.915616 0.643395 0.457997 0.735088
O21   O     O_2   0.825243 0.573004 0.466249 -0.584657
O22   O     O_R   0.858057 0.707292 0.401873 -0.644708
H19   H     H_    0.767408 0.679366 0.362610 0.330007
C54   C     C_2   0.084385 0.143395 0.542003 0.735059
O23   O     O_2   0.174759 0.073005 0.533751 -0.584653
O24   O     O_R   0.141946 0.207294 0.598126 -0.644709
H20   H     H_    0.232592 0.179368 0.637389 0.330007
C55   C     C_2   0.582402 0.830719 0.548780 0.445306
H21   H     H_    0.642935 0.870659 0.596203 0.147639
O25   O     O_2   0.653991 0.836948 0.485215 -0.486201
C56   C     C_2   0.417601 0.330721 0.451219 0.445333
H22   H     H_    0.357063 0.370657 0.403794 0.147658
O26   O     O_2   0.346021 0.336956 0.514785 -0.486202
C57   C     C_2   0.384301 0.832457 0.372839 0.559639
H23   H     H_    0.362521 0.902548 0.352490 0.075002
O27   O     O_2   0.528487 0.793954 0.356196 -0.508011
C58   C     C_2   0.615709 0.332458 0.627162 0.559621
H24   H     H_    0.637494 0.402548 0.647512 0.075004
O28   O     O_2   0.471519 0.293957 0.643803 -0.508016
C59   C     C_2   0.360565 0.775127 0.206314 0.702480
O29   O     O_2   0.262976 0.734225 0.252359 -0.592251
O30   O     O_R   0.554039 0.762891 0.203585 -0.623792
H25   H     H_    0.603348 0.714395 0.240979 0.340439
C60   C     C_2   0.639438 0.275123 0.793683 0.702483
O31   O     O_2   0.737037 0.234224 0.747641 -0.592251
O32   O     O_R   0.445964 0.262885 0.796407 -0.623788
H26   H     H_    0.396663 0.214389 0.759012 0.340443
C61   C     C_2   0.270251 0.474319 0.010654 0.758783
O33   O     O_2   0.138536 0.463754 0.053486 -0.563129
O34   O     O_R   0.405028 0.405879 0.005993 -0.656521
H27   H     H_    0.375282 0.350808 0.039909 0.328026
C62   C     C_2   0.729677 0.974307 0.989348 0.758768
O35   O     O_2   0.861345 0.963731 0.946488 -0.563118
O36   O     O_R   0.594896 0.905868 0.994050 -0.656515
H28   H     H_    0.624602 0.850788 0.960138 0.328022
C63   C     C_2   0.238460 0.439495 0.839221 0.851638
O37   O     O_2   0.178055 0.376696 0.879412 -0.535181
O38   O     O_R   0.244501 0.428453 0.757486 -0.620960
H29   H     H_    0.185868 0.368605 0.738927 0.336699
C64   C     C_2   0.761562 0.939490 0.160781 0.851611
O39   O     O_2   0.821988 0.876696 0.120585 -0.535187
O40   O     O_R   0.755502 0.928441 0.242520 -0.620940
H30   H     H_    0.814132 0.868590 0.261076 0.336696
C65   C     C_2   0.544959 0.736740 0.817510 0.776642
O41   O     O_2   0.532907 0.774107 0.753705 -0.557600
O42   O     O_R   0.714147 0.736383 0.859325 -0.666914
H31   H     H_    0.816601 0.770413 0.830931 0.330648
C66   C     C_2   0.455048 0.236734 0.182500 0.776638
O43   O     O_2   0.467111 0.274113 0.246301 -0.557602
O44   O     O_R   0.285843 0.236367 0.140693 -0.666915
H32   H     H_    0.183382 0.270392 0.169096 0.330625
C67   C     C_2   0.166431 0.656403 0.651655 0.440355
H33   H     H_    0.240067 0.689994 0.699351 0.056648
O45   O     O_2   0.121534 0.575739 0.659375 -0.512908
C68   C     C_2   0.833547 0.156417 0.348339 0.440290
H34   H     H_    0.760100 0.190039 0.300606 0.056620
O46   O     O_2   0.878210 0.075721 0.340658 -0.512895
C69   C     C_2   0.900442 0.731588 0.609338 0.424776
H35   H     H_    0.786830 0.698235 0.579832 0.072959
O47   O     O_2   0.867182 0.766265 0.673033 -0.531360
C70   C     C_2   0.099553 0.231587 0.390659 0.424605
H36   H     H_    0.213164 0.198242 0.420171 0.073003
O48   O     O_2   0.132818 0.266261 0.326963 -0.531384
C71   C     C_2   0.002871 0.895496 0.477456 0.501600
H37   H     H_    0.940320 0.899577 0.419023 0.147924
O49   O     O_2   0.927824 0.936835 0.530410 -0.519144
C72   C     C_2   0.997138 0.395496 0.522543 0.501598
H38   H     H_    0.059689 0.399577 0.580976 0.147912
O50   O     O_2   0.072184 0.436835 0.469589 -0.519147
C73   C     C_2   0.476818 0.587707 0.545627 0.804319
O51   O     O_2   0.529465 0.585119 0.614237 -0.543925
O52   O     O_R   0.454832 0.505037 0.507753 -0.629728
H39   H     H_    0.481326 0.509435 0.450313 0.265454
C74   C     C_2   0.523164 0.087712 0.454373 0.804449
O53   O     O_2   0.470426 0.085130 0.385774 -0.543914
O54   O     O_R   0.545222 0.005036 0.492234 -0.629704
H40   H     H_    0.518770 0.009424 0.549678 0.265411

loop_
_geom_bond_atom_site_label_1
_geom_bond_atom_site_label_2
_ccdc_geom_bond_type
C30   C32   A    
O54   H40   S    
C27   C29   A    
C48   C64   S    
C73   O51   D    
C53   O21   D    
C9    C17   S    
C74   O53   D    
C23   H7    S    
C67   H33   S    
C12   C70   S    
O4    C2    A    
V1    O19   S    
C58   O28   D    
O22   H19   S    
C6    C38   S    
C61   O33   D    
H3    C13   S    
C8    C18   S    
O24   H20   S    
C38   C40   A    
C45   C61   S    
O16   C6    A    
C70   H36   S    
C67   O45   D    
C40   C42   A    
C72   H38   S    
O3    C1    A    
C57   O27   D    
C32   C60   S    
O44   H32   S    
O7    C3    A    
C42   C44   A    
C61   O34   S    
C56   H22   S    
O12   V4    S    
C66   O43   D    
O13   V3    S    
C64   O40   S    
O7    V1    S    
C14   C18   S    
O9    C5    A    
C33   C35   A    
C31   C59   S    
C16   C74   S    
C26   C28   A    
O13   V1    S    
O5    C7    A    
C15   C23   S    
O6    C8    A    
C71   H37   S    
C16   C18   S    
C29   C31   A    
C34   C38   A    
C20   C22   S    
C71   O49   D    
C33   C37   A    
O14   V4    S    
C69   O47   D    
C57   H23   S    
C52   C66   S    
C10   H2    S    
C30   H18   S    
C25   C35   A    
C2    O12   A    
C15   C73   S    
C3    C44   S    
C73   O52   S    
C13   C57   S    
C37   C39   A    
C62   O36   S    
C5    C37   S    
C9    C53   S    
C35   C43   A    
C58   H24   S    
C45   C47   A    
C25   H13   S    
O11   V3    S    
C72   O50   D    
C60   O32   S    
O17   V3    S    
C24   H8    S    
C12   C20   S    
C24   C56   S    
C50   C52   A    
C11   C69   S    
C64   O39   D    
C21   H9    S    
O8    C4    A    
O8    V2    S    
O52   H39   S    
H12   C50   S    
C39   C45   A    
C14   C58   S    
C1    O11   A    
C19   C21   S    
O15   V3    S    
C9    C11   S    
C36   C44   A    
C31   C33   A    
C28   C30   A    
H11   C49   S    
C47   C63   S    
C11   C19   S    
C54   O23   D    
C65   O41   D    
O9    V1    S    
O10   V2    S    
O1    V3    S    
C10   C54   S    
C41   C43   A    
C26   C36   A    
C55   O25   D    
C20   C24   S    
C4    C43   S    
C11   C67   S    
O3    V1    S    
C15   C17   S    
O32   H26   S    
C22   H10   S    
C10   C18   S    
C54   O24   S    
O18   V4    S    
C46   C48   A    
O15   C5    A    
O38   H29   S    
C68   O46   D    
O1    C3    A    
C28   H16   S    
C40   C46   A    
C62   O35   D    
O36   H28   S    
V2    O20   S    
C42   C52   A    
C66   O44   S    
C59   O30   S    
C14   C22   S    
O16   V4    S    
C47   C49   A    
C10   C12   S    
C25   C27   A    
C1    C20   S    
C51   C65   S    
H4    C14   S    
C63   O38   S    
C60   O31   D    
C53   O22   S    
O5    V1    S    
O17   C7    A    
O6    V2    S    
O40   H30   S    
O10   C6    A    
O18   C8    A    
O2    V4    S    
C70   O48   D    
V3    O19   S    
C16   H6    S    
O30   H25   S    
V4    O20   S    
C65   O42   S    
C7    C17   S    
O34   H27   S    
C56   O26   D    
C23   C55   S    
C19   C23   S    
C26   H14   S    
C21   C71   S    
C29   H17   S    
C9    H1    S    
C12   C68   S    
O14   V2    S    
C63   O37   D    
O2    C4    A    
C46   C62   S    
O4    V2    S    
C16   C24   S    
C49   C51   A    
C41   C51   A    
C32   C34   A    
C39   C41   A    
C27   H15   S    
C55   H21   S    
C13   C17   S    
C68   H34   S    
C48   C50   A    
C34   C36   A    
C69   H35   S    
O42   H31   S    
C15   H5    S    
C2    C19   S    
C13   C21   S    
C59   O29   D    
C22   C72   S    
C74   O54   S    
