data_mof_unit_58553.cif
_audit_creation_date              2012-12-10T17:13:36-0500
_audit_creation_method            fapswitch 2.2
_symmetry_space_group_name_H-M    P1
_symmetry_Int_Tables_number       1
_space_group_crystal_system       triclinic
_cell_length_a                    10.913294
_cell_length_b                    13.098207
_cell_length_c                    11.830853
_cell_angle_alpha                 101.145815
_cell_angle_beta                  94.689337
_cell_angle_gamma                 94.874453
_cell_volume                      1644.89881866

loop_
_atom_site_label
_atom_site_type_symbol
_atom_type_description
_atom_site_fract_x
_atom_site_fract_y
_atom_site_fract_z
_atom_type_partial_charge
C1    C     C_R   0.500268 0.299094 0.477106 0.821751
C2    C     C_3   0.877030 0.499371 0.501961 -0.289648
C3    C     C_3   0.931632 0.581963 0.434291 -0.077587
C4    C     C_3   0.902143 0.386840 0.436287 0.515370
C5    C     C_R   0.507308 0.815626 0.535040 -0.301599
C6    C     C_R   0.495122 0.184477 0.462331 -0.279424
C7    C     C_R   0.369066 0.018906 0.397751 0.351224
C8    C     C_R   0.406928 0.119606 0.380837 0.261802
C9    C     C_R   0.568945 0.139995 0.539032 0.439902
C10   C     C_R   0.553671 0.030380 0.532263 -0.192324
C11   C     C_R   0.450155 0.969453 0.463190 -0.184110
C12   C     C_R   0.258809 0.494573 0.498356 0.952867
C13   C     C_R   0.433544 0.859837 0.457637 0.456588
C14   C     C_R   0.598888 0.879986 0.613209 0.291900
C15   C     C_R   0.634886 0.981574 0.598020 0.350510
C16   C     C_R   0.451737 0.367983 0.022188 0.336352
C17   C     C_R   0.420363 0.392545 0.137664 0.507896
C18   C     C_R   0.547086 0.551619 0.162042 0.594976
C19   C     C_R   0.532930 0.544891 0.037793 -0.212430
C20   C     C_R   0.483496 0.450212 0.965276 -0.344383
C21   C     C_R   0.467590 0.441796 0.840411 0.600524
C22   C     C_R   0.584467 0.607301 0.862218 0.460188
C23   C     C_R   0.500226 0.700993 0.522500 0.932294
C24   C     C_R   0.571383 0.627101 0.984060 0.231056
C25   C     C_R   0.739878 0.502883 0.501139 0.967384
C26   C     C_3   0.085738 0.532073 0.627185 0.614528
C27   C     C_3   0.940222 0.520667 0.630642 0.690366
C28   C     C_3   0.072158 0.569818 0.418700 0.725104
C29   C     C_3   0.047539 0.375893 0.442800 0.720776
C30   C     C_3   0.118442 0.491188 0.496713 -0.352213
Cu1   Cu    Cu3+1 0.509350 0.507730 0.615930 1.063034
Cu2   Cu    Cu3+1 0.490650 0.492270 0.384070 1.054404
H1    H     H_    0.878155 0.566445 0.347617 0.192256
N1    N     N_R   0.523430 0.519360 0.790130 -0.277349
N2    N     N_R   0.476570 0.480640 0.209880 -0.287772
O1    O     O_R   0.506640 0.354460 0.582000 -0.557711
O2    O     O_R   0.490840 0.341410 0.386200 -0.517853
O3    O     O_R   0.325590 0.506510 0.597900 -0.547496
O4    O     O_R   0.309790 0.493450 0.402100 -0.515967
O5    O     O_R   0.509160 0.658590 0.613800 -0.513885
O6    O     O_R   0.493360 0.645540 0.418000 -0.601846
O7    O     O_R   0.690210 0.506550 0.597900 -0.512668
O8    O     O_R   0.674410 0.493490 0.402100 -0.556851
O9    O     O_3   0.134314 0.640062 0.659042 -0.533916
C31   C     C_3   0.175296 0.675014 0.778026 -0.164304
H2    H     H_    0.264609 0.644760 0.799523 0.190566
H3    H     H_    0.105413 0.653257 0.834570 0.137694
H4    H     H_    0.191708 0.761617 0.796271 0.142394
O10   O     O_3   0.846278 0.368625 0.320264 -0.757321
H5    H     H_    0.896352 0.406269 0.272428 0.353668
O11   O     O_3   0.086689 0.524982 0.301022 -0.574465
C32   C     C_3   0.069932 0.592379 0.222271 -0.356577
H6    H     H_    0.999073 0.647245 0.243121 0.134187
H7    H     H_    0.039795 0.543766 0.135167 0.165999
H8    H     H_    0.159271 0.636460 0.216661 0.200884
O12   O     O_3   0.337855 0.796451 0.386284 -0.506816
C33   C     C_3   0.358590 0.785304 0.268024 -0.194636
H9    H     H_    0.433388 0.841338 0.249492 0.123700
H10   H     H_    0.272621 0.797432 0.217786 0.174529
H11   H     H_    0.377880 0.703923 0.234331 0.154330
O13   O     O_3   0.651178 0.846173 0.707550 -0.529437
C34   C     C_3   0.597757 0.895816 0.806440 -0.240885
H12   H     H_    0.586180 0.979981 0.809071 0.121496
H13   H     H_    0.659456 0.895059 0.885039 0.160265
H14   H     H_    0.506851 0.852954 0.812295 0.169135
O14   O     O_3   0.253821 0.969356 0.351852 -0.709205
H15   H     H_    0.203509 0.019811 0.322075 0.329057
O15   O     O_3   0.747028 0.034097 0.649223 -0.679956
H16   H     H_    0.797495 0.985492 0.682268 0.350108
O16   O     O_3   0.355828 0.154795 0.286486 -0.548040
C35   C     C_3   0.392541 0.093460 0.184948 -0.245626
H17   H     H_    0.362189 0.125807 0.108820 0.220623
H18   H     H_    0.348452 0.011632 0.168603 0.137985
H19   H     H_    0.494947 0.094084 0.188813 0.145736
O17   O     O_3   0.660497 0.203977 0.614823 -0.506076
C36   C     C_3   0.625167 0.221432 0.728909 -0.066285
H20   H     H_    0.526951 0.194134 0.736067 0.157285
H21   H     H_    0.640925 0.306426 0.765725 0.169358
H22   H     H_    0.685701 0.183183 0.784153 0.159582
O18   O     O_3   0.400267 0.355408 0.767080 -0.556508
C37   C     C_3   0.287188 0.323819 0.807893 -0.246706
H23   H     H_    0.249770 0.387141 0.868288 0.142060
H24   H     H_    0.293881 0.252289 0.842869 0.200451
H25   H     H_    0.216547 0.293714 0.735394 0.173827
O19   O     O_3   0.143266 0.476169 0.704406 -0.754787
H26   H     H_    0.100160 0.405958 0.695190 0.363155
O20   O     O_3   0.652711 0.678919 0.813805 -0.502837
C38   C     C_3   0.768554 0.714038 0.879709 -0.173142
H27   H     H_    0.827086 0.757391 0.828920 0.215450
H28   H     H_    0.761127 0.771394 0.960011 0.135468
H29   H     H_    0.817583 0.648762 0.902090 0.129591
O21   O     O_3   0.462089 0.265219 0.971598 -0.588554
C39   C     C_3   0.577225 0.238335 0.013590 -0.349574
H30   H     H_    0.586112 0.155889 0.973148 0.159492
H31   H     H_    0.584562 0.244145 0.109042 0.203174
H32   H     H_    0.655094 0.288147 0.990079 0.155966
O22   O     O_3   0.581137 0.727745 0.047597 -0.790680
H33   H     H_    0.561704 0.775122 0.994165 0.313831
O23   O     O_3   0.348871 0.321118 0.181742 -0.495819
C40   C     C_3   0.230898 0.302050 0.118351 -0.227971
H34   H     H_    0.174333 0.367027 0.146827 0.219524
H35   H     H_    0.185744 0.227716 0.132063 0.187911
H36   H     H_    0.232364 0.289480 0.023459 0.092377
O24   O     O_3   0.661916 0.591062 0.220757 -0.568708
C41   C     C_3   0.671974 0.699428 0.265504 -0.196896
H37   H     H_    0.702995 0.713935 0.359156 0.163260
H38   H     H_    0.585644 0.735888 0.256326 0.168486
H39   H     H_    0.743956 0.738967 0.223197 0.173846
O25   O     O_3   0.900775 0.431703 0.677624 -0.535451
C42   C     C_3   0.894776 0.452247 0.798715 -0.167421
H40   H     H_    0.802602 0.476408 0.818098 0.172433
H41   H     H_    0.969819 0.510880 0.846707 0.138980
H42   H     H_    0.904326 0.378500 0.830018 0.146446
O26   O     O_3   0.898627 0.610974 0.696575 -0.732184
H43   H     H_    0.935451 0.675708 0.676916 0.385653
O27   O     O_3   0.147353 0.666382 0.453815 -0.626915
H44   H     H_    0.113569 0.719725 0.414738 0.359769
O28   O     O_3   0.913314 0.684236 0.488250 -0.721081
H45   H     H_    0.910842 0.727575 0.428111 0.319149
O29   O     O_3   0.079196 0.336180 0.328595 -0.575438
C43   C     C_3   0.024191 0.231701 0.282413 -0.212058
H46   H     H_    0.979841 0.228025 0.193720 0.146657
H47   H     H_    0.953042 0.201391 0.332968 0.228417
H48   H     H_    0.095815 0.176392 0.276499 0.159045
O30   O     O_3   0.075429 0.303750 0.515704 -0.570999
C44   C     C_3   0.194115 0.267789 0.506961 -0.313308
H49   H     H_    0.189952 0.187245 0.523861 0.188334
H50   H     H_    0.262527 0.317631 0.571609 0.199065
H51   H     H_    0.232006 0.266737 0.423238 0.222636
O31   O     O_3   0.845474 0.309062 0.488249 -0.601796
H52   H     H_    0.756259 0.297708 0.460322 0.349408

loop_
_geom_bond_atom_site_label_1
_geom_bond_atom_site_label_2
_ccdc_geom_bond_type
O20   C38   S    
C39   H30   S    
Cu1   O7    S    
C29   O30   S    
C19   C20   A    
C36   H22   S    
C25   O8    A    
C6    C9    A    
O26   H43   S    
C26   O9    S    
C7    C8    A    
O19   H26   S    
O9    C31   S    
C7    C11   A    
C41   H38   S    
C26   C27   S    
C44   H49   S    
C3    C28   S    
C36   H21   S    
C2    C3    S    
C10   C15   A    
C28   O11   S    
C33   H10   S    
C3    H1    S    
C23   O5    A    
O22   H33   S    
O27   H44   S    
C18   C19   A    
Cu2   O4    S    
O28   H45   S    
C40   H34   S    
C43   H48   S    
C34   H13   S    
C28   O27   S    
Cu1   O5    S    
C42   H40   S    
Cu1   Cu2   S    
O15   H16   S    
Cu2   O6    S    
O16   C35   S    
C18   N2    A    
C5    C13   A    
C4    C29   S    
C32   H8    S    
C1    O2    A    
C13   O12   S    
O14   H15   S    
C39   H31   S    
O24   C41   S    
C37   H24   S    
C32   H7    S    
C37   H23   S    
C31   H3    S    
C22   N1    A    
C41   H39   S    
C24   O22   S    
Cu2   N2    S    
C36   H20   S    
C35   H18   S    
C16   C17   A    
C33   H11   S    
C4    O31   S    
C21   N1    A    
C44   H51   S    
C31   H2    S    
C14   O13   S    
C40   H36   S    
O11   C32   S    
C2    C4    S    
O17   C36   S    
C29   C30   S    
C3    O28   S    
O23   C40   S    
C5    C23   S    
C38   H29   S    
C16   C20   A    
C34   H12   S    
C40   H35   S    
C43   H46   S    
Cu1   N1    S    
C18   O24   S    
Cu2   O2    S    
C38   H27   S    
C17   O23   S    
C42   H42   S    
C5    C14   A    
C2    C27   S    
C38   H28   S    
C16   O21   S    
C39   H32   S    
O30   C44   S    
C22   C24   A    
O12   C33   S    
C29   O29   S    
C37   H25   S    
O29   C43   S    
C9    C10   A    
C31   H4    S    
C44   H50   S    
C34   H14   S    
C12   C30   S    
Cu1   O1    S    
O18   C37   S    
C22   O20   S    
C25   O7    A    
C35   H19   S    
C6    C8    A    
C26   C30   S    
C17   N2    A    
C41   H37   S    
C8    O16   S    
C23   O6    A    
Cu1   O3    S    
C4    O10   S    
C12   O4    A    
C28   C30   S    
C19   C24   A    
C35   H17   S    
O25   C42   S    
C7    O14   S    
C11   C13   A    
C33   H9    S    
C26   O19   S    
C15   O15   S    
C21   O18   S    
O21   C39   S    
Cu2   O8    S    
O31   H52   S    
C2    C25   S    
C12   O3    A    
O13   C34   S    
C42   H41   S    
C43   H47   S    
C10   C11   A    
C27   O26   S    
C20   C21   A    
C27   O25   S    
O10   H5    S    
C1    C6    S    
C14   C15   A    
C9    O17   S    
C1    O1    A    
C32   H6    S    
