data_mof_unit_62912.cif
_audit_creation_date              2012-12-10T20:58:44-0500
_audit_creation_method            fapswitch 2.2
_symmetry_space_group_name_H-M    P1
_symmetry_Int_Tables_number       1
_space_group_crystal_system       triclinic
_cell_length_a                    15.829761
_cell_length_b                    15.077541
_cell_length_c                    14.178563
_cell_angle_alpha                 89.997438
_cell_angle_beta                  89.961135
_cell_angle_gamma                 90.258539
_cell_volume                      3384.01727501

loop_
_atom_site_label
_atom_site_type_symbol
_atom_type_description
_atom_site_fract_x
_atom_site_fract_y
_atom_site_fract_z
_atom_type_partial_charge
C1    C     C_1   0.250902 0.499232 0.489489 -0.190709
C2    C     C_R   0.661243 0.500187 0.499695 0.905380
C3    C     C_R   0.499989 0.500002 0.328647 0.890093
C4    C     C_R   0.500010 0.499999 0.671352 0.887798
C5    C     C_1   0.499273 0.807076 0.500604 0.197795
C6    C     C_1   0.499310 0.192930 0.500511 0.196911
C7    C     C_1   0.499978 0.500005 0.227345 -0.181596
C8    C     C_1   0.500023 0.499997 0.772655 -0.182438
C9    C     C_1   0.499979 0.500005 0.142248 0.009766
C10   C     C_1   0.500023 0.499999 0.857751 0.009200
C11   C     C_1   0.499994 0.500004 0.042546 0.026088
C12   C     C_1   0.749391 0.500649 0.490828 -0.193700
C13   C     C_1   0.500010 0.500002 0.957453 0.025837
C14   C     C_R   0.446768 0.952577 0.437769 0.132425
C15   C     C_R   0.549116 0.047463 0.565771 0.133942
C16   C     C_R   0.548895 0.953121 0.566011 0.134669
C17   C     C_R   0.446692 0.046950 0.437829 0.132375
C18   C     C_R   0.957210 0.582831 0.475084 0.061093
C19   C     C_R   0.043494 0.417497 0.464535 0.055892
C20   C     C_R   0.045879 0.581882 0.465976 0.048805
C21   C     C_R   0.954600 0.419281 0.457443 0.053200
C22   C     C_3   0.097458 0.667034 0.452959 -0.387180
C23   C     C_R   0.913095 0.501215 0.470222 0.037325
C24   C     C_3   0.121407 0.709444 0.547661 -0.364146
C25   C     C_3   0.183813 0.785842 0.533970 -0.801792
C26   C     C_3   0.902890 0.335841 0.435858 -0.401350
C27   C     C_3   0.881804 0.283287 0.525514 -0.351416
C28   C     C_3   0.823186 0.205303 0.503906 -0.802768
C29   C     C_3   0.908621 0.668819 0.492295 -0.400513
C30   C     C_3   0.882579 0.677543 0.596346 -0.366904
C31   C     C_3   0.838739 0.765771 0.614607 -0.793545
C32   C     C_3   0.092830 0.330417 0.468364 -0.392228
C33   C     C_3   0.123064 0.309570 0.569024 -0.356476
C34   C     C_R   0.087438 0.499244 0.468492 0.036152
C35   C     C_3   0.170915 0.221951 0.572238 -0.817940
C36   C     C_1   0.823884 0.501073 0.481244 -0.054609
C37   C     C_1   0.176554 0.498811 0.479265 -0.053190
C38   C     C_R   0.498359 0.905090 0.501402 -0.124130
C39   C     C_R   0.498444 0.094940 0.501269 -0.125596
C40   C     C_R   0.338825 0.499792 0.499450 0.904661
H1    H     H_    0.243462 0.761202 0.502243 0.279026
H2    H     H_    0.811178 0.167101 0.569518 0.273330
H3    H     H_    0.940387 0.257104 0.557603 0.226171
H4    H     H_    0.850496 0.327293 0.577698 0.237807
H5    H     H_    0.843066 0.353672 0.399743 0.214111
H6    H     H_    0.935040 0.293584 0.383011 0.189377
H7    H     H_    0.882292 0.821917 0.599224 0.256805
H8    H     H_    0.781619 0.771506 0.569601 0.280201
H9    H     H_    0.819287 0.769617 0.689747 0.267383
H10   H     H_    0.838793 0.623161 0.616707 0.237358
H11   H     H_    0.939137 0.672964 0.642360 0.218850
H12   H     H_    0.156202 0.837373 0.487400 0.269271
H13   H     H_    0.944963 0.728706 0.472755 0.203755
H14   H     H_    0.851665 0.670519 0.446517 0.210544
H15   H     H_    0.129336 0.166487 0.549258 0.261064
H16   H     H_    0.227313 0.225111 0.525637 0.280203
H17   H     H_    0.192190 0.208764 0.645497 0.252412
H18   H     H_    0.165464 0.362633 0.595700 0.234635
H19   H     H_    0.068165 0.305549 0.617609 0.216982
H20   H     H_    0.055919 0.272911 0.443009 0.205185
H21   H     H_    0.147958 0.334580 0.419909 0.216792
H22   H     H_    0.198672 0.816328 0.603320 0.250414
H23   H     H_    0.064208 0.735408 0.583112 0.226994
H24   H     H_    0.150715 0.659072 0.594450 0.232638
H25   H     H_    0.156027 0.652807 0.412555 0.220095
H26   H     H_    0.064314 0.715000 0.406895 0.189487
H27   H     H_    0.761853 0.229486 0.476110 0.271316
H28   H     H_    0.852711 0.160480 0.451296 0.256330
I1    I     I_    0.367734 0.118956 0.342715 -0.317072
I2    I     I_    0.623998 0.881350 0.665023 -0.336745
I3    I     I_    0.625448 0.120198 0.663507 -0.328153
I4    I     I_    0.368366 0.879849 0.342074 -0.324682
N1    N     N_1   0.500000 0.270550 0.500000 -0.072351
N2    N     N_1   0.500000 0.729450 0.500000 -0.072554
O1    O     O_R   0.378020 0.573650 0.500030 -0.603380
O2    O     O_R   0.621980 0.426350 0.499970 -0.602366
O3    O     O_R   0.621980 0.573650 0.499970 -0.601506
O4    O     O_R   0.378020 0.426350 0.500030 -0.601029
O5    O     O_R   0.500000 0.573680 0.373720 -0.588296
O6    O     O_R   0.500000 0.426320 0.626280 -0.587905
O7    O     O_R   0.500000 0.573680 0.626280 -0.588332
O8    O     O_R   0.500000 0.426320 0.373720 -0.589055
Zn1   Zn    Zn3+2 0.500000 0.598370 0.500000 0.998534
Zn2   Zn    Zn3+2 0.500000 0.401630 0.500000 0.999173

loop_
_geom_bond_atom_site_label_1
_geom_bond_atom_site_label_2
_ccdc_geom_bond_type
C30   H11   S    
C17   I1    S    
C33   H18   S    
C34   C37   S    
N2    Zn1   S    
C4    C8    S    
C2    C12   S    
O2    Zn2   S    
C26   C27   S    
C28   H28   S    
C32   H21   S    
C4    O6    A    
C3    C7    S    
C30   C31   S    
C29   H14   S    
O3    Zn1   S    
C15   C16   A    
C17   C39   A    
C5    N2    T    
C22   H26   S    
C1    C40   S    
C27   H4    S    
C4    O7    A    
C12   C36   T    
N1    Zn2   S    
C26   H5    S    
C1    C37   T    
C20   C34   A    
C30   H10   S    
C3    O5    A    
C33   H19   S    
C31   H7    S    
C5    C38   S    
C14   C17   A    
C31   H9    S    
C19   C32   S    
O7    Zn1   S    
C21   C26   S    
C35   H15   S    
O6    Zn2   S    
C28   H27   S    
C16   I2    S    
C24   C25   S    
C25   H1    S    
C19   C34   A    
C18   C23   A    
C22   H25   S    
C29   C30   S    
O4    Zn2   S    
C14   C38   A    
C3    O8    A    
C18   C29   S    
C9    C11   S    
C15   C39   A    
C40   O4    A    
C20   C22   S    
C24   H23   S    
O8    Zn2   S    
C31   H8    S    
C21   C23   A    
C22   C24   S    
C32   H20   S    
C2    O2    A    
C6    N1    T    
C7    C9    T    
C19   C21   A    
C35   H16   S    
C14   I4    S    
C10   C13   S    
C15   I3    S    
C40   O1    A    
C35   H17   S    
C32   C33   S    
C25   H12   S    
C2    O3    A    
O5    Zn1   S    
C11   C13   T    
O1    Zn1   S    
C29   H13   S    
C28   H2    S    
C33   C35   S    
C24   H24   S    
C18   C20   A    
C25   H22   S    
C26   H6    S    
C27   H3    S    
C8    C10   T    
C23   C36   S    
C27   C28   S    
C6    C39   S    
C16   C38   A    
