data_mof_unit_48627.cif
_audit_creation_date              2012-10-26T18:51:34-0400
_audit_creation_method            fapswitch 2.2
_symmetry_space_group_name_H-M    P1
_symmetry_Int_Tables_number       1
_space_group_crystal_system       triclinic
_cell_length_a                    11.700966
_cell_length_b                    14.730018
_cell_length_c                    14.556238
_cell_angle_alpha                 65.447852
_cell_angle_beta                  103.084941
_cell_angle_gamma                 102.722207
_cell_volume                      2200.10616922

loop_
_atom_site_label
_atom_site_type_symbol
_atom_type_description
_atom_site_fract_x
_atom_site_fract_y
_atom_site_fract_z
_atom_type_partial_charge
C1    C     C_R   0.481816 0.119319 0.311287 0.545888
C2    C     C_R   0.470835 0.606232 0.094894 -0.136526
C3    C     C_R   0.701760 0.286772 0.664836 -0.162639
C4    C     C_R   0.300437 0.712324 0.335117 -0.161508
C5    C     C_R   0.665743 0.203161 0.638701 0.037872
C6    C     C_R   0.335446 0.796395 0.360599 0.038400
C7    C     C_R   0.516351 0.285360 0.509185 0.058775
C8    C     C_R   0.483099 0.714495 0.492472 0.062315
C9    C     C_R   0.541506 0.369621 0.538268 -0.002333
C10   C     C_R   0.458384 0.629135 0.465237 0.003440
C11   C     C_R   0.641699 0.370936 0.613266 -0.001339
C12   C     C_R   0.516339 0.880779 0.688551 0.542881
C13   C     C_R   0.359587 0.627772 0.388784 0.003609
C14   C     C_R   0.475750 0.453848 0.492856 0.011588
C15   C     C_R   0.523243 0.544099 0.513181 0.007661
C16   C     C_R   0.284133 0.000274 0.500070 0.551640
C17   C     C_R   0.715885 0.999659 0.500060 0.549936
C18   C     C_R   0.634389 0.545947 0.578701 0.117267
C19   C     C_R   0.363955 0.451450 0.428512 0.117307
C20   C     C_R   0.686855 0.458140 0.631779 -0.110528
C21   C     C_R   0.314406 0.540005 0.371238 -0.119947
C22   C     C_1   0.162624 0.000645 0.500296 -0.030729
C23   C     C_R   0.463466 0.324022 0.997137 0.036170
C24   C     C_1   0.837441 0.999215 0.500055 -0.028144
C25   C     C_1   0.060055 0.000292 0.500305 -0.052075
C26   C     C_1   0.940047 0.999560 0.500177 -0.048966
C27   C     C_R   0.472186 0.186018 0.201324 0.006443
C28   C     C_R   0.514541 0.814216 0.797622 0.006968
C29   C     C_R   0.461323 0.221368 0.021148 -0.111154
C30   C     C_R   0.494452 0.777732 0.972588 -0.111101
C31   C     C_R   0.466077 0.151519 0.122319 -0.011362
C32   C     C_R   0.506798 0.848498 0.873623 -0.011796
C33   C     C_R   0.472593 0.288951 0.175962 -0.147590
C34   C     C_R   0.485964 0.674336 0.996345 0.035404
C35   C     C_R   0.511147 0.710905 0.823735 -0.147595
C36   C     C_R   0.467594 0.359561 0.074561 0.025965
C37   C     C_R   0.491573 0.639018 0.921018 0.026806
C38   C     C_3   0.742518 0.643872 0.679903 -0.325099
C39   C     C_3   0.236448 0.300653 0.515877 -0.300559
C40   C     C_3   0.508845 0.958226 0.852149 -0.377311
C41   C     C_3   0.467746 0.042670 0.142491 -0.376214
C42   C     C_R   0.470239 0.464702 0.048332 0.035709
C43   C     C_R   0.478348 0.533278 0.945580 0.035374
C44   C     C_R   0.469980 0.493751 0.870365 -0.140513
C45   C     C_R   0.463716 0.503555 0.120868 -0.136852
C46   C     C_R   0.462346 0.391196 0.895934 -0.137096
Cu1   Cu    Cu3+1 0.469550 0.918260 0.475690 0.927854
Cu2   Cu    Cu3+1 0.530450 0.081740 0.524310 0.922869
H1    H     H_    0.456956 0.364406 0.835813 0.108617
H2    H     H_    0.232874 0.537691 0.318457 0.106579
H3    H     H_    0.544504 0.717066 0.558408 0.174184
H4    H     H_    0.453272 0.283515 0.443518 0.172011
H5    H     H_    0.289555 0.861485 0.319826 0.121280
H6    H     H_    0.711651 0.137985 0.678496 0.122865
H7    H     H_    0.777350 0.286283 0.723899 0.090929
H8    H     H_    0.225857 0.712556 0.275281 0.091816
H9    H     H_    0.769053 0.664417 0.535355 0.260998
H10   H     H_    0.769526 0.724139 0.669955 0.154732
H11   H     H_    0.820032 0.603235 0.720430 0.138470
H12   H     H_    0.464792 0.632517 0.152835 0.112012
H13   H     H_    0.669761 0.611606 0.726885 0.145409
H14   H     H_    0.237084 0.366749 0.359427 0.246898
H15   H     H_    0.190065 0.228127 0.510803 0.154232
H16   H     H_    0.170428 0.342209 0.520036 0.144356
H17   H     H_    0.302519 0.283531 0.586748 0.157535
H18   H     H_    0.434662 0.988536 0.791193 0.155128
H19   H     H_    0.498548 0.969365 0.920633 0.102017
H20   H     H_    0.594909 0.001945 0.828828 0.143789
H21   H     H_    0.548393 0.016039 0.196465 0.156299
H22   H     H_    0.386908 0.995537 0.174031 0.142461
H23   H     H_    0.524791 0.688405 0.766068 0.110659
H24   H     H_    0.469027 0.031954 0.071568 0.101788
H25   H     H_    0.480218 0.312750 0.237806 0.121556
H26   H     H_    0.457637 0.195816 0.960414 0.101984
H27   H     H_    0.489166 0.803185 0.031361 0.103752
H28   H     H_    0.465966 0.539644 0.790022 0.103323
H29   H     H_    0.449827 0.456774 0.198256 0.106171
H30   H     H_    0.769838 0.460215 0.682765 0.116395
N1    N     N_R   0.576230 0.204580 0.560790 -0.240132
N2    N     N_R   0.423770 0.795420 0.439210 -0.239975
N3    N     N_2   0.703040 0.638098 0.580400 -0.545367
N4    N     N_2   0.294035 0.359698 0.426740 -0.551777
O1    O     O_R   0.459870 0.022090 0.338120 -0.505974
O2    O     O_R   0.540130 0.977910 0.661880 -0.507827
O3    O     O_R   0.511290 0.160150 0.379180 -0.510410
O4    O     O_R   0.488710 0.839850 0.620820 -0.512890
O5    O     O_R   0.311490 0.930960 0.479480 -0.490936
O6    O     O_R   0.688510 0.069040 0.520520 -0.493376
O7    O     O_R   0.362910 0.069020 0.520540 -0.496679
O8    O     O_R   0.637090 0.930980 0.479460 -0.492063

loop_
_geom_bond_atom_site_label_1
_geom_bond_atom_site_label_2
_ccdc_geom_bond_type
C15   C18   A    
C34   C37   A    
C36   C42   A    
C43   C44   A    
C33   C36   A    
C27   C33   A    
C39   H16   S    
C46   H1    S    
C12   C28   S    
C23   C29   A    
Cu2   N1    S    
C41   H21   S    
C35   C37   A    
C24   C26   T    
C7    H4    S    
C10   C15   A    
C2    H12   S    
C17   O6    A    
C18   N3    S    
C12   O2    A    
C4    C13   A    
C44   H28   S    
C38   H10   S    
C3    H7    S    
C28   C35   A    
C22   C25   T    
C16   O5    A    
Cu2   O6    S    
Cu1   O1    S    
C5    N1    A    
C19   N4    S    
C38   H13   S    
C2    C34   A    
H14   N4    S    
C35   H23   S    
C16   O7    A    
C23   C46   A    
C40   H18   S    
C4    H8    S    
C39   H17   S    
Cu1   N2    S    
C21   H2    S    
C44   C46   A    
C2    C45   A    
C1    O3    A    
C11   C20   A    
C17   C24   S    
C30   C34   A    
C27   C31   A    
Cu1   O4    S    
C5    H6    S    
C28   C32   A    
C4    C6    A    
C29   H26   S    
C25   C26   S    
C40   H19   S    
Cu2   O2    S    
C42   C45   A    
Cu1   O5    S    
C37   C43   A    
C9    C14   A    
C6    N2    A    
Cu1   Cu2   S    
C8    N2    A    
C13   C21   A    
C9    C11   A    
C8    H3    S    
C41   H24   S    
C33   H25   S    
Cu2   O7    S    
C38   N3    S    
Cu1   O8    S    
H9    N3    S    
C42   C43   A    
C6    H5    S    
C7    N1    A    
C7    C9    A    
C16   C22   S    
C31   C41   S    
C19   C21   A    
C14   C15   A    
C14   C19   A    
C17   O8    A    
C39   N4    S    
C3    C5    A    
C10   C13   A    
C12   O4    A    
C1    O1    A    
C39   H15   S    
C20   H30   S    
C29   C31   A    
C30   C32   A    
C30   H27   S    
C18   C20   A    
C32   C40   S    
C3    C11   A    
C38   H11   S    
C8    C10   A    
C23   C36   A    
C40   H20   S    
C1    C27   S    
Cu2   O3    S    
C45   H29   S    
C41   H22   S    
