data_mof_unit_60511.cif
_audit_creation_date              2013-03-05T16:26:42-0500
_audit_creation_method            fapswitch 2.2
_symmetry_space_group_name_H-M    P1
_symmetry_Int_Tables_number       1
_space_group_crystal_system       triclinic
_cell_length_a                    19.202792
_cell_length_b                    18.512691
_cell_length_c                    27.410435
_cell_angle_alpha                 89.998834
_cell_angle_beta                  91.070036
_cell_angle_gamma                 89.983477
_cell_volume                      9742.58264687

loop_
_atom_site_label
_atom_site_type_symbol
_atom_site_description
_atom_site_fract_x
_atom_site_fract_y
_atom_site_fract_z
_atom_type_partial_charge
O1    O     O_R   0.398130 0.560830 0.500010 -0.571098
O2    O     O_R   0.601870 0.439170 0.499990 -0.579702
O3    O     O_R   0.601870 0.560830 0.499990 -0.571064
O4    O     O_R   0.398130 0.439170 0.500010 -0.580401
C1    C     C_R   0.365435 0.500178 0.501365 0.931301
C2    C     C_R   0.634570 0.500157 0.498596 0.930987
O5    O     O_R   0.500010 0.560810 0.428750 -0.578675
O6    O     O_R   0.499990 0.439190 0.571250 -0.586306
O7    O     O_R   0.499990 0.560810 0.571250 -0.578611
O8    O     O_R   0.500010 0.439190 0.428750 -0.586181
C3    C     C_R   0.498055 0.499884 0.405971 0.910791
C4    C     C_R   0.501950 0.499881 0.594027 0.911226
Zn1   Zn    Zn3+2 0.500000 0.581210 0.500000 1.117267
Zn2   Zn    Zn3+2 0.500000 0.418790 0.500000 1.100875
C5    C     C_R   0.432178 0.519098 0.171954 0.613284
C6    C     C_R   0.568441 0.519130 0.827980 0.613347
O9    O     O_2   0.380566 0.478886 0.190664 -0.455207
O10   O     O_2   0.619945 0.478769 0.809242 -0.455206
N1    N     N_R   0.488138 0.537839 0.201031 -0.344250
N2    N     N_R   0.512495 0.538044 0.798930 -0.344245
C7    C     C_R   0.546150 0.568974 0.181765 0.572304
C8    C     C_R   0.454591 0.569396 0.818220 0.572282
C9    C     C_R   0.540261 0.482931 0.274477 -0.109303
C10   C     C_R   0.460080 0.483173 0.725588 -0.109330
C11   C     C_R   0.542847 0.473202 0.324669 -0.094158
C12   C     C_R   0.457334 0.473387 0.675404 -0.094315
C13   C     C_R   0.430654 0.533054 0.331180 -0.167391
C14   C     C_R   0.569641 0.532890 0.668710 -0.167114
C15   C     C_R   0.431025 0.549365 0.281114 0.333585
C16   C     C_R   0.569454 0.549249 0.718771 0.333711
C17   C     C_R   0.486479 0.523677 0.252581 0.152776
C18   C     C_R   0.514012 0.523781 0.747391 0.152713
C19   C     C_R   0.491798 0.564648 0.101635 -0.086120
C20   C     C_R   0.508978 0.564822 0.898333 -0.086146
C21   C     C_R   0.429675 0.539580 0.122499 -0.139776
C22   C     C_R   0.571027 0.539572 0.877442 -0.139830
C23   C     C_R   0.369042 0.532300 0.092693 0.341366
C24   C     C_R   0.631652 0.532054 0.907234 0.341332
C25   C     C_R   0.550793 0.578337 0.131364 -0.027150
C26   C     C_R   0.450008 0.578752 0.868623 -0.027202
C27   C     C_R   0.489532 0.500415 0.353194 -0.076660
C28   C     C_R   0.510625 0.500411 0.646793 -0.076685
C29   C     C_R   0.439335 0.584045 0.970766 0.031807
C30   C     C_R   0.561507 0.583765 0.029222 0.031809
C31   C     C_R   0.566165 0.570084 0.978539 -0.006367
C32   C     C_R   0.434640 0.570260 0.021432 -0.006369
C33   C     C_R   0.505032 0.573970 0.949198 0.086737
C34   C     C_R   0.495781 0.573871 0.050778 0.086728
C35   C     C_R   0.381961 0.604543 0.940336 -0.045782
C36   C     C_R   0.618933 0.603995 0.059676 -0.045755
C37   C     C_R   0.388174 0.602402 0.889720 -0.142387
C38   C     C_R   0.612701 0.601790 0.110290 -0.142381
O11   O     O_2   0.401314 0.590612 0.788749 -0.517773
O12   O     O_2   0.599467 0.589990 0.211257 -0.517925
C39   C     C_R   0.372365 0.547488 0.042858 -0.248324
C40   C     C_R   0.628379 0.547156 0.957084 -0.248331
H1    H     H_    0.412803 0.446448 0.658737 0.185221
H2    H     H_    0.587273 0.446145 0.341410 0.185315
H3    H     H_    0.418572 0.461613 0.747476 0.182658
H4    H     H_    0.581777 0.461208 0.252657 0.182748
H5    H     H_    0.343811 0.617556 0.866867 0.204247
H6    H     H_    0.657098 0.616754 0.133160 0.204235
H7    H     H_    0.326148 0.537605 0.020840 0.192189
H8    H     H_    0.674577 0.537076 0.979087 0.192207
C41   C     C_R   0.259433 0.558731 0.533138 0.273547
C42   C     C_R   0.752881 0.453442 0.520353 0.226871
C43   C     C_R   0.740481 0.558860 0.466822 0.273676
C44   C     C_R   0.247241 0.453811 0.479149 0.226617
C45   C     C_R   0.187255 0.569177 0.530991 -0.120222
C46   C     C_R   0.825056 0.463266 0.521605 -0.105525
C47   C     C_R   0.812659 0.569272 0.468888 -0.120275
C48   C     C_R   0.175069 0.463670 0.477792 -0.105416
C49   C     C_R   0.145315 0.522307 0.502743 -0.089063
C50   C     C_R   0.854699 0.522156 0.496881 -0.089154
C51   C     C_R   0.289664 0.502477 0.505683 -0.269658
C52   C     C_R   0.710339 0.502412 0.494139 -0.269929
N3    N     N_R   0.033976 0.532369 0.543210 -0.143930
N4    N     N_R   0.966021 0.532718 0.456435 -0.143938
N5    N     N_R   0.964899 0.532480 0.541836 -0.132142
N6    N     N_R   0.035100 0.532907 0.457811 -0.132229
C53   C     C_R   0.930017 0.531683 0.498431 0.305247
C54   C     C_R   0.069984 0.531762 0.501213 0.305196
C55   C     C_R   0.483462 0.272038 0.458224 0.373877
C56   C     C_R   0.540239 0.726972 0.533209 0.398321
C57   C     C_R   0.516544 0.272043 0.541783 0.373518
C58   C     C_R   0.459752 0.727009 0.466804 0.398248
C59   C     C_R   0.481884 0.195257 0.457812 -0.186804
C60   C     C_R   0.540466 0.803659 0.534136 -0.181377
C61   C     C_R   0.518006 0.195254 0.542228 -0.186885
C62   C     C_R   0.459506 0.803696 0.465898 -0.181372
C63   C     C_R   0.499919 0.155171 0.500027 -0.090285
C64   C     C_R   0.499981 0.843162 0.500022 -0.094086
N7    N     N_R   0.500000 0.310560 0.500000 -0.197746
N8    N     N_R   0.500000 0.689440 0.500000 -0.201894
N9    N     N_R   0.483248 0.034702 0.540667 -0.144914
N10   N     N_R   0.516387 0.962471 0.459294 -0.135156
N11   N     N_R   0.516634 0.034706 0.459391 -0.144872
N12   N     N_R   0.483531 0.962467 0.540764 -0.135206
C65   C     C_R   0.499970 0.924635 0.500028 0.325597
C66   C     C_R   0.499929 0.072905 0.500029 0.329634
C67   C     C_1   0.369303 0.547225 0.359534 0.414279
N13   N     N_1   0.319765 0.557630 0.381877 -0.083582
C68   C     C_1   0.630927 0.546870 0.640251 0.413578
N14   N     N_1   0.680409 0.557117 0.617822 -0.084390
C69   C     C_1   0.156468 0.628006 0.558069 0.337031
N15   N     N_1   0.131874 0.674960 0.579673 -0.107031
C70   C     C_1   0.868598 0.410503 0.546712 0.338316
N16   N     N_1   0.903317 0.368365 0.566711 -0.111869
C71   C     C_1   0.843339 0.628342 0.442008 0.337118
N17   N     N_1   0.867847 0.675490 0.420562 -0.107071
C72   C     C_1   0.131655 0.411200 0.452314 0.338343
N18   N     N_1   0.097043 0.369300 0.432013 -0.111749
N19   N     N_R   0.467730 0.308707 0.413601 0.220690
O13   O     O_R   0.404450 0.330295 0.404541 -0.290313
O14   O     O_R   0.511485 0.305176 0.377993 -0.383576
N20   N     N_R   0.583552 0.688716 0.567138 0.208201
O15   O     O_R   0.648253 0.677729 0.556098 -0.358831
O16   O     O_R   0.566386 0.688260 0.612814 -0.375618
N21   N     N_R   0.532597 0.308733 0.586343 0.220682
O17   O     O_R   0.595795 0.330877 0.594981 -0.290485
O18   O     O_R   0.489314 0.304950 0.622222 -0.383614
N22   N     N_R   0.416437 0.688794 0.432875 0.208123
O19   O     O_R   0.351759 0.677771 0.443947 -0.359171
O20   O     O_R   0.433547 0.688432 0.387188 -0.375711
C73   C     C_1   0.458485 0.158799 0.413694 0.357202
N23   N     N_1   0.439689 0.129872 0.378406 -0.101960
C74   C     C_1   0.584672 0.841155 0.569200 0.356393
N24   N     N_1   0.620026 0.871112 0.597226 -0.103363
C75   C     C_1   0.541443 0.158778 0.586336 0.357241
N25   N     N_1   0.560270 0.129836 0.621616 -0.101957
C76   C     C_1   0.415282 0.841229 0.430849 0.356391
N26   N     N_1   0.379914 0.871216 0.402834 -0.103399
N27   N     N_R   0.377824 0.594871 0.259799 0.234119
O21   O     O_R   0.312222 0.581230 0.266490 -0.278239
O22   O     O_R   0.394975 0.650019 0.233155 -0.324844
N28   N     N_R   0.622830 0.594592 0.739995 0.234209
O23   O     O_R   0.688375 0.580722 0.733216 -0.278320
O24   O     O_R   0.605900 0.649822 0.766642 -0.324689
N29   N     N_R   0.302616 0.514092 0.112472 0.252756
O25   O     O_R   0.262287 0.468117 0.089788 -0.320777
O26   O     O_R   0.276843 0.553672 0.146977 -0.243216
N30   N     N_R   0.698028 0.513671 0.887428 0.252763
O27   O     O_R   0.738271 0.467556 0.910080 -0.320777
O28   O     O_R   0.723860 0.553198 0.852925 -0.243297
C77   C     C_1   0.319211 0.636297 0.959266 0.210519
N31   N     N_1   0.268976 0.661900 0.974303 -0.110451
C78   C     C_1   0.681777 0.635563 0.040782 0.210490
N32   N     N_1   0.732087 0.661018 0.025775 -0.110457
N33   N     N_R   0.301955 0.603970 0.564273 0.227623
O29   O     O_R   0.342523 0.575133 0.597463 -0.389107
O30   O     O_R   0.300557 0.673874 0.559375 -0.327199
N34   N     N_R   0.723142 0.394414 0.546563 0.226480
O31   O     O_R   0.703571 0.336826 0.522816 -0.328380
O32   O     O_R   0.730742 0.391462 0.593790 -0.318949
N35   N     N_R   0.697870 0.604323 0.435882 0.227691
O33   O     O_R   0.657297 0.575720 0.402611 -0.388614
O34   O     O_R   0.699224 0.674190 0.441017 -0.327286
N36   N     N_R   0.277121 0.395062 0.452720 0.226131
O35   O     O_R   0.296269 0.337072 0.476191 -0.328232
O36   O     O_R   0.270082 0.392838 0.405442 -0.319644

loop_
_geom_bond_atom_site_label_1
_geom_bond_atom_site_label_2
_geom_bond_distance
_ccdc_geom_bond_type
C36   C78   1.445607 S    
C55   C59   1.421795 A    
C67   N13   1.157038 T    
C59   C63   1.412257 A    
N35   O34   1.301279 A    
C55   N19   1.426250 S    
C15   N27   1.439420 S    
C72   N18   1.157392 T    
C37   H5    1.084772 S    
O3    C2    1.287589 A    
N1    C17   1.438052 S    
C77   N31   1.157462 T    
N9    N12   1.337280 A    
C44   C51   1.408066 A    
C5    N1    1.370617 A    
C19   C25   1.406174 A    
O1    C1    1.287465 A    
N1    C7    1.369091 A    
C10   C12   1.387484 A    
C75   N25   1.157481 T    
C60   C74   1.447804 S    
C46   C70   1.450811 S    
N33   O30   1.301255 A    
C7    O12   1.349962 S    
N4    N6    1.326351 A    
C13   C15   1.405296 A    
C55   N7    1.381027 A    
N10   C65   1.360119 A    
C61   C75   1.449036 S    
N20   O15   1.300183 A    
C43   N35   1.439037 S    
C57   N21   1.426293 S    
O7    Zn1   1.989166 S    
C46   C50   1.409458 A    
C4    C28   1.452829 S    
C58   N8    1.372012 A    
C78   N32   1.157465 T    
C57   N7    1.381056 A    
C60   C64   1.409265 A    
C31   C40   1.406850 A    
C35   C37   1.395315 A    
C39   H7    1.079566 S    
C32   C39   1.406839 A    
C58   N22   1.424334 S    
C36   C38   1.395340 A    
C70   N16   1.157397 T    
C40   H8    1.079559 S    
C45   C49   1.406468 A    
C63   C66   1.522971 S    
C61   C63   1.412260 A    
C68   N14   1.157041 T    
Zn2   N7    2.003627 S    
C43   C47   1.399501 A    
O3    Zn1   1.992137 S    
C44   C48   1.397624 A    
N21   O18   1.301333 A    
C25   C38   1.400498 A    
C48   C72   1.450863 S    
C42   C52   1.408240 A    
C56   N20   1.424414 S    
N36   O36   1.301097 A    
C24   N30   1.435528 S    
O2    C2    1.292972 A    
C44   N36   1.432506 S    
C5    C21   1.407551 A    
C29   C32   1.416564 A    
C8    O11   1.349975 S    
C31   C33   1.412364 A    
C9    H4    1.082875 S    
O6    C4    1.285593 A    
C32   C34   1.412342 A    
C14   C68   1.447387 S    
N28   O24   1.301267 A    
C58   C62   1.419893 A    
C11   C27   1.393895 A    
N5    C53   1.354483 A    
C45   C69   1.450010 S    
N9    C66   1.362730 A    
C29   C35   1.420901 A    
O6    Zn2   1.989182 S    
C13   C67   1.447354 S    
C9    C17   1.404343 A    
N36   O35   1.300962 A    
C1    C51   1.462619 S    
O5    C3    1.289425 A    
C10   C18   1.404363 A    
C42   N34   1.432499 S    
N27   O21   1.301213 A    
C13   C27   1.407696 A    
C62   C64   1.409239 A    
C7    C25   1.396850 A    
O5    Zn1   1.989184 S    
C6    N2    1.370640 A    
C8    C26   1.396790 A    
N10   N11   1.337275 A    
N3    N5    1.326304 A    
C35   C77   1.445586 S    
C56   N8    1.372048 A    
N21   O17   1.298641 A    
C62   C76   1.447816 S    
N6    C54   1.354510 A    
N34   O32   1.301150 A    
C16   N28   1.439404 S    
O8    Zn2   1.989169 S    
C73   N23   1.157487 T    
N30   O28   1.301401 A    
O1    Zn1   1.992354 S    
C11   H2    1.083666 S    
C50   C53   1.456897 S    
N22   O20   1.300632 A    
C74   N24   1.157305 T    
C49   C54   1.456888 S    
C59   C73   1.449042 S    
N11   C66   1.362721 A    
C30   C31   1.416609 A    
C12   C28   1.393842 A    
N19   O13   1.298642 A    
N2    C18   1.438025 S    
C30   C36   1.420915 A    
C5    O9    1.348656 S    
C57   C61   1.421873 A    
C21   C23   1.416277 A    
O7    C4    1.289416 A    
C56   C60   1.419922 A    
N2    C8    1.369076 A    
C48   C49   1.409567 A    
C47   C50   1.406320 A    
N29   O25   1.301212 A    
C2    C52   1.462973 S    
C20   C33   1.407925 A    
C26   C37   1.400481 A    
C69   N15   1.157399 T    
C41   C51   1.415580 A    
Zn1   N8    2.003627 S    
C22   C24   1.416298 A    
C14   C16   1.405310 A    
C15   C17   1.415150 A    
O4    Zn2   1.992140 S    
C38   H6    1.084773 S    
N33   O29   1.301069 A    
C6    C22   1.407594 A    
C16   C18   1.415133 A    
N29   O26   1.301426 A    
N4    C53   1.353955 A    
C42   C46   1.397669 A    
N3    C54   1.353934 A    
C10   H3    1.082875 S    
C41   C45   1.399536 A    
C47   C71   1.449939 S    
C14   C28   1.407728 A    
C19   C21   1.411148 A    
N20   O16   1.300643 A    
C3    C27   1.452873 S    
C20   C22   1.411132 A    
C9    C11   1.387500 A    
C41   N33   1.439071 S    
O2    Zn2   1.992350 S    
C12   H1    1.083661 S    
O8    C3    1.285613 A    
C23   C39   1.397268 A    
C30   C34   1.415499 A    
O4    C1    1.292914 A    
C24   C40   1.397293 A    
N34   O31   1.300995 A    
C6    O10   1.348647 S    
N12   C65   1.360135 A    
C23   N29   1.435511 S    
N35   O33   1.301081 A    
N27   O22   1.301269 A    
C19   C34   1.407920 A    
N30   O27   1.301236 A    
C20   C26   1.406189 A    
C43   C52   1.415705 A    
N22   O19   1.300186 A    
C71   N17   1.157359 T    
C29   C33   1.415472 A    
N28   O23   1.301214 A    
C76   N26   1.157313 T    
C64   C65   1.508299 S    
N19   O14   1.301327 A    
