data_mof_unit_12001.cif
_audit_creation_date              2012-12-10T18:23:01-0500
_audit_creation_method            fapswitch 2.2
_symmetry_space_group_name_H-M    P1
_symmetry_Int_Tables_number       1
_space_group_crystal_system       triclinic
_cell_length_a                    14.835691
_cell_length_b                    14.346879
_cell_length_c                    10.517397
_cell_angle_alpha                 91.206975
_cell_angle_beta                  86.14357
_cell_angle_gamma                 91.190528
_cell_volume                      2232.59946466

loop_
_atom_site_label
_atom_site_type_symbol
_atom_type_description
_atom_site_fract_x
_atom_site_fract_y
_atom_site_fract_z
_atom_type_partial_charge
C1    C     C_R   0.327100 0.498739 0.502480 0.868537
C2    C     C_R   0.959533 0.370599 0.335826 0.139605
C3    C     C_R   0.557700 0.798624 0.413307 0.223561
C4    C     C_R   0.435781 0.198693 0.573680 0.225632
C5    C     C_R   0.454934 0.802279 0.596911 0.207152
C6    C     C_R   0.558437 0.200955 0.414531 0.181133
C7    C     C_R   0.445762 0.900625 0.586748 -0.005224
C8    C     C_R   0.559866 0.100545 0.412945 0.020499
C9    C     C_R   0.557873 0.899104 0.410030 0.015949
C10   C     C_R   0.442693 0.099904 0.583333 -0.015003
C11   C     C_R   0.500598 0.949798 0.496610 0.039915
C12   C     C_R   0.672732 0.500749 0.497412 0.856693
C13   C     C_R   0.501461 0.050266 0.497942 0.043334
C14   C     C_R   0.388142 0.951992 0.672879 -0.203202
C15   C     C_R   0.618188 0.048349 0.328163 -0.209221
C16   C     C_R   0.615484 0.951000 0.324425 -0.197683
C17   C     C_R   0.388196 0.048803 0.673160 -0.198405
C18   C     C_R   0.499760 0.499507 0.258301 0.931687
C19   C     C_R   0.500224 0.500592 0.741719 0.921311
C20   C     C_3   0.480510 0.584793 0.045211 0.417704
C21   C     C_3   0.519231 0.415890 0.954916 0.411665
C22   C     C_3   0.561958 0.560955 0.955170 0.379756
C23   C     C_R   0.950869 0.476060 0.524046 -0.069242
C24   C     C_3   0.437828 0.439730 0.044952 0.447326
C25   C     C_3   0.416089 0.525157 0.966376 -0.476488
C26   C     C_3   0.583631 0.475531 0.033991 -0.503591
C27   C     C_3   0.499348 0.500972 0.876317 -0.184368
C28   C     C_3   0.500308 0.499613 0.123765 -0.132271
C29   C     C_R   0.819119 0.452130 0.401002 0.383202
C30   C     C_R   0.182355 0.513845 0.631221 0.388517
C31   C     C_R   0.768871 0.500967 0.496781 -0.159867
C32   C     C_R   0.230418 0.492829 0.514934 -0.151185
C33   C     C_R   0.807105 0.536107 0.604293 -0.297753
C34   C     C_R   0.044385 0.473435 0.528976 -0.070268
C35   C     C_R   0.188697 0.451233 0.414679 -0.297506
C36   C     C_R   0.898833 0.525273 0.620421 0.077320
C37   C     C_R   0.096196 0.433961 0.423420 0.060415
C38   C     C_3   0.880205 0.610168 0.837072 -0.409199
C39   C     C_3   0.827061 0.540940 0.923209 -0.820009
C40   C     C_3   0.112133 0.323933 0.227927 -0.383487
C41   C     C_3   0.133231 0.383233 0.110171 -0.842884
C42   C     C_3   0.070540 0.566773 0.873875 -0.317580
C43   C     C_3   0.112662 0.664987 0.883486 -0.774301
C44   C     C_3   0.911708 0.289082 0.270431 -0.323962
C45   C     C_R   0.909376 0.432149 0.419624 0.007183
C46   C     C_3   0.902730 0.302837 0.127868 -0.776089
C47   C     C_3   0.631127 0.747942 0.332863 -0.340564
C48   C     C_3   0.723772 0.761359 0.387671 -0.898313
C49   C     C_3   0.343901 0.238544 0.616749 -0.346293
C50   C     C_3   0.339682 0.285226 0.748743 -0.794007
C51   C     C_3   0.441510 0.765934 0.731567 -0.386817
C52   C     C_3   0.350186 0.718075 0.757827 -0.789591
C53   C     C_3   0.616319 0.251608 0.312284 -0.387302
C54   C     C_3   0.578520 0.239945 0.180832 -0.774452
C55   C     C_R   0.086660 0.512124 0.636714 0.020553
C56   C     C_R   0.938225 0.559802 0.731876 0.115584
C57   C     C_R   0.054856 0.377521 0.330266 0.115789
C58   C     C_R   0.031888 0.546907 0.744468 0.108282
H1    H     H_    0.348246 0.544491 0.938735 0.198816
H2    H     H_    0.598119 0.330811 0.861618 0.340257
H3    H     H_    0.647317 0.661097 0.976733 0.332869
H4    H     H_    0.344542 0.347624 0.023706 0.337871
H5    H     H_    0.728791 0.465464 0.275070 0.308412
H6    H     H_    0.286743 0.504665 0.732833 0.302513
H7    H     H_    0.776177 0.501111 0.870421 0.273097
H8    H     H_    0.873449 0.490825 0.961691 0.240773
H9    H     H_    0.791827 0.578896 0.004447 0.255121
H10   H     H_    0.920528 0.656610 0.897129 0.207662
H11   H     H_    0.834257 0.660088 0.796758 0.212867
H12   H     H_    0.650811 0.455458 0.063675 0.184779
H13   H     H_    0.069771 0.406311 0.071691 0.248045
H14   H     H_    0.174462 0.445962 0.133191 0.271143
H15   H     H_    0.171296 0.341502 0.035259 0.243879
H16   H     H_    0.175669 0.299791 0.265182 0.207131
H17   H     H_    0.079468 0.257976 0.198040 0.201503
H18   H     H_    0.159658 0.667832 0.961360 0.249110
H19   H     H_    0.150320 0.684748 0.793173 0.286350
H20   H     H_    0.060027 0.717720 0.905156 0.216003
H21   H     H_    0.019186 0.557706 0.954204 0.179927
H22   H     H_    0.118955 0.512580 0.895442 0.241201
H23   H     H_    0.762280 0.569494 0.675582 0.199991
H24   H     H_    0.894672 0.377392 0.107036 0.282109
H25   H     H_    0.962577 0.276513 0.070498 0.229430
H26   H     H_    0.842626 0.263181 0.097070 0.239761
H27   H     H_    0.946212 0.222741 0.285755 0.154754
H28   H     H_    0.843595 0.276575 0.317821 0.220376
H29   H     H_    0.720582 0.739865 0.488743 0.284914
H30   H     H_    0.774036 0.717619 0.332322 0.250338
H31   H     H_    0.747933 0.834891 0.383276 0.253271
H32   H     H_    0.619126 0.673458 0.326557 0.265142
H33   H     H_    0.633267 0.769763 0.232133 0.178455
H34   H     H_    0.230795 0.431496 0.330955 0.196722
H35   H     H_    0.270571 0.276678 0.795118 0.209737
H36   H     H_    0.353073 0.360720 0.741789 0.266658
H37   H     H_    0.387971 0.253486 0.810527 0.287821
H38   H     H_    0.316350 0.279757 0.542847 0.227877
H39   H     H_    0.291007 0.182642 0.619189 0.157308
H40   H     H_    0.294907 0.762131 0.728577 0.236591
H41   H     H_    0.348546 0.651992 0.704545 0.316593
H42   H     H_    0.338757 0.703905 0.860986 0.241074
H43   H     H_    0.499634 0.725515 0.756108 0.257474
H44   H     H_    0.446598 0.823149 0.803642 0.173559
H45   H     H_    0.342186 0.918009 0.742179 0.157495
H46   H     H_    0.509101 0.267339 0.182710 0.313712
H47   H     H_    0.622610 0.279194 0.110416 0.261645
H48   H     H_    0.575750 0.166197 0.147994 0.245039
H49   H     H_    0.622068 0.325802 0.331178 0.281241
H50   H     H_    0.687096 0.228024 0.309615 0.176337
H51   H     H_    0.667252 0.081028 0.262147 0.153107
H52   H     H_    0.660714 0.918036 0.253372 0.153407
H53   H     H_    0.345430 0.083052 0.746513 0.161349
H54   H     H_    0.459169 0.714488 0.022164 0.332555
N1    N     N_R   0.500000 0.750030 0.500000 -0.131301
N2    N     N_R   0.500000 0.249970 0.500000 -0.128463
O1    O     O_R   0.367850 0.580280 0.500030 -0.599248
O2    O     O_3   0.536913 0.326438 0.905326 -0.761379
O3    O     O_3   0.624694 0.625911 0.902893 -0.783737
O4    O     O_3   0.374553 0.375327 0.097271 -0.768069
O5    O     O_3   0.783148 0.428385 0.286333 -0.807025
O6    O     O_3   0.228162 0.536568 0.737525 -0.824944
O7    O     O_R   0.632150 0.419720 0.499970 -0.635262
O8    O     O_R   0.632150 0.580280 0.499970 -0.628790
O9    O     O_R   0.367850 0.419720 0.500030 -0.632321
O10   O     O_R   0.499970 0.580260 0.313950 -0.607027
O11   O     O_R   0.500030 0.419740 0.686050 -0.598019
O12   O     O_R   0.500030 0.580260 0.686050 -0.612082
O13   O     O_R   0.499970 0.419740 0.313950 -0.616794
O14   O     O_3   0.462117 0.673646 0.096500 -0.750571
Zn1   Zn    Zn3+2 0.500000 0.607200 0.500000 0.959800
Zn2   Zn    Zn3+2 0.500000 0.392800 0.500000 0.947882

loop_
_geom_bond_atom_site_label_1
_geom_bond_atom_site_label_2
_ccdc_geom_bond_type
C22   O3    S    
C21   C26   S    
C42   H22   S    
C8    C13   A    
C23   C45   A    
C34   C37   A    
C39   H7    S    
C15   H51   S    
O7    Zn2   S    
C42   C58   S    
C2    C57   A    
C16   H52   S    
C53   C54   S    
C43   H20   S    
C7    C11   A    
C29   O5    S    
N1    Zn1   S    
C43   H19   S    
C36   C56   A    
C4    N2    A    
C35   C37   A    
C9    C16   A    
C20   O14   S    
C38   C39   S    
C50   H37   S    
C20   C25   S    
C10   C17   A    
C15   C16   A    
C33   C36   A    
C3    C47   S    
C6    N2    A    
C46   H24   S    
O11   Zn2   S    
C7    C14   A    
C12   O7    A    
C2    C44   S    
C48   H30   S    
C19   C27   S    
O8    Zn1   S    
C41   H13   S    
C35   H34   S    
C21   C27   S    
C38   H11   S    
C34   C55   A    
N2    Zn2   S    
C14   C17   A    
C39   H9    S    
C21   O2    S    
C44   H28   S    
C17   H53   S    
C44   C46   S    
C2    C45   A    
H4    O4    S    
C54   H48   S    
H3    O3    S    
C51   C52   S    
C32   C35   A    
C18   C28   S    
C24   C25   S    
C3    N1    A    
C5    C7    A    
C50   H36   S    
C6    C8    A    
C20   C28   S    
O12   Zn1   S    
C41   H15   S    
C19   O11   A    
C1    C32   S    
C29   C45   A    
C51   H44   S    
C1    O9    A    
C3    C9    A    
C18   O13   A    
H5    O5    S    
C53   H49   S    
C47   C48   S    
C23   C34   A    
C31   C33   A    
C48   H29   S    
C38   C56   S    
C9    C11   A    
C41   H14   S    
C46   H26   S    
C40   C41   S    
C20   C22   S    
C23   C36   A    
C8    C15   A    
C22   C27   S    
O9    Zn2   S    
C26   H12   S    
C39   H8    S    
H2    O2    S    
C51   H43   S    
C42   C43   S    
C21   C24   S    
C6    C53   S    
C4    C10   A    
C44   H27   S    
O1    Zn1   S    
C54   H46   S    
C43   H18   S    
C40   H16   S    
C40   C57   S    
C52   H41   S    
C54   H47   S    
C5    N1    A    
C47   H33   S    
C24   C28   S    
C38   H10   S    
C10   C13   A    
C50   H35   S    
C25   C27   S    
C25   H1    S    
C30   C55   A    
C19   O12   A    
C26   C28   S    
H6    O6    S    
C40   H17   S    
C4    C49   S    
C48   H31   S    
O13   Zn2   S    
C12   C31   S    
C30   C32   A    
C11   C13   A    
C53   H50   S    
C14   H45   S    
C30   O6    S    
C52   H40   S    
C24   O4    S    
C47   H32   S    
C56   C58   A    
O10   Zn1   S    
C49   H38   S    
H54   O14   S    
C49   H39   S    
C46   H25   S    
C42   H21   S    
C12   O8    A    
C29   C31   A    
C49   C50   S    
C22   C26   S    
C55   C58   A    
C52   H42   S    
C5    C51   S    
C1    O1    A    
C33   H23   S    
C37   C57   A    
C18   O10   A    
