data_mof_unit_36436.cif
_audit_creation_date              2013-03-05T15:45:16-0500
_audit_creation_method            fapswitch 2.2
_symmetry_space_group_name_H-M    P1
_symmetry_Int_Tables_number       1
_space_group_crystal_system       triclinic
_cell_length_a                    16.961189
_cell_length_b                    7.299083
_cell_length_c                    16.791218
_cell_angle_alpha                 90.001643
_cell_angle_beta                  100.752326
_cell_angle_gamma                 90.003449
_cell_volume                      2042.27433568

loop_
_atom_site_label
_atom_site_type_symbol
_atom_site_description
_atom_site_fract_x
_atom_site_fract_y
_atom_site_fract_z
_atom_type_partial_charge
O1    O     O_R   0.579510 0.506290 0.439030 -0.568268
O2    O     O_R   0.420490 0.006290 0.560970 -0.568274
O3    O     O_R   0.412540 0.170090 0.405290 -0.534074
O4    O     O_R   0.587460 0.670090 0.594710 -0.534070
C1    C     C_R   0.386079 0.345675 0.382320 0.994657
C2    C     C_R   0.613915 0.845683 0.617686 0.994588
O5    O     O_R   0.578390 0.176230 0.429330 -0.596448
O6    O     O_R   0.421610 0.676230 0.570670 -0.596456
O7    O     O_R   0.587530 0.011250 0.585190 -0.578460
O8    O     O_R   0.412470 0.511250 0.414810 -0.578441
C3    C     C_R   0.603074 0.343749 0.413122 0.970715
C4    C     C_R   0.396930 0.843748 0.586884 0.970642
O9    O     O_3   0.502800 0.340940 0.551110 -0.261588
O10   O     O_3   0.497200 0.840940 0.448890 -0.261556
V1    V     V_3+5 0.499480 0.064020 0.490520 1.281093
V2    V     V_3+5 0.500520 0.564020 0.509480 1.281079
C5    C     C_R   0.165796 0.919946 0.860240 -0.234850
C6    C     C_R   0.834204 0.419937 0.139762 -0.234899
C7    C     C_R   0.335862 0.840389 0.640146 -0.133567
C8    C     C_R   0.664145 0.340383 0.359863 -0.133541
C9    C     C_R   0.234094 0.664704 0.691458 -0.068026
C10   C     C_R   0.765872 0.164621 0.308517 -0.067988
C11   C     C_R   0.288242 0.683260 0.639541 -0.073472
C12   C     C_R   0.711736 0.183195 0.360444 -0.073413
C13   C     C_R   0.329133 0.979318 0.696386 -0.134459
C14   C     C_R   0.670896 0.479350 0.303641 -0.134447
C15   C     C_R   0.276140 0.959386 0.752216 0.078448
C16   C     C_R   0.723880 0.459402 0.247803 0.078440
C17   C     C_R   0.227298 0.799779 0.749404 0.076839
C18   C     C_R   0.772690 0.299743 0.250588 0.076895
C19   C     C_R   0.173457 0.777349 0.804485 0.181922
C20   C     C_R   0.826523 0.277314 0.195498 0.181982
C21   C     C_R   0.216795 0.073137 0.863627 -0.195004
C22   C     C_R   0.783230 0.573162 0.136399 -0.194929
C23   C     C_R   0.271788 0.092792 0.811775 0.208521
C24   C     C_R   0.728250 0.592842 0.188263 0.208499
H1    H     H_    0.214327 0.180050 0.907849 0.173194
H2    H     H_    0.785710 0.680095 0.092190 0.173235
H3    H     H_    0.199211 0.540260 0.685750 0.170399
H4    H     H_    0.800731 0.040125 0.314209 0.170390
H5    H     H_    0.293634 0.570441 0.599262 0.162800
H6    H     H_    0.706332 0.070341 0.400715 0.162800
H7    H     H_    0.367186 0.098533 0.697774 0.176821
H8    H     H_    0.632867 0.598608 0.302272 0.176820
C25   C     C_3   0.744371 0.807462 0.841462 -0.582670
C26   C     C_3   0.255667 0.307651 0.158506 -0.582402
H9    H     H_    0.767655 0.686437 0.878898 0.211792
H10   H     H_    0.232414 0.186683 0.120955 0.211692
H11   H     H_    0.718117 0.895761 0.883840 0.218033
H12   H     H_    0.281953 0.396141 0.116197 0.218012
C27   C     C_3   0.677093 0.756482 0.768179 0.461044
C28   C     C_3   0.322914 0.256567 0.231805 0.460973
H13   H     H_    0.842425 0.660847 0.755566 0.175705
H14   H     H_    0.157597 0.160784 0.244365 0.175703
C29   C     C_3   0.836852 0.805644 0.736931 0.157660
C30   C     C_3   0.163155 0.305565 0.263038 0.157636
C31   C     C_3   0.776677 0.098558 0.782433 0.040115
C32   C     C_3   0.223315 0.598603 0.217607 0.040063
C33   C     C_3   0.813816 0.911605 0.811641 -0.260441
C34   C     C_3   0.186193 0.411641 0.188352 -0.260401
H15   H     H_    0.762313 0.171883 0.835974 0.161193
H16   H     H_    0.237688 0.672016 0.164087 0.161195
C35   C     C_3   0.686317 0.865930 0.688485 -0.409933
C36   C     C_3   0.313677 0.365934 0.311524 -0.409920
C37   C     C_3   0.768453 0.819105 0.659228 0.346523
C38   C     C_3   0.231540 0.319023 0.340760 0.346561
C39   C     C_3   0.695339 0.068430 0.719164 0.121027
C40   C     C_3   0.304656 0.568477 0.280885 0.121010
H17   H     H_    0.696478 0.162339 0.667770 0.194614
H18   H     H_    0.303513 0.662421 0.332275 0.194640
O11   O     O_R   0.087500 0.266000 0.085220 -0.592874
O12   O     O_R   0.912500 0.766000 0.914780 -0.592897
O13   O     O_R   0.921600 0.589950 0.070670 -0.581878
O14   O     O_R   0.078400 0.089950 0.929330 -0.581882
C41   C     C_R   0.896312 0.422030 0.086768 0.991858
C42   C     C_R   0.103687 0.922034 0.913232 0.991821
O15   O     O_R   0.087460 0.596020 0.094710 -0.573560
O16   O     O_R   0.912540 0.096020 0.905290 -0.573549
O17   O     O_R   0.079520 0.760970 0.939020 -0.574536
O18   O     O_R   0.920480 0.260970 0.060980 -0.574520
C43   C     C_R   0.114983 0.426953 0.117391 1.007377
C44   C     C_R   0.885024 0.926940 0.882603 1.007402
O19   O     O_3   0.997180 0.425140 0.948910 -0.264882
O20   O     O_3   0.002820 0.925140 0.051090 -0.264868
V3    V     V_3+5 0.000520 0.702080 0.009480 1.243598
V4    V     V_3+5 0.999480 0.202080 0.990520 1.243603
I1    I     I_    0.105443 0.527116 0.801900 -0.222238
I2    I     I_    0.894502 0.027053 0.198044 -0.222291
I3    I     I_    0.689543 0.494967 0.750471 -0.308791
I4    I     I_    0.310367 0.994998 0.249412 -0.309008
Br1   Br    Br    0.767959 0.599837 0.591232 -0.418120
Br2   Br    Br    0.232045 0.099708 0.408738 -0.418122
I5    I     I_    0.867677 0.272504 0.741983 -0.161297
I6    I     I_    0.132283 0.772403 0.258083 -0.161161
Br3   Br    Br    0.596222 0.131921 0.761935 -0.444791
Br4   Br    Br    0.403820 0.631967 0.238175 -0.444772
Br5   Br    Br    0.945168 0.847736 0.715901 -0.384257
Br6   Br    Br    0.054829 0.347511 0.284063 -0.384249
I7    I     I_    0.792540 0.009234 0.566716 -0.188519
I8    I     I_    0.207421 0.509067 0.433291 -0.188535
I9    I     I_    0.347742 0.327024 0.830310 -0.286834
I10   I     I_    0.652353 0.827178 0.169784 -0.287016
I11   I     I_    0.560910 0.713016 0.803188 -0.172083
I12   I     I_    0.439125 0.213100 0.196852 -0.172105

loop_
_geom_bond_atom_site_label_1
_geom_bond_atom_site_label_2
_geom_bond_distance
_ccdc_geom_bond_type
C32   H16   1.111708 S    
C35   C37   1.598230 S    
C6    C41   1.500491 S    
C29   C33   1.583475 S    
C15   C17   1.425126 A    
C12   H6    1.080426 S    
C28   I4    1.949679 S    
O1    C3    1.349609 A    
C33   C44   1.534272 S    
C30   Br6   1.958641 S    
O2    C4    1.349603 A    
C13   H7    1.081026 S    
C2    O7    1.366540 A    
O12   V3    2.022213 S    
C14   H8    1.081132 S    
O5    C3    1.336757 A    
C40   Br4   2.002002 S    
O14   C42   1.342575 A    
C36   C40   1.563457 S    
O20   V4    2.258830 S    
C31   C33   1.544116 S    
C25   C27   1.559074 S    
C27   I11   2.182121 S    
C20   I2    2.156348 S    
C26   C28   1.559189 S    
C24   I10   2.128446 S    
C25   H9    1.113057 S    
C38   I8    2.177760 S    
O18   V4    1.992860 S    
C28   I12   2.182195 S    
C8    C12   1.401853 A    
C5    C42   1.500478 S    
C42   O17   1.343058 A    
O15   C43   1.348913 A    
C41   O18   1.343058 A    
O16   V4    2.008538 S    
O5    V1    2.007693 S    
O15   V3    2.008636 S    
O6    V2    2.007735 S    
C31   I5    2.201499 S    
C39   Br3   2.001840 S    
O13   C41   1.342571 A    
C5    C21   1.408285 A    
C31   C39   1.591648 S    
C29   C37   1.578966 S    
H14   C30   1.101321 S    
H13   C29   1.101286 S    
C35   C39   1.563319 S    
C3    C8    1.489601 S    
C19   I1    2.156320 S    
C27   C35   1.591068 S    
O20   V3    1.769253 S    
C37   I7    2.177769 S    
O4    C2    1.388582 A    
C28   C36   1.591152 S    
C38   Br2   1.965187 S    
C15   C23   1.407557 A    
C9    C17   1.404922 A    
C21   H1    1.083355 S    
C30   C34   1.583580 S    
C1    C36   1.548661 S    
C39   H17   1.105064 S    
C36   C38   1.598205 S    
C2    C35   1.548681 S    
O4    V2    2.008565 S    
C7    C11   1.401667 A    
O11   V4    2.022151 S    
C34   C43   1.534292 S    
O16   C44   1.348917 A    
C9    H3    1.078460 S    
C25   H11   1.112776 S    
O6    C4    1.336776 A    
C10   H4    1.078635 S    
C29   Br5   1.958632 S    
O1    V2    1.990798 S    
O14   V4    2.007626 S    
O2    V1    1.990776 S    
C6    C22   1.408338 A    
O13   V3    2.007583 S    
C32   C40   1.591778 S    
O19   V3    2.258772 S    
C9    C11   1.385826 A    
C5    C19   1.421973 A    
C10   C12   1.385821 A    
C6    C20   1.422009 A    
O17   V3    1.992842 S    
O3    V1    2.008666 S    
C37   Br1   1.965051 S    
C25   C33   1.560746 S    
C10   C18   1.405076 A    
C26   C34   1.560855 S    
C22   H2    1.083370 S    
O3    C1    1.388606 A    
C23   I9    2.128294 S    
C31   H15   1.111640 S    
C13   C15   1.422070 A    
C26   H12   1.113032 S    
C14   C16   1.422059 A    
C11   H5    1.080261 S    
C16   C18   1.425241 A    
C32   I6    2.201586 S    
C1    O8    1.366509 A    
C17   C19   1.425243 A    
O8    V2    2.004919 S    
C27   I3    1.949369 S    
C18   C20   1.425255 A    
C8    C14   1.404839 A    
C30   C38   1.579013 S    
C4    C7    1.489611 S    
C21   C23   1.397022 A    
C22   C24   1.397028 A    
O7    V1    2.004971 S    
C7    C13   1.404737 A    
C26   H10   1.113489 S    
O19   V4    1.769294 S    
C16   C24   1.407601 A    
C40   H18   1.105155 S    
O9    V2    1.769578 S    
O10   V1    1.769536 S    
C32   C34   1.544172 S    
O12   C44   1.339849 A    
O11   C43   1.339856 A    
