data_mof_unit_60913.cif
_audit_creation_date              2012-10-26T20:59:53-0400
_audit_creation_method            fapswitch 2.2
_symmetry_space_group_name_H-M    P1
_symmetry_Int_Tables_number       1
_space_group_crystal_system       triclinic
_cell_length_a                    14.428654
_cell_length_b                    13.152873
_cell_length_c                    10.726444
_cell_angle_alpha                 89.756263
_cell_angle_beta                  90.065374
_cell_angle_gamma                 90.032338
_cell_volume                      2035.62574704

loop_
_atom_site_label
_atom_site_type_symbol
_atom_type_description
_atom_site_fract_x
_atom_site_fract_y
_atom_site_fract_z
_atom_type_partial_charge
C1    C     C_R   0.328733 0.499981 0.500102 0.546625
C2    C     C_3   0.502448 0.402228 0.960095 -0.110194
C3    C     C_3   0.575701 0.551155 0.958373 -0.139495
C4    C     C_3   0.424298 0.448845 0.041627 -0.139482
C5    C     C_3   0.424596 0.544400 0.958731 0.139146
C6    C     C_3   0.575402 0.455600 0.041269 0.139135
C7    C     C_3   0.500853 0.499022 0.878252 0.019245
C8    C     C_3   0.499146 0.500978 0.121748 0.019246
C9    C     C_1   0.500002 0.173647 0.500001 0.122123
C10   C     C_1   0.499998 0.826353 0.499999 0.122123
C11   C     C_1   0.227152 0.499959 0.500110 -0.052855
C12   C     C_R   0.671267 0.500019 0.499898 0.546628
C13   C     C_1   0.772848 0.500041 0.499890 -0.052854
C14   C     C_1   0.142329 0.499971 0.500089 -0.047415
C15   C     C_1   0.857671 0.500029 0.499912 -0.047415
C16   C     C_3   0.280357 0.634477 0.999421 -0.299773
C17   C     C_3   0.719630 0.365522 0.000565 -0.299775
C18   C     C_1   0.042412 0.499991 0.500030 -0.004341
C19   C     C_1   0.957588 0.500008 0.499970 -0.004341
C20   C     C_1   0.500001 0.050680 0.500000 -0.047682
C21   C     C_1   0.499999 0.949320 0.500000 -0.047682
C22   C     C_R   0.499565 0.500279 0.256617 0.564259
C23   C     C_R   0.500436 0.499721 0.743383 0.564249
C24   C     C_3   0.497550 0.597772 0.039905 -0.110193
Cu1   Cu    Cu3+1 0.500000 0.592680 0.500000 0.977756
Cu2   Cu    Cu3+1 0.500000 0.407320 0.500000 0.977761
H1    H     H_    0.494103 0.677077 0.074587 0.124327
H2    H     H_    0.777777 0.326310 0.048613 0.147318
H3    H     H_    0.748358 0.426877 0.940431 0.134592
H4    H     H_    0.682771 0.309043 0.941892 0.158122
H5    H     H_    0.505899 0.322924 0.925412 0.124326
H6    H     H_    0.638031 0.590892 0.922050 0.111022
H7    H     H_    0.361966 0.409110 0.077950 0.111027
H8    H     H_    0.309160 0.547644 0.842821 0.248341
H9    H     H_    0.222257 0.673762 0.951364 0.147332
H10   H     H_    0.317222 0.690896 0.058169 0.158112
H11   H     H_    0.251560 0.573108 0.059480 0.134580
H12   H     H_    0.690852 0.452376 0.157149 0.248336
N1    N     N_1   0.500000 0.268070 0.500000 -0.166914
N2    N     N_1   0.500000 0.731930 0.500000 -0.166914
N3    N     N_2   0.342537 0.592223 0.907753 -0.499657
N4    N     N_2   0.657466 0.407781 0.092242 -0.499654
O1    O     O_R   0.376050 0.578280 0.500000 -0.471548
O2    O     O_R   0.623950 0.421720 0.500000 -0.471544
O3    O     O_R   0.623950 0.578280 0.500000 -0.476112
O4    O     O_R   0.376050 0.421720 0.500000 -0.476112
O5    O     O_R   0.499980 0.578250 0.316850 -0.502768
O6    O     O_R   0.500020 0.421750 0.683150 -0.502766
O7    O     O_R   0.500020 0.578250 0.683150 -0.474124
O8    O     O_R   0.499980 0.421750 0.316850 -0.474121

loop_
_geom_bond_atom_site_label_1
_geom_bond_atom_site_label_2
_ccdc_geom_bond_type
C2    C4    S    
C17   H3    S    
Cu1   O5    S    
C9    C20   S    
C8    C22   S    
C2    C7    S    
C1    C11   S    
C24   H1    S    
Cu2   O6    S    
C16   H11   S    
C4    C8    S    
C3    C6    S    
Cu1   O1    S    
C13   C15   T    
C22   O5    A    
Cu2   O2    S    
C10   C21   S    
C16   H10   S    
C15   C19   S    
C17   H4    S    
C5    C24   S    
C3    C24   S    
C2    C6    S    
H8    N3    S    
C7    C23   S    
C16   N3    S    
C2    H5    S    
C16   H9    S    
C8    C24   S    
H12   N4    S    
C3    C7    S    
Cu2   O8    S    
Cu1   N2    S    
C3    H6    S    
C1    O4    A    
C11   C14   T    
Cu1   O7    S    
Cu2   N1    S    
C23   O7    A    
Cu2   O4    S    
Cu1   O3    S    
C22   O8    A    
C9    N1    T    
C20   C21   T    
C10   N2    T    
C18   C19   T    
C6    N4    S    
C12   O2    A    
C5    C7    S    
C5    N3    S    
C17   N4    S    
C4    C5    S    
C6    C8    S    
C23   O6    A    
C12   C13   S    
Cu1   Cu2   S    
C4    H7    S    
C17   H2    S    
C14   C18   S    
C1    O1    A    
C12   O3    A    
