data_mof_unit_32244.cif
_audit_creation_date              2013-03-05T16:27:38-0500
_audit_creation_method            fapswitch 2.2
_symmetry_space_group_name_H-M    P1
_symmetry_Int_Tables_number       1
_space_group_crystal_system       triclinic
_cell_length_a                    18.22232
_cell_length_b                    18.222383
_cell_length_c                    21.880312
_cell_angle_alpha                 90.002173
_cell_angle_beta                  90.002847
_cell_angle_gamma                 90.000441
_cell_volume                      7265.44716731

loop_
_atom_site_label
_atom_site_type_symbol
_atom_site_description
_atom_site_fract_x
_atom_site_fract_y
_atom_site_fract_z
_atom_type_partial_charge
O1    O     O_R   0.939380 0.392670 0.000020 -0.607614
O2    O     O_R   0.392670 0.060620 0.000020 -0.607598
O3    O     O_R   0.060620 0.607330 0.000020 -0.607578
O4    O     O_R   0.607330 0.939380 0.000020 -0.607584
O5    O     O_R   0.939380 0.607330 0.999980 -0.603204
O6    O     O_R   0.392670 0.939380 0.999980 -0.603198
O7    O     O_R   0.060620 0.392670 0.999980 -0.603234
O8    O     O_R   0.607330 0.060620 0.999980 -0.603267
O9    O     O_R   0.439380 0.892670 0.500020 -0.644703
O10   O     O_R   0.892670 0.560620 0.500020 -0.644605
O11   O     O_R   0.560620 0.107330 0.500020 -0.645080
O12   O     O_R   0.107330 0.439380 0.500020 -0.644802
O13   O     O_R   0.439380 0.107330 0.499980 -0.615438
O14   O     O_R   0.892670 0.439380 0.499980 -0.615769
O15   O     O_R   0.560620 0.892670 0.499980 -0.615708
O16   O     O_R   0.107330 0.560620 0.499980 -0.615668
C1    C     C_R   0.000045 0.358705 0.000925 1.106472
C2    C     C_R   0.358706 0.999954 0.000936 1.106526
C3    C     C_R   0.999955 0.641295 0.000931 1.106501
C4    C     C_R   0.641294 0.000045 0.000943 1.106380
C5    C     C_R   0.499906 0.858696 0.499491 1.035171
C6    C     C_R   0.858696 0.500093 0.499502 1.035170
C7    C     C_R   0.500096 0.141304 0.499468 1.035106
C8    C     C_R   0.141304 0.499906 0.499483 1.035143
O17   O     O_R   0.939380 0.500000 0.908420 -0.615712
O18   O     O_R   0.500000 0.060620 0.908420 -0.615700
O19   O     O_R   0.060620 0.500000 0.908420 -0.615724
O20   O     O_R   0.500000 0.939380 0.908420 -0.615676
O21   O     O_R   0.939380 0.500000 0.091580 -0.621682
O22   O     O_R   0.500000 0.939380 0.091580 -0.621723
O23   O     O_R   0.060620 0.500000 0.091580 -0.621734
O24   O     O_R   0.500000 0.060620 0.091580 -0.621791
O25   O     O_R   0.439380 0.000000 0.408420 -0.618729
O26   O     O_R   1.000000 0.560620 0.408420 -0.618751
O27   O     O_R   0.560620 0.000000 0.408420 -0.618866
O28   O     O_R   0.000000 0.439380 0.408420 -0.618811
O29   O     O_R   0.439380 0.000000 0.591580 -0.622691
O30   O     O_R   1.000000 0.439380 0.591580 -0.622792
O31   O     O_R   0.560620 0.000000 0.591580 -0.622750
O32   O     O_R   1.000000 0.560620 0.591580 -0.622690
C9    C     C_1   0.000193 0.282028 0.000809 0.024865
C10   C     C_1   0.282028 0.999803 0.000820 0.025034
C11   C     C_1   0.999804 0.717972 0.000813 0.025026
C12   C     C_1   0.717971 0.000196 0.000821 0.024912
C13   C     C_1   0.499481 0.782132 0.499561 -0.042420
C14   C     C_1   0.782133 0.500519 0.499577 -0.042393
C15   C     C_1   0.500531 0.217867 0.499532 -0.042608
C16   C     C_1   0.217867 0.499479 0.499549 -0.042449
C17   C     C_R   0.999998 0.500005 0.879447 1.001783
C18   C     C_R   0.499998 0.999999 0.879447 1.001846
C19   C     C_R   0.000001 0.500001 0.120533 0.996034
C20   C     C_R   0.499998 0.000002 0.120533 0.995910
C21   C     C_R   0.499997 0.000000 0.379816 0.984433
C22   C     C_R   0.999992 0.500000 0.379815 0.984605
C23   C     C_R   0.500000 0.000002 0.620155 1.006167
C24   C     C_R   0.000002 0.500003 0.620155 1.006059
Zn1   Zn    Zn3+2 0.919060 0.500000 0.000000 1.049291
Zn2   Zn    Zn3+2 0.500000 0.080940 0.000000 1.049157
Zn3   Zn    Zn3+2 0.080940 0.500000 0.000000 1.049272
Zn4   Zn    Zn3+2 0.500000 0.919060 0.000000 1.049312
Zn5   Zn    Zn3+2 0.419060 0.000000 0.500000 0.984042
Zn6   Zn    Zn3+2 1.000000 0.580940 0.500000 0.983968
Zn7   Zn    Zn3+2 0.580940 0.000000 0.500000 0.983722
Zn8   Zn    Zn3+2 1.000000 0.419060 0.500000 0.983820
O33   O     O_R   0.107300 0.999970 0.948290 -0.621639
O34   O     O_R   0.999970 0.892700 0.948290 -0.621631
O35   O     O_R   0.892700 0.000030 0.948290 -0.621586
O36   O     O_R   0.000030 0.107300 0.948290 -0.621667
O37   O     O_R   0.107300 0.000030 0.051710 -0.614453
O38   O     O_R   0.999970 0.107300 0.051710 -0.614323
O39   O     O_R   0.892700 0.999970 0.051710 -0.614470
O40   O     O_R   0.000030 0.892700 0.051710 -0.614510
O41   O     O_R   0.607300 0.499970 0.448290 -0.607809
O42   O     O_R   0.499970 0.392700 0.448290 -0.607737
O43   O     O_R   0.392700 0.500030 0.448290 -0.607826
O44   O     O_R   0.500030 0.607300 0.448290 -0.607854
O45   O     O_R   0.607300 0.500030 0.551710 -0.603818
O46   O     O_R   0.499970 0.607300 0.551710 -0.603884
O47   O     O_R   0.392700 0.499970 0.551710 -0.603876
O48   O     O_R   0.500030 0.392700 0.551710 -0.603923
Zn9   Zn    Zn3+2 0.000000 0.000000 0.930960 0.930825
Zn10  Zn    Zn3+2 0.000000 0.000000 0.069040 0.959509
Zn11  Zn    Zn3+2 0.500000 0.500000 0.430960 0.991237
Zn12  Zn    Zn3+2 0.500000 0.500000 0.569040 1.004313
C25   C     C_R   0.072196 0.619127 0.804444 0.301702
C26   C     C_R   0.619125 0.927823 0.804434 0.301657
C27   C     C_R   0.927771 0.380913 0.804420 0.301668
C28   C     C_R   0.380845 0.072147 0.804438 0.301699
C29   C     C_R   0.080627 0.386766 0.196167 0.300867
C30   C     C_R   0.613179 0.080696 0.196179 0.300969
C31   C     C_R   0.919378 0.613247 0.196155 0.300893
C32   C     C_R   0.386757 0.919364 0.196151 0.300925
C33   C     C_R   0.554405 0.125252 0.308851 0.254273
C34   C     C_R   0.125192 0.445486 0.308854 0.254598
C35   C     C_R   0.445459 0.874801 0.308842 0.254703
C36   C     C_R   0.874802 0.554563 0.308844 0.254763
C37   C     C_R   0.567586 0.881279 0.690168 0.271342
C38   C     C_R   0.118731 0.567592 0.690178 0.271330
C39   C     C_R   0.432342 0.118691 0.690165 0.271408
C40   C     C_R   0.881233 0.432492 0.690166 0.271245
C41   C     C_R   0.121280 0.661822 0.768797 -0.154074
C42   C     C_R   0.661825 0.878749 0.768780 -0.154073
C43   C     C_R   0.878676 0.338238 0.768760 -0.154084
C44   C     C_R   0.338124 0.121206 0.768788 -0.154066
C45   C     C_R   0.133946 0.349388 0.231832 -0.157880
C46   C     C_R   0.650501 0.134067 0.231836 -0.158002
C47   C     C_R   0.866066 0.650642 0.231811 -0.157820
C48   C     C_R   0.349372 0.866048 0.231809 -0.157853
C49   C     C_R   0.618158 0.160225 0.286262 -0.142218
C50   C     C_R   0.160119 0.381709 0.286263 -0.142337
C51   C     C_R   0.381685 0.839872 0.286238 -0.142410
C52   C     C_R   0.839883 0.618338 0.286239 -0.142459
C53   C     C_R   0.633745 0.851762 0.713248 -0.152648
C54   C     C_R   0.148262 0.633742 0.713266 -0.152683
C55   C     C_R   0.366182 0.148194 0.713254 -0.152777
C56   C     C_R   0.851694 0.366339 0.713234 -0.152585
C57   C     C_R   0.140718 0.999924 0.000041 0.924716
C58   C     C_R   0.999924 0.859282 0.000039 0.924723
C59   C     C_R   0.859282 0.000075 0.000039 0.924686
C60   C     C_R   0.000075 0.140718 0.000040 0.924702
C61   C     C_R   0.640738 0.500343 0.499984 0.900916
C62   C     C_R   0.500348 0.359261 0.499979 0.900946
C63   C     C_R   0.359261 0.499658 0.499979 0.900989
C64   C     C_R   0.499660 0.640738 0.499982 0.900996
C65   C     C_R   0.054724 0.538929 0.718195 -0.068248
C66   C     C_R   0.538921 0.945284 0.718189 -0.068272
C67   C     C_R   0.945257 0.461120 0.718187 -0.068250
C68   C     C_R   0.461045 0.054704 0.718190 -0.068256
C69   C     C_R   0.058214 0.466931 0.281579 -0.065442
C70   C     C_R   0.533013 0.058253 0.281580 -0.065355
C71   C     C_R   0.941774 0.533089 0.281573 -0.065451
C72   C     C_R   0.466917 0.941777 0.281571 -0.065408
C73   C     C_R   0.548918 0.046708 0.219989 -0.076811
C74   C     C_R   0.046667 0.451040 0.219984 -0.076899
C75   C     C_R   0.451027 0.953327 0.219976 -0.076940
C76   C     C_R   0.953331 0.548974 0.219978 -0.076952
C77   C     C_R   0.553005 0.957612 0.780030 -0.081350
C78   C     C_R   0.042397 0.553015 0.780035 -0.081351
C79   C     C_R   0.446969 0.042374 0.780031 -0.081367
C80   C     C_R   0.957582 0.447024 0.780024 -0.081334
C81   C     C_R   0.999998 0.500013 0.686167 -0.061359
C82   C     C_R   0.499995 0.000002 0.686168 -0.061443
C83   C     C_R   0.999990 0.500002 0.313777 -0.053099
C84   C     C_R   0.499982 0.000005 0.313778 -0.053045
C85   C     C_R   0.499985 0.000008 0.187033 -0.079323
C86   C     C_R   0.000001 0.500005 0.187032 -0.079349
C87   C     C_R   0.499992 0.999996 0.812915 -0.086909
C88   C     C_R   0.999994 0.500013 0.812915 -0.086868
C89   C     C_1   0.000187 0.217189 0.000327 -0.141576
C90   C     C_1   0.217189 0.999810 0.000332 -0.141568
C91   C     C_1   0.999811 0.782811 0.000326 -0.141569
C92   C     C_1   0.782811 0.000189 0.000328 -0.141584
C93   C     C_1   0.499329 0.717241 0.499857 -0.107014
C94   C     C_1   0.717241 0.500675 0.499866 -0.107196
C95   C     C_1   0.500686 0.282759 0.499840 -0.107201
C96   C     C_1   0.282759 0.499326 0.499847 -0.107047
C97   C     C_R   0.859078 0.262538 0.787893 0.211709
C98   C     C_R   0.909960 0.205350 0.780448 -0.120562
C99   C     C_R   0.893008 0.134463 0.800510 -0.151739
C100  C     C_R   0.825207 0.120291 0.827968 -0.073520
C101  C     C_R   0.774266 0.176978 0.835385 -0.101993
C102  C     C_R   0.791095 0.247971 0.815544 -0.111727
H1    H     H_    0.962792 0.215891 0.759530 0.128117
H2    H     H_    0.932531 0.090604 0.795013 0.111200
H3    H     H_    0.812273 0.065497 0.843717 0.177196
H4    H     H_    0.721949 0.166082 0.856944 0.179696
H5    H     H_    0.751757 0.291705 0.822485 0.124189
C103  C     C_R   0.262425 0.140781 0.787944 0.211778
C104  C     C_R   0.205250 0.089877 0.780522 -0.120706
C105  C     C_R   0.134360 0.106822 0.800582 -0.151634
C106  C     C_R   0.120172 0.174637 0.828016 -0.073528
C107  C     C_R   0.176848 0.225597 0.835413 -0.102069
C108  C     C_R   0.247843 0.208776 0.815573 -0.111690
H6    H     H_    0.215801 0.037039 0.759616 0.128114
H7    H     H_    0.090510 0.067286 0.795100 0.111174
H8    H     H_    0.065374 0.187569 0.843757 0.177183
H9    H     H_    0.165940 0.277925 0.856953 0.179762
H10   H     H_    0.291566 0.248133 0.822492 0.124218
C109  C     C_R   0.140876 0.737517 0.787953 0.211730
C110  C     C_R   0.089988 0.794704 0.780531 -0.120620
C111  C     C_R   0.106941 0.865585 0.800611 -0.151660
C112  C     C_R   0.174749 0.879753 0.828066 -0.073529
C113  C     C_R   0.225696 0.823066 0.835459 -0.101978
C114  C     C_R   0.208867 0.752079 0.815599 -0.111712
H11   H     H_    0.037152 0.784168 0.759614 0.128099
H12   H     H_    0.067415 0.909445 0.795132 0.111198
H13   H     H_    0.187686 0.934543 0.843827 0.177253
H14   H     H_    0.278019 0.833958 0.857016 0.179753
H15   H     H_    0.248211 0.708346 0.822520 0.124211
C115  C     C_R   0.737523 0.859160 0.787931 0.211744
C116  C     C_R   0.794705 0.910055 0.780513 -0.120627
C117  C     C_R   0.865592 0.893103 0.800579 -0.151627
C118  C     C_R   0.879771 0.825289 0.828014 -0.073544
C119  C     C_R   0.823090 0.774336 0.835404 -0.101998
C120  C     C_R   0.752097 0.791165 0.815559 -0.111706
H16   H     H_    0.784160 0.962894 0.759608 0.128080
H17   H     H_    0.909448 0.932634 0.795101 0.111187
H18   H     H_    0.934566 0.812353 0.843763 0.177202
H19   H     H_    0.833990 0.722008 0.856945 0.179752
H20   H     H_    0.708368 0.751814 0.822474 0.124220
C121  C     C_R   0.844133 0.726643 0.215789 0.206932
C122  C     C_R   0.889969 0.785412 0.232072 -0.119706
C123  C     C_R   0.871327 0.857166 0.215616 -0.160524
C124  C     C_R   0.806882 0.870661 0.182875 -0.063638
C125  C     C_R   0.760973 0.812380 0.166498 -0.096491
C126  C     C_R   0.779562 0.740458 0.182707 -0.104895
H21   H     H_    0.940302 0.775489 0.257094 0.127692
H22   H     H_    0.906975 0.902286 0.228042 0.118533
H23   H     H_    0.792800 0.926241 0.170005 0.181708
H24   H     H_    0.711265 0.822889 0.140869 0.167244
H25   H     H_    0.744363 0.695607 0.168810 0.122749
C127  C     C_R   0.273366 0.844110 0.215799 0.206941
C128  C     C_R   0.214585 0.889863 0.232212 -0.119743
C129  C     C_R   0.142821 0.871201 0.215799 -0.160711
C130  C     C_R   0.129325 0.806822 0.182968 -0.063865
C131  C     C_R   0.187616 0.760996 0.166462 -0.096366
C132  C     C_R   0.259549 0.779602 0.182632 -0.104804
H26   H     H_    0.224508 0.940142 0.257309 0.127664
H27   H     H_    0.097691 0.906781 0.228329 0.118416
H28   H     H_    0.073735 0.792724 0.170133 0.181447
H29   H     H_    0.177106 0.711337 0.140766 0.167211
H30   H     H_    0.304405 0.744464 0.168644 0.122796
C133  C     C_R   0.155892 0.273383 0.215834 0.206948
C134  C     C_R   0.110226 0.214588 0.232373 -0.119970
C135  C     C_R   0.128898 0.142819 0.215982 -0.160747
C136  C     C_R   0.193201 0.129336 0.183049 -0.063730
C137  C     C_R   0.238942 0.187644 0.166419 -0.096401
C138  C     C_R   0.220326 0.259579 0.182568 -0.104663
H31   H     H_    0.060006 0.224499 0.257551 0.127576
H32   H     H_    0.093386 0.097676 0.228611 0.118440
H33   H     H_    0.207307 0.073744 0.170231 0.181453
H34   H     H_    0.288541 0.177142 0.140646 0.167143
H35   H     H_    0.255396 0.304447 0.168490 0.122836
C139  C     C_R   0.726498 0.156061 0.215871 0.206900
C140  C     C_R   0.785361 0.110747 0.232902 -0.120484
C141  C     C_R   0.857140 0.129476 0.216594 -0.161198
C142  C     C_R   0.870563 0.193486 0.183250 -0.063406
C143  C     C_R   0.812188 0.238885 0.166140 -0.096495
C144  C     C_R   0.740244 0.220218 0.182219 -0.104239
H36   H     H_    0.775497 0.060757 0.258409 0.127734
H37   H     H_    0.902339 0.094237 0.229607 0.118600
H38   H     H_    0.926165 0.207627 0.170492 0.181525
H39   H     H_    0.822647 0.288260 0.140057 0.166886
H40   H     H_    0.695328 0.255026 0.167796 0.122995
C145  C     C_R   0.345007 0.781701 0.322381 0.215895
C146  C     C_R   0.343886 0.708887 0.301382 -0.139570
C147  C     C_R   0.312134 0.653753 0.337081 -0.066907
C148  C     C_R   0.281693 0.670930 0.393939 -0.020118
C149  C     C_R   0.282940 0.743211 0.415174 -0.184236
C150  C     C_R   0.314550 0.798530 0.379635 -0.121033
H41   H     H_    0.368829 0.694689 0.258068 0.120144
H42   H     H_    0.311680 0.597664 0.320855 0.178378
H43   H     H_    0.257322 0.628296 0.421648 0.173134
H44   H     H_    0.259675 0.756306 0.459257 0.133612
H45   H     H_    0.315829 0.854279 0.396798 0.128768
C151  C     C_R   0.781728 0.655037 0.322387 0.215875
C152  C     C_R   0.708889 0.656079 0.301442 -0.139425
C153  C     C_R   0.653774 0.687847 0.337154 -0.066919
C154  C     C_R   0.670995 0.718382 0.393970 -0.020217
C155  C     C_R   0.743301 0.717213 0.415151 -0.184102
C156  C     C_R   0.798600 0.685584 0.379601 -0.121068
H46   H     H_    0.694659 0.631064 0.258163 0.120118
H47   H     H_    0.597666 0.688242 0.320972 0.178318
H48   H     H_    0.628376 0.742765 0.421690 0.173088
H49   H     H_    0.756431 0.740552 0.459202 0.133591
H50   H     H_    0.854369 0.684363 0.396723 0.128719
C157  C     C_R   0.654747 0.218487 0.322385 0.216032
C158  C     C_R   0.656285 0.291174 0.301104 -0.140211
C159  C     C_R   0.687959 0.346406 0.336751 -0.066747
C160  C     C_R   0.717888 0.329461 0.393845 -0.019794
C161  C     C_R   0.716208 0.257316 0.415371 -0.184773
C162  C     C_R   0.684699 0.201894 0.379876 -0.120542
H51   H     H_    0.631733 0.305208 0.257599 0.120090
H52   H     H_    0.688751 0.402394 0.320299 0.178251
H53   H     H_    0.742198 0.372170 0.421512 0.173141
H54   H     H_    0.739056 0.244409 0.459643 0.133773
H55   H     H_    0.683092 0.146254 0.397259 0.128987
C163  C     C_R   0.218311 0.345057 0.322406 0.215892
C164  C     C_R   0.291094 0.343842 0.301342 -0.139766
C165  C     C_R   0.346258 0.312137 0.337040 -0.066729
C166  C     C_R   0.329144 0.281840 0.393963 -0.019914
C167  C     C_R   0.256896 0.283188 0.415268 -0.184391
C168  C     C_R   0.201545 0.314748 0.379727 -0.120946
H56   H     H_    0.305248 0.368681 0.257978 0.120141
H57   H     H_    0.402321 0.311611 0.320761 0.178543
H58   H     H_    0.371801 0.257504 0.421671 0.173141
H59   H     H_    0.243853 0.260045 0.459406 0.133711
H60   H     H_    0.145824 0.316110 0.396944 0.128836
C169  C     C_R   0.322099 0.200374 0.676541 0.210970
C170  C     C_R   0.322924 0.275785 0.689785 -0.112605
C171  C     C_R   0.282346 0.324643 0.653886 -0.076889
C172  C     C_R   0.240196 0.298404 0.605151 -0.075223
C173  C     C_R   0.238521 0.223267 0.592312 -0.185704
C174  C     C_R   0.279714 0.174368 0.627595 -0.115909
H61   H     H_    0.355834 0.296642 0.727153 0.126031
H62   H     H_    0.283764 0.382828 0.663740 0.185627
H63   H     H_    0.208864 0.336217 0.577319 0.173016
H64   H     H_    0.205389 0.202845 0.554972 0.125295
H65   H     H_    0.278502 0.116318 0.616975 0.122473
C175  C     C_R   0.799512 0.322293 0.676488 0.210856
C176  C     C_R   0.724110 0.323044 0.689765 -0.112453
C177  C     C_R   0.675256 0.282465 0.653858 -0.076893
C178  C     C_R   0.701491 0.240387 0.605081 -0.075551
C179  C     C_R   0.776620 0.238793 0.592205 -0.185795
C180  C     C_R   0.825513 0.279989 0.627494 -0.116111
H66   H     H_    0.703255 0.355892 0.727170 0.126035
H67   H     H_    0.617077 0.283824 0.663741 0.185574
H68   H     H_    0.663682 0.209049 0.577248 0.172900
H69   H     H_    0.797040 0.205717 0.554830 0.125420
H70   H     H_    0.883556 0.278833 0.616848 0.122564
C181  C     C_R   0.677816 0.799592 0.676516 0.210913
C182  C     C_R   0.677018 0.724180 0.689752 -0.112504
C183  C     C_R   0.717613 0.675338 0.653850 -0.076982
C184  C     C_R   0.759759 0.701596 0.605124 -0.075064
C185  C     C_R   0.761410 0.776735 0.592298 -0.185672
C186  C     C_R   0.720194 0.825616 0.627578 -0.116228
H71   H     H_    0.644120 0.703310 0.727118 0.126088
H72   H     H_    0.716217 0.617152 0.663699 0.185754
H73   H     H_    0.791110 0.663798 0.577294 0.173083
H74   H     H_    0.794550 0.797174 0.554973 0.125242
H75   H     H_    0.721393 0.883668 0.616969 0.122536
C187  C     C_R   0.200450 0.677803 0.676546 0.210934
C188  C     C_R   0.275859 0.676991 0.689802 -0.112566
C189  C     C_R   0.324721 0.717558 0.653899 -0.076951
C190  C     C_R   0.298488 0.759685 0.605151 -0.075071
C191  C     C_R   0.223353 0.761349 0.592305 -0.185655
C192  C     C_R   0.174450 0.720164 0.627588 -0.116098
H76   H     H_    0.296711 0.644102 0.727182 0.126044
H77   H     H_    0.382905 0.716151 0.663763 0.185620
H78   H     H_    0.336303 0.791010 0.577319 0.173046
H79   H     H_    0.202932 0.794472 0.554961 0.125246
H80   H     H_    0.116402 0.721369 0.616960 0.122512
N1    N     N_R   0.044740 0.649480 0.860113 0.171653
O49   O     O_R   0.974449 0.659521 0.866305 -0.487729
O50   O     O_R   0.089737 0.682690 0.897035 -0.433789
N2    N     N_R   0.649473 0.955276 0.860107 0.171671
O51   O     O_R   0.659508 0.025568 0.866312 -0.487688
O52   O     O_R   0.682686 0.910278 0.897024 -0.433749
N3    N     N_R   0.955230 0.350541 0.860082 0.171685
O53   O     O_R   0.025522 0.340490 0.866275 -0.487691
O54   O     O_R   0.910233 0.317337 0.897003 -0.433782
N4    N     N_R   0.350515 0.044694 0.860113 0.171634
O55   O     O_R   0.340491 0.974401 0.866317 -0.487730
O56   O     O_R   0.317298 0.089691 0.897029 -0.433837
N5    N     N_R   0.052324 0.351959 0.142427 0.175312
O57   O     O_R   0.982056 0.340719 0.137531 -0.490106
O58   O     O_R   0.096831 0.319006 0.104931 -0.430930
N6    N     N_R   0.648048 0.052340 0.142486 0.175410
O59   O     O_R   0.659285 0.982067 0.137638 -0.489982
O60   O     O_R   0.681006 0.096806 0.104963 -0.431208
N7    N     N_R   0.947668 0.648032 0.142406 0.175267
O61   O     O_R   0.017930 0.659308 0.137521 -0.490257
O62   O     O_R   0.903147 0.680970 0.104911 -0.430828
N8    N     N_R   0.351958 0.947660 0.142408 0.175284
O63   O     O_R   0.340684 0.017923 0.137527 -0.490192
O64   O     O_R   0.319013 0.903143 0.104910 -0.430890
N9    N     N_R   0.504444 0.162938 0.349704 0.169556
O65   O     O_R   0.436972 0.140251 0.354536 -0.432241
O66   O     O_R   0.518278 0.229510 0.367656 -0.458599
N10   N     N_R   0.162897 0.495406 0.349733 0.169633
O67   O     O_R   0.140296 0.562910 0.354532 -0.432377
O68   O     O_R   0.229422 0.481484 0.367754 -0.458542
N11   N     N_R   0.495358 0.837107 0.349741 0.169672
O69   O     O_R   0.562876 0.859677 0.354524 -0.432349
O70   O     O_R   0.481397 0.770610 0.367804 -0.458524
N12   N     N_R   0.837106 0.504682 0.349752 0.169595
O71   O     O_R   0.859650 0.437157 0.354532 -0.432418
O72   O     O_R   0.770621 0.518672 0.367839 -0.458634
N13   N     N_R   0.523172 0.840780 0.646944 0.176859
O73   O     O_R   0.453064 0.853844 0.643691 -0.456444
O74   O     O_R   0.546600 0.779433 0.623815 -0.441612
N14   N     N_R   0.159213 0.523185 0.646944 0.176877
O75   O     O_R   0.146170 0.453072 0.643704 -0.456441
O76   O     O_R   0.220532 0.546633 0.623776 -0.441580
N15   N     N_R   0.476713 0.159177 0.646910 0.176934
O77   O     O_R   0.546843 0.146213 0.643702 -0.456415
O78   O     O_R   0.453193 0.220428 0.623676 -0.441562
N16   N     N_R   0.840735 0.476939 0.646967 0.176815
O79   O     O_R   0.853889 0.547029 0.643683 -0.456425
O80   O     O_R   0.779315 0.453588 0.623918 -0.441602

loop_
_geom_bond_atom_site_label_1
_geom_bond_atom_site_label_2
_geom_bond_distance
_ccdc_geom_bond_type
C18   C87   1.455741 S    
C72   C84   1.409028 A    
C145  C150  1.404082 A    
N9    O65   1.301446 A    
O27   C21   1.269649 A    
C40   C67   1.417416 A    
C47   C52   1.411569 A    
C133  C134  1.404043 A    
O42   Zn11  1.991704 S    
C45   C50   1.411605 A    
C183  H72   1.082277 S    
N1    O49   1.300959 A    
C148  C149  1.396853 A    
C167  C168  1.397401 A    
C97   C98   1.404359 A    
C35   N11   1.448924 S    
C142  H38   1.082091 S    
O36   Zn9   1.991674 S    
C68   C79   1.395417 A    
O18   C18   1.273615 A    
C38   C54   1.413399 A    
C9    C89   1.181579 T    
C180  H70   1.083246 S    
N14   O75   1.301472 A    
C69   C83   1.408989 A    
O23   Zn3   2.037739 S    
C116  H16   1.083167 S    
O24   C20   1.273396 A    
C4    C12   1.397236 S    
C171  C172  1.398392 A    
C189  C190  1.398397 A    
C104  H6    1.083168 S    
O3    C3    1.267084 A    
C191  C192  1.397643 A    
C40   N16   1.447071 S    
O48   Zn12  1.991676 S    
O39   Zn10  1.991665 S    
C22   C83   1.444934 S    
C23   C82   1.444385 S    
C145  C146  1.404287 A    
C172  H63   1.082398 S    
O44   Zn11  1.991674 S    
O7    Zn3   1.990548 S    
O30   Zn8   2.037708 S    
C63   C96   1.394062 S    
C74   C86   1.427969 A    
C61   C94   1.394063 S    
C31   N7    1.432043 S    
C116  C117  1.398822 A    
C31   C47   1.420139 A    
N4    O55   1.300970 A    
C43   C97   1.485155 S    
C184  C185  1.398017 A    
C176  C177  1.398719 A    
C8    C16   1.395185 S    
C130  C131  1.398603 A    
C157  C162  1.404153 A    
C137  C138  1.399359 A    
O14   Zn8   1.990547 S    
N7    O62   1.300559 A    
N8    O64   1.300570 A    
C32   N8    1.432036 S    
C27   C43   1.419057 A    
C24   C81   1.444378 S    
C103  C104  1.404357 A    
O26   C22   1.269610 A    
O41   C61   1.284755 A    
C98   C99   1.398820 A    
C32   C75   1.423465 A    
C73   C85   1.427981 A    
C33   C70   1.413665 A    
C71   C83   1.409026 A    
C175  C176  1.404461 A    
C166  H58   1.080912 S    
C168  H60   1.083301 S    
C129  C130  1.397390 A    
C37   C66   1.417425 A    
N15   O77   1.301486 A    
C39   C68   1.417441 A    
C65   C78   1.395411 A    
C135  H32   1.082511 S    
C48   C51   1.411581 A    
O39   C59   1.284129 A    
C43   C56   1.407128 A    
C156  H50   1.083305 S    
C113  H14   1.082062 S    
O9    C5    1.264861 A    
N2    O51   1.300965 A    
O11   C7    1.264829 A    
N6    O59   1.301137 A    
O38   Zn10  1.991702 S    
O4    C4    1.267086 A    
C127  C128  1.404054 A    
O25   Zn5   2.037742 S    
C118  C119  1.398240 A    
O40   C58   1.284137 A    
O27   Zn7   2.037705 S    
N16   O79   1.301476 A    
O28   Zn8   2.037738 S    
C27   N3    1.428266 S    
C97   C102  1.404000 A    
O41   Zn11  1.991663 S    
C140  H36   1.083333 S    
C76   C86   1.427997 A    
C161  C162  1.397390 A    
C175  C180  1.402829 A    
C115  C116  1.404357 A    
C62   C95   1.394069 S    
N7    O61   1.301132 A    
C27   C80   1.425268 A    
C149  C150  1.397395 A    
C53   C181  1.481440 S    
C159  H52   1.081990 S    
O9    Zn5   1.990554 S    
O11   Zn7   1.990552 S    
C2    C10   1.397243 S    
O47   Zn12  1.991665 S    
O12   Zn8   1.990540 S    
C105  C106  1.397922 A    
C182  C183  1.398724 A    
O13   C7    1.267861 A    
C152  C153  1.397999 A    
C67   C81   1.410043 A    
C173  H64   1.081873 S    
O37   Zn10  1.991700 S    
C112  C113  1.398235 A    
C32   C48   1.420138 A    
C38   C65   1.417425 A    
C31   C76   1.423459 A    
C187  C192  1.402813 A    
O38   C60   1.284151 A    
O7    C1    1.265665 A    
C78   C88   1.430918 A    
C70   C84   1.408994 A    
N12   O71   1.301449 A    
C167  H59   1.080305 S    
C64   C93   1.394066 S    
O17   Zn1   2.037742 S    
N10   O67   1.301446 A    
C48   C127  1.483475 S    
C5    C13   1.395188 S    
C146  H41   1.082454 S    
O20   Zn4   2.037738 S    
C161  H54   1.080278 S    
C7    C15   1.395193 S    
O44   C64   1.284732 A    
C165  C166  1.397652 A    
C71   C76   1.394453 A    
C148  H43   1.080931 S    
O45   Zn12  1.991700 S    
O32   C24   1.269283 A    
C189  H77   1.082276 S    
C143  H39   1.082386 S    
C182  H71   1.082833 S    
C109  C110  1.404359 A    
C17   C88   1.455745 S    
C141  H37   1.082498 S    
C173  C174  1.397641 A    
O1    Zn1   1.990554 S    
N11   O69   1.301452 A    
O4    Zn4   1.990540 S    
C169  C170  1.404456 A    
C138  H35   1.082489 S    
C115  C120  1.403999 A    
C36   C71   1.413709 A    
C98   H1    1.083172 S    
O35   Zn9   1.991702 S    
C122  H21   1.083336 S    
C67   C80   1.395384 A    
C26   C42   1.419058 A    
C109  C114  1.403998 A    
O21   C19   1.273390 A    
C59   C92   1.393493 S    
O22   C20   1.273416 A    
C146  C147  1.397979 A    
C46   C139  1.483409 S    
C160  H53   1.080890 S    
C147  H42   1.081988 S    
O23   C19   1.273412 A    
C155  C156  1.397407 A    
C111  H12   1.082553 S    
C178  H68   1.082404 S    
C106  H8    1.082264 S    
O12   C8    1.264853 A    
O1    C1    1.267077 A    
C163  C168  1.404106 A    
C21   C84   1.444932 S    
O14   C6    1.267826 A    
C153  C154  1.397654 A    
C34   N10   1.448935 S    
C174  H65   1.083246 S    
O36   C60   1.285649 A    
C36   N12   1.448895 S    
C125  H24   1.082389 S    
C25   C78   1.425261 A    
N14   O76   1.299285 A    
C119  C120  1.398602 A    
C107  H9    1.082060 S    
O45   C61   1.285426 A    
C128  H26   1.083339 S    
O29   C23   1.269277 A    
C149  H44   1.080292 S    
O30   C24   1.269326 A    
C124  C125  1.398606 A    
N8    O63   1.301141 A    
C29   C45   1.420159 A    
O33   C57   1.285658 A    
C163  C164  1.404271 A    
C151  C156  1.404067 A    
O35   C59   1.285670 A    
C28   C44   1.419041 A    
O19   C17   1.273611 A    
C33   C49   1.414244 A    
N13   O74   1.299247 A    
C46   C49   1.411646 A    
C66   C77   1.395387 A    
C38   N14   1.447018 S    
C40   C56   1.413390 A    
O24   Zn2   2.037735 S    
C49   C157  1.481976 S    
C134  C135  1.398100 A    
C101  C102  1.398606 A    
O48   C62   1.285481 A    
C128  C129  1.398097 A    
O10   C6    1.264860 A    
C20   C85   1.455028 S    
C47   C121  1.483461 S    
C39   C55   1.413408 A    
N4    O56   1.300437 A    
C52   C151  1.481839 S    
C127  C132  1.404182 A    
C37   N13   1.447040 S    
C118  H18   1.082257 S    
O26   Zn6   2.037710 S    
C170  C171  1.398718 A    
C121  C122  1.404063 A    
C131  H29   1.082386 S    
C26   C77   1.425275 A    
O8    Zn2   1.990546 S    
O31   C23   1.269323 A    
C75   C85   1.427980 A    
C124  H23   1.082089 S    
C140  C141  1.398101 A    
N5    O58   1.300559 A    
C187  C188  1.404458 A    
C16   C96   1.182502 T    
C185  C186  1.397637 A    
N9    O66   1.299764 A    
C159  C160  1.397627 A    
C41   C54   1.407089 A    
O10   Zn6   1.990542 S    
C28   N4    1.428217 S    
C3    C11   1.397245 S    
C105  H7    1.082547 S    
N1    O50   1.300421 A    
C179  H69   1.081885 S    
C14   C94   1.182502 T    
C152  H46   1.082448 S    
C30   C46   1.420193 A    
N2    O52   1.300432 A    
C154  H48   1.080937 S    
C122  C123  1.398090 A    
C30   C73   1.423465 A    
C19   C86   1.455019 S    
C45   C133  1.483454 S    
C177  H67   1.082278 S    
C66   C82   1.410048 A    
C188  C189  1.398729 A    
C44   C55   1.407065 A    
O33   Zn9   1.991663 S    
N3    O53   1.300974 A    
C184  H73   1.082393 S    
N6    O60   1.300528 A    
C60   C89   1.393497 S    
C190  H78   1.082387 S    
C12   C92   1.181580 T    
C100  H3    1.082259 S    
O18   Zn2   2.037710 S    
O42   C62   1.284704 A    
O21   Zn1   2.037703 S    
C186  H75   1.083246 S    
C70   C73   1.394429 A    
C13   C93   1.182504 T    
C139  C140  1.403992 A    
N16   O80   1.299219 A    
C11   C91   1.181581 T    
C110  C111  1.398825 A    
C123  H22   1.082516 S    
C132  H30   1.082484 S    
C143  C144  1.399367 A    
C77   C87   1.430918 A    
C185  H74   1.081864 S    
O2    Zn2   1.990542 S    
O5    C3    1.265659 A    
C169  C174  1.402828 A    
O5    Zn1   1.990546 S    
C157  C158  1.404301 A    
C171  H62   1.082278 S    
C164  C165  1.397956 A    
C42   C53   1.407091 A    
C100  C101  1.398237 A    
O34   Zn9   1.991704 S    
O43   Zn11  1.991702 S    
C183  C184  1.398397 A    
C176  H66   1.082832 S    
C42   C115  1.485163 S    
C34   C50   1.414229 A    
C121  C126  1.404173 A    
C190  C191  1.398015 A    
O17   C17   1.273617 A    
C25   N1    1.428239 S    
C69   C74   1.394424 A    
C158  C159  1.397972 A    
C160  C161  1.396819 A    
C35   C51   1.414257 A    
C155  H49   1.080299 S    
C50   C163  1.481847 S    
C106  C107  1.398237 A    
C162  H55   1.083291 S    
O2    C2    1.267086 A    
C104  C105  1.398824 A    
C30   N6    1.432108 S    
C153  H47   1.081994 S    
C113  C114  1.398605 A    
C80   C88   1.430888 A    
N10   O68   1.299753 A    
C125  C126  1.399356 A    
C141  C142  1.397386 A    
C36   C52   1.414257 A    
C79   C87   1.430931 A    
O8    C4    1.265665 A    
O43   C63   1.284725 A    
C108  H10   1.082606 S    
C172  C173  1.398022 A    
N13   O73   1.301476 A    
C129  H27   1.082511 S    
C192  H80   1.083244 S    
C29   N5    1.432058 S    
C136  H33   1.082092 S    
C111  C112  1.397918 A    
O32   Zn6   2.037735 S    
C188  H76   1.082825 S    
C26   N2    1.428235 S    
O20   C18   1.273618 A    
C126  H25   1.082481 S    
C99   C100  1.397919 A    
C37   C53   1.413385 A    
O22   Zn4   2.037708 S    
C158  H51   1.082432 S    
C55   C169  1.481441 S    
C57   C90   1.393489 S    
O46   C64   1.285451 A    
C101  H4    1.082064 S    
C51   C145  1.481836 S    
C112  H13   1.082260 S    
C137  H34   1.082391 S    
O16   C8    1.267836 A    
C178  C179  1.398027 A    
C181  C186  1.402819 A    
N11   O70   1.299722 A    
O16   Zn6   1.990546 S    
C1    C9    1.397237 S    
N15   O78   1.299201 A    
O25   C21   1.269594 A    
C103  C108  1.404004 A    
O6    C2    1.265662 A    
C34   C69   1.413658 A    
C39   N15   1.447025 S    
C170  H61   1.082837 S    
O6    Zn4   1.990547 S    
C134  H31   1.083339 S    
O28   C22   1.269646 A    
C131  C132  1.399362 A    
C65   C81   1.410080 A    
C133  C138  1.404182 A    
C181  C182  1.404457 A    
C166  C167  1.396847 A    
C117  H17   1.082553 S    
O47   C63   1.285457 A    
C28   C79   1.425285 A    
C41   C109  1.485165 S    
C44   C103  1.485177 S    
C119  H19   1.082060 S    
C151  C152  1.404291 A    
C164  H56   1.082442 S    
C135  C136  1.397393 A    
C144  H40   1.082504 S    
C179  C180  1.397639 A    
N3    O54   1.300444 A    
C136  C137  1.398602 A    
C130  H28   1.082093 S    
C33   N9    1.448970 S    
C154  C155  1.396855 A    
C25   C41   1.419053 A    
C107  C108  1.398604 A    
C120  H20   1.082610 S    
C150  H45   1.083303 S    
C177  C178  1.398386 A    
C29   C74   1.423472 A    
C6    C14   1.395180 S    
C99   H2    1.082549 S    
C165  H57   1.081971 S    
O29   Zn5   2.037703 S    
C147  C148  1.397655 A    
O31   Zn7   2.037739 S    
C117  C118  1.397919 A    
O19   Zn3   2.037705 S    
C35   C72   1.413688 A    
C15   C95   1.182504 T    
C72   C75   1.394450 A    
O37   C57   1.284138 A    
C139  C144  1.404187 A    
C58   C91   1.393492 S    
C10   C90   1.181577 T    
N12   O72   1.299772 A    
C110  H11   1.083168 S    
C102  H5    1.082606 S    
O46   Zn12  1.991702 S    
O15   C5    1.267824 A    
O13   Zn5   1.990546 S    
C56   C175  1.481447 S    
O34   C58   1.285662 A    
C191  H79   1.081859 S    
O15   Zn7   1.990548 S    
C114  H15   1.082607 S    
C54   C187  1.481439 S    
C123  C124  1.397392 A    
N5    O57   1.301135 A    
C142  C143  1.398599 A    
C68   C82   1.410081 A    
O40   Zn10  1.991676 S    
O3    Zn3   1.990552 S    
