data_mof_unit_61548.cif
_audit_creation_date              2012-12-10T18:08:11-0500
_audit_creation_method            fapswitch 2.2
_symmetry_space_group_name_H-M    P1
_symmetry_Int_Tables_number       1
_space_group_crystal_system       triclinic
_cell_length_a                    12.769675
_cell_length_b                    13.91406
_cell_length_c                    17.288437
_cell_angle_alpha                 90.149633
_cell_angle_beta                  97.686728
_cell_angle_gamma                 82.006225
_cell_volume                      3014.19318876

loop_
_atom_site_label
_atom_site_type_symbol
_atom_type_description
_atom_site_fract_x
_atom_site_fract_y
_atom_site_fract_z
_atom_type_partial_charge
C1    C     C_R   0.516552 0.315919 0.500731 0.848636
C2    C     C_R   0.483448 0.684081 0.499269 0.848639
C3    C     C_1   0.473875 0.787224 0.499279 -0.058674
C4    C     C_1   0.526125 0.212776 0.500721 -0.058676
C5    C     C_2   0.456402 0.977926 0.499617 0.199550
C6    C     C_2   0.543598 0.022074 0.500382 0.199551
C7    C     C_1   0.534670 0.125840 0.500611 0.097151
C8    C     C_1   0.465330 0.874160 0.499389 0.097152
C9    C     C_2   0.974231 0.472602 0.522354 0.055746
C10   C     C_2   0.025769 0.527398 0.477646 0.055746
C11   C     C_1   0.144002 0.519549 0.483944 0.268293
C12   C     C_1   0.855998 0.480450 0.516056 0.268294
C13   C     C_R   0.514027 0.498219 0.650653 0.893243
C14   C     C_R   0.485973 0.501781 0.349347 0.893254
C15   C     C_R   0.523313 0.495283 0.735333 -0.210364
C16   C     C_R   0.476686 0.504717 0.264668 -0.210357
C17   C     C_R   0.469243 0.571364 0.774336 0.220187
C18   C     C_R   0.530737 0.428627 0.225663 0.220184
C19   C     C_R   0.478149 0.568689 0.855113 -0.179180
C20   C     C_R   0.521826 0.431301 0.144886 -0.179181
C21   C     C_R   0.539845 0.490455 0.897976 -0.018775
C22   C     C_R   0.460143 0.509542 0.102025 -0.018784
C23   C     C_R   0.596356 0.414981 0.859564 0.279949
C24   C     C_R   0.403652 0.585026 0.140438 0.279961
C25   C     C_R   0.587647 0.417072 0.777776 0.179575
C26   C     C_R   0.412367 0.582937 0.222226 0.179566
C27   C     C_2   0.544003 0.487601 0.983077 -0.120635
C28   C     C_2   0.455982 0.512394 0.016924 -0.120643
Cu1   Cu    Cu3+1 0.605120 0.493930 0.505020 1.070125
Cu2   Cu    Cu3+1 0.394880 0.506070 0.494980 1.070124
H1    H     H_    0.380143 0.537225 0.981625 0.194943
H2    H     H_    0.619841 0.462771 0.018377 0.194949
H3    H     H_    0.562654 0.371433 0.115400 0.207633
H4    H     H_    0.437307 0.628551 0.884597 0.207630
N1    N     N_1   0.763100 0.484810 0.512560 -0.148175
N2    N     N_1   0.236900 0.515190 0.487440 -0.148175
O1    O     O_R   0.601320 0.356300 0.504850 -0.542775
O2    O     O_R   0.398680 0.643700 0.495150 -0.542775
O3    O     O_R   0.423780 0.366550 0.496380 -0.577308
O4    O     O_R   0.576220 0.633450 0.503620 -0.577308
O5    O     O_R   0.599070 0.494270 0.618330 -0.555427
O6    O     O_R   0.400930 0.505730 0.381670 -0.555431
O7    O     O_R   0.421520 0.504520 0.609850 -0.557958
O8    O     O_R   0.578480 0.495480 0.390150 -0.557960
Br1   Br    Br    0.385798 0.682737 0.720150 -0.415575
Br2   Br    Br    0.614163 0.317246 0.279848 -0.415579
Br3   Br    Br    0.341203 0.689614 0.275883 -0.374224
Br4   Br    Br    0.658838 0.310407 0.724122 -0.374215
Br5   Br    Br    0.680641 0.306694 0.918351 -0.352063
Br6   Br    Br    0.319388 0.693324 0.081653 -0.352060
Br7   Br    Br    0.684031 0.950906 0.501091 -0.391533
Br8   Br    Br    0.315969 0.049094 0.498908 -0.391534
C29   C     C_3   0.961910 0.599774 0.418775 -0.757678
H5    H     H_    0.014975 0.637985 0.387461 0.253766
H6    H     H_    0.910946 0.562006 0.375007 0.241605
H7    H     H_    0.910570 0.654872 0.448679 0.249935
C30   C     C_3   0.038089 0.400226 0.581225 -0.757675
H8    H     H_    0.985025 0.362015 0.612539 0.253769
H9    H     H_    0.089429 0.345128 0.551321 0.249933
H10   H     H_    0.089054 0.437995 0.624994 0.241607

loop_
_geom_bond_atom_site_label_1
_geom_bond_atom_site_label_2
_ccdc_geom_bond_type
C5    C8    S    
C5    Br8   S    
C6    C7    S    
C1    O1    A    
C6    Br7   S    
C9    C10   D    
Cu1   N1    S    
C18   C20   A    
C13   C15   S    
Cu2   N2    S    
C14   O6    A    
C1    C4    S    
C22   C24   A    
C29   H6    S    
C2    C3    S    
C21   C27   S    
C16   C18   A    
C22   C28   S    
C29   H5    S    
C12   N1    T    
C24   Br6   S    
C25   Br4   S    
C30   H8    S    
Cu1   Cu2   S    
C26   Br3   S    
C4    C7    T    
C20   H3    S    
C18   Br2   S    
Cu1   O4    S    
C13   O5    A    
C11   N2    T    
C17   C19   A    
C20   C22   A    
Cu2   O3    S    
C9    C30   S    
C23   C25   A    
Cu1   O8    S    
C16   C26   A    
C5    C6    D    
C9    C12   S    
C14   C16   S    
Cu2   O7    S    
C23   Br5   S    
C30   H9    S    
C10   C11   S    
C1    O3    A    
C2    O4    A    
C13   O7    A    
Cu2   O2    S    
C15   C25   A    
C14   O8    A    
C3    C8    T    
C29   H7    S    
Cu1   O1    S    
C27   C28   D    
C15   C17   A    
C10   C29   S    
C2    O2    A    
Cu2   O6    S    
C30   H10   S    
Cu1   O5    S    
C27   H2    S    
C21   C23   A    
C28   H1    S    
C17   Br1   S    
C24   C26   A    
C19   C21   A    
C19   H4    S    
