data_mof_unit_19862.cif
_audit_creation_date              2013-03-05T16:00:43-0500
_audit_creation_method            fapswitch 2.2
_symmetry_space_group_name_H-M    P1
_symmetry_Int_Tables_number       1
_space_group_crystal_system       triclinic
_cell_length_a                    20.725505
_cell_length_b                    21.502458
_cell_length_c                    14.222689
_cell_angle_alpha                 89.531911
_cell_angle_beta                  91.579367
_cell_angle_gamma                 90.043489
_cell_volume                      6335.71116447

loop_
_atom_site_label
_atom_site_type_symbol
_atom_site_description
_atom_site_fract_x
_atom_site_fract_y
_atom_site_fract_z
_atom_type_partial_charge
O1    O     O_R   0.066090 0.433930 0.580280 -0.606024
O2    O     O_R   0.933910 0.566070 0.419720 -0.593032
O3    O     O_R   0.933910 0.566070 0.580280 -0.580860
O4    O     O_R   0.066090 0.433930 0.419720 -0.608959
O5    O     O_R   0.933910 0.433930 0.419720 -0.602592
O6    O     O_R   0.066090 0.566070 0.580280 -0.561216
O7    O     O_R   0.066090 0.566070 0.419720 -0.625399
O8    O     O_R   0.933910 0.433930 0.580280 -0.614084
O9    O     O_R   0.566090 0.933930 0.580280 -0.585739
O10   O     O_R   0.433910 0.066070 0.419720 -0.574866
O11   O     O_R   0.433910 0.066070 0.580280 -0.564841
O12   O     O_R   0.566090 0.933930 0.419720 -0.594798
O13   O     O_R   0.433910 0.933930 0.419720 -0.606611
O14   O     O_R   0.566090 0.066070 0.580280 -0.599802
O15   O     O_R   0.566090 0.066070 0.419720 -0.594611
O16   O     O_R   0.433910 0.933930 0.580280 -0.593450
C1    C     C_R   0.084336 0.411260 0.500696 0.913238
C2    C     C_R   0.915178 0.588064 0.499210 0.955862
C3    C     C_R   0.914869 0.412349 0.499699 0.928103
C4    C     C_R   0.084674 0.588227 0.500368 0.926666
C5    C     C_R   0.583956 0.910962 0.500917 0.913487
C6    C     C_R   0.415330 0.088143 0.499247 0.955019
C7    C     C_R   0.415057 0.912397 0.499799 0.904623
C8    C     C_R   0.585154 0.087409 0.500129 0.920495
Zn1   Zn    Zn3+2 0.000000 0.500000 0.607200 1.052227
Zn2   Zn    Zn3+2 1.000000 0.500000 0.392800 1.028386
Zn3   Zn    Zn3+2 0.500000 0.000000 0.607200 1.060561
Zn4   Zn    Zn3+2 0.500000 0.000000 0.392800 1.053399
C9    C     C_R   0.117941 0.693902 0.446287 -0.061895
C10   C     C_R   0.882753 0.305515 0.546800 -0.036769
C11   C     C_R   0.870664 0.685734 0.561503 -0.028512
C12   C     C_R   0.118222 0.308710 0.435171 -0.041059
C13   C     C_R   0.620063 0.191929 0.451941 -0.017440
C14   C     C_R   0.376902 0.810440 0.553717 -0.030379
C15   C     C_R   0.368499 0.183350 0.565854 -0.042473
C16   C     C_R   0.619026 0.808566 0.435872 -0.056181
C17   C     C_R   0.128062 0.640661 0.502839 -0.107543
C18   C     C_R   0.870073 0.361407 0.497961 -0.080398
C19   C     C_R   0.866704 0.635801 0.498579 -0.130837
C20   C     C_R   0.124872 0.356180 0.502820 -0.097241
C21   C     C_R   0.632884 0.135226 0.498127 -0.092948
C22   C     C_R   0.366839 0.865044 0.501142 -0.088429
C23   C     C_R   0.366930 0.135816 0.498709 -0.126327
C24   C     C_R   0.623927 0.855535 0.504540 -0.153146
C25   C     C_R   0.179411 0.636770 0.566644 -0.180188
C26   C     C_R   0.814538 0.369792 0.443566 -0.219773
C27   C     C_R   0.812645 0.627117 0.440430 -0.213982
C28   C     C_R   0.169650 0.351525 0.576263 -0.177315
C29   C     C_R   0.693907 0.119975 0.532643 -0.249807
C30   C     C_R   0.308053 0.878498 0.457334 -0.238190
C31   C     C_R   0.314743 0.129074 0.436270 -0.186530
C32   C     C_R   0.666338 0.849720 0.581180 -0.194157
C33   C     C_R   0.224527 0.683918 0.574417 0.035915
C34   C     C_R   0.768383 0.323307 0.436198 0.040393
C35   C     C_R   0.761239 0.668668 0.441315 0.042267
C36   C     C_R   0.211639 0.301909 0.584052 0.032479
C37   C     C_R   0.743983 0.162894 0.528861 0.048217
C38   C     C_R   0.257449 0.836196 0.460497 0.043995
C39   C     C_R   0.263268 0.170520 0.436530 0.037531
C40   C     C_R   0.710702 0.801692 0.586950 0.040835
C41   C     C_R   0.216422 0.737455 0.517130 0.069392
C42   C     C_R   0.780649 0.265784 0.482624 0.073533
C43   C     C_R   0.761466 0.714617 0.511814 0.058072
C44   C     C_R   0.210786 0.257112 0.511745 0.073678
C45   C     C_R   0.732472 0.220243 0.481756 0.068278
C46   C     C_R   0.265423 0.782097 0.516825 0.071894
C47   C     C_R   0.261011 0.213875 0.510217 0.055846
C48   C     C_R   0.710599 0.757086 0.514585 0.075162
C49   C     C_R   0.160188 0.745302 0.458315 -0.022703
C50   C     C_R   0.840245 0.254696 0.532349 -0.007418
C51   C     C_R   0.813909 0.719375 0.577969 -0.004116
C52   C     C_R   0.161664 0.257451 0.439343 -0.030977
C53   C     C_R   0.672121 0.232402 0.435138 -0.002044
C54   C     C_R   0.323574 0.771614 0.570290 -0.009428
C55   C     C_R   0.310822 0.215608 0.580823 0.003247
C56   C     C_R   0.660726 0.756286 0.443747 -0.006759
C57   C     C_R   0.277346 0.678146 0.638709 -0.090405
C58   C     C_R   0.711893 0.332312 0.379651 -0.101405
C59   C     C_R   0.707959 0.662350 0.377849 -0.102964
C60   C     C_R   0.254507 0.296364 0.662883 -0.112668
C61   C     C_R   0.805845 0.148301 0.566871 -0.107121
C62   C     C_R   0.198844 0.847822 0.410551 -0.098930
C63   C     C_R   0.212615 0.166814 0.368352 -0.094804
C64   C     C_R   0.755951 0.798614 0.662922 -0.104466
C65   C     C_R   0.855009 0.193464 0.565359 -0.108665
C66   C     C_R   0.148815 0.803758 0.413200 -0.100063
C67   C     C_R   0.159843 0.207911 0.372863 -0.122061
C68   C     C_R   0.807737 0.756598 0.659173 -0.089054
C69   C     C_R   0.326458 0.723001 0.638455 -0.103931
C70   C     C_R   0.665598 0.284714 0.374076 -0.098184
C71   C     C_R   0.656018 0.704417 0.382129 -0.117427
C72   C     C_R   0.302007 0.250009 0.663750 -0.091588
H1    H     H_    0.185944 0.594469 0.606630 0.199847
H2    H     H_    0.807168 0.414447 0.409603 0.181053
H3    H     H_    0.811128 0.587078 0.395183 0.222249
H4    H     H_    0.173822 0.389161 0.625007 0.184906
H5    H     H_    0.701299 0.074103 0.563038 0.172991
H6    H     H_    0.302725 0.922454 0.420380 0.176682
H7    H     H_    0.314624 0.090669 0.388057 0.222295
H8    H     H_    0.667675 0.885926 0.633463 0.218056
C73   C     C_R   0.942457 0.504543 0.795527 0.045970
C74   C     C_R   0.057424 0.505957 0.204381 0.039975
C75   C     C_R   0.056538 0.496200 0.801517 0.064361
C76   C     C_R   0.943509 0.495091 0.198382 0.043854
C77   C     C_R   0.443050 0.993542 0.796398 0.060297
C78   C     C_R   0.557000 0.007347 0.203796 0.038130
C79   C     C_R   0.556679 0.008158 0.800629 0.036486
C80   C     C_R   0.443631 0.991739 0.198712 0.053203
N1    N     N_R   1.000000 0.500000 0.750030 -0.202719
N2    N     N_R   0.000000 0.500000 0.249970 -0.207502
N3    N     N_R   0.500000 0.000000 0.750030 -0.191132
N4    N     N_R   0.500000 0.000000 0.249970 -0.197646
C81   C     C_R   0.058356 0.503494 0.901344 -0.023947
C82   C     C_R   0.941814 0.503607 0.098578 -0.021037
C83   C     C_R   0.940699 0.507384 0.896640 -0.030707
C84   C     C_R   0.059465 0.505574 0.103280 -0.022456
C85   C     C_R   0.558864 0.003604 0.901240 -0.023903
C86   C     C_R   0.441678 0.997746 0.098413 -0.023525
C87   C     C_R   0.441189 0.998481 0.896832 -0.033159
C88   C     C_R   0.559149 0.003025 0.103199 -0.032635
C89   C     C_R   0.999789 0.505954 0.949480 0.012786
C90   C     C_R   0.000406 0.505542 0.050393 0.012475
C91   C     C_R   0.500153 0.000727 0.949500 0.021155
C92   C     C_R   0.500357 0.000576 0.050294 0.012214
C93   C     C_R   0.117372 0.507680 0.954017 0.058802
C94   C     C_R   0.883030 0.510951 0.046190 0.064324
C95   C     C_R   0.882256 0.512612 0.946741 0.063798
C96   C     C_R   0.118203 0.506495 0.053315 0.071630
C97   C     C_R   0.617877 0.000958 0.954694 0.054093
C98   C     C_R   0.382754 0.002369 0.045353 0.076463
C99   C     C_R   0.382442 0.002583 0.945951 0.058364
C100  C     C_R   0.618005 0.000348 0.054142 0.069756
C101  C     C_2   0.067479 0.692637 0.370144 0.967338
O17   O     O_2   0.082817 0.698540 0.288136 -0.551063
O18   O     O_R   0.002723 0.685032 0.392390 -0.797272
H9    H     H_    0.972987 0.685123 0.334589 0.356636
C102  C     C_2   0.935507 0.303448 0.619738 0.948896
O19   O     O_2   0.991168 0.314392 0.598645 -0.597363
O20   O     O_R   0.921018 0.288632 0.712677 -0.749179
H10   H     H_    0.960684 0.288669 0.756015 0.369534
C103  C     C_2   0.934712 0.710327 0.595320 0.960770
O21   O     O_2   0.977822 0.675547 0.623237 -0.582801
O22   O     O_R   0.945294 0.774581 0.594562 -0.735055
H11   H     H_    0.990056 0.786163 0.619142 0.380808
C104  C     C_2   0.068950 0.316495 0.358366 0.964709
O23   O     O_2   0.011635 0.311695 0.375404 -0.568269
O24   O     O_R   0.088264 0.331751 0.267649 -0.739458
H12   H     H_    0.050309 0.337422 0.221884 0.359015
C105  C     C_2   0.552020 0.212551 0.434572 0.885353
O25   O     O_2   0.513320 0.179486 0.392120 -0.592066
O26   O     O_R   0.533196 0.271402 0.464575 -0.765314
H13   H     H_    0.486959 0.281639 0.445140 0.374413
C106  C     C_2   0.444059 0.789674 0.577044 0.912502
O27   O     O_2   0.463437 0.740622 0.545363 -0.539840
O28   O     O_R   0.484199 0.824776 0.636688 -0.742961
H14   H     H_    0.528105 0.804900 0.647944 0.356142
C107  C     C_2   0.431032 0.207685 0.606889 0.908010
O29   O     O_2   0.476163 0.173175 0.627087 -0.585219
O30   O     O_R   0.438052 0.271678 0.621288 -0.768378
H15   H     H_    0.481815 0.283011 0.649853 0.387026
C108  C     C_2   0.575130 0.817882 0.352680 0.961800
O31   O     O_2   0.516706 0.819694 0.362413 -0.590594
O32   O     O_R   0.601049 0.825514 0.263622 -0.753323
H16   H     H_    0.566554 0.832459 0.212692 0.359064
C109  C     C_2   0.279538 0.626979 0.709453 0.942552
O33   O     O_2   0.243102 0.627981 0.775552 -0.598440
O34   O     O_R   0.321992 0.577252 0.698778 -0.716758
H17   H     H_    0.318289 0.544925 0.750652 0.369581
C110  C     C_2   0.701477 0.390636 0.324539 0.936050
O35   O     O_2   0.693293 0.439667 0.365426 -0.567441
O36   O     O_R   0.700151 0.389020 0.226250 -0.776897
H18   H     H_    0.693089 0.431609 0.196697 0.349965
C111  C     C_2   0.706250 0.612265 0.306150 0.974056
O37   O     O_2   0.747950 0.610121 0.247085 -0.601504
O38   O     O_R   0.656133 0.568735 0.305078 -0.721287
H19   H     H_    0.658957 0.538662 0.250850 0.364738
C112  C     C_2   0.248263 0.336814 0.745988 1.021190
O39   O     O_2   0.270367 0.389539 0.744779 -0.605071
O40   O     O_R   0.218870 0.313632 0.826293 -0.736464
H20   H     H_    0.218503 0.345053 0.879047 0.366029
C113  C     C_2   0.820365 0.084983 0.604444 0.959785
O41   O     O_2   0.797445 0.067783 0.678565 -0.577919
O42   O     O_R   0.860938 0.045698 0.555269 -0.755195
H21   H     H_    0.867395 0.003957 0.587830 0.378363
C114  C     C_2   0.189824 0.905586 0.354069 0.939887
O43   O     O_2   0.182889 0.955437 0.393253 -0.580582
O44   O     O_R   0.190092 0.902390 0.256004 -0.736362
H22   H     H_    0.184357 0.944490 0.224572 0.351254
C115  C     C_2   0.215057 0.121076 0.290382 0.970748
O45   O     O_2   0.260056 0.122257 0.236535 -0.595508
O46   O     O_R   0.165080 0.078104 0.277245 -0.736651
H23   H     H_    0.170488 0.052300 0.218724 0.347052
C116  C     C_2   0.746012 0.836153 0.748518 0.941005
O47   O     O_2   0.783906 0.877598 0.770026 -0.531674
O48   O     O_R   0.691599 0.825123 0.802113 -0.779830
H24   H     H_    0.689505 0.853445 0.858501 0.348181
C117  C     C_2   0.922530 0.174262 0.589398 0.969599
O49   O     O_2   0.935408 0.148244 0.664381 -0.557051
O50   O     O_R   0.971232 0.186166 0.525613 -0.721264
H25   H     H_    0.015200 0.171644 0.549840 0.376182
C118  C     C_2   0.082879 0.823147 0.380945 0.942228
O51   O     O_2   0.038620 0.821250 0.435999 -0.580244
O52   O     O_R   0.071406 0.843290 0.288308 -0.714404
H26   H     H_    0.024600 0.854963 0.275361 0.364517
C119  C     C_2   0.102726 0.195984 0.310246 0.975335
O53   O     O_2   0.107358 0.199632 0.224814 -0.563603
O54   O     O_R   0.044033 0.179457 0.349516 -0.723476
H27   H     H_    0.008649 0.172396 0.300115 0.375004
C120  C     C_2   0.849482 0.744817 0.744588 0.927322
O55   O     O_2   0.875557 0.787925 0.786329 -0.538996
O56   O     O_R   0.859729 0.683709 0.775846 -0.758321
H28   H     H_    0.889431 0.681185 0.833595 0.357796
C121  C     C_2   0.375266 0.723514 0.717241 0.938335
O57   O     O_2   0.381989 0.770164 0.765170 -0.550287
O58   O     O_R   0.413533 0.671155 0.736109 -0.719941
H29   H     H_    0.444936 0.677568 0.791093 0.363602
C122  C     C_2   0.614536 0.286625 0.298140 0.989284
O59   O     O_2   0.580851 0.332868 0.286270 -0.554356
O60   O     O_R   0.604756 0.234589 0.241141 -0.741081
H30   H     H_    0.568459 0.240857 0.192759 0.366768
C123  C     C_2   0.595338 0.690343 0.328234 0.977578
O61   O     O_2   0.595733 0.684984 0.242689 -0.571847
O62   O     O_R   0.537786 0.683207 0.376162 -0.712273
H31   H     H_    0.499621 0.674046 0.332330 0.373926
C124  C     C_2   0.338492 0.233259 0.752561 0.968047
O63   O     O_2   0.359437 0.273673 0.805184 -0.564446
O64   O     O_R   0.349491 0.170570 0.774731 -0.766181
H32   H     H_    0.375198 0.164666 0.835833 0.354406
C125  C     C_2   0.882139 0.499989 0.738690 1.021693
O65   O     O_2   0.858076 0.448932 0.724085 -0.604180
O66   O     O_R   0.849118 0.554006 0.710797 -0.742056
H33   H     H_    0.807414 0.544831 0.674595 0.344803
C126  C     C_2   0.117218 0.513283 0.261548 1.028682
O67   O     O_2   0.140312 0.565156 0.272526 -0.596982
O68   O     O_R   0.151134 0.460755 0.293459 -0.757850
H34   H     H_    0.192438 0.471771 0.329403 0.339969
C127  C     C_2   0.112831 0.470845 0.755880 1.009833
O69   O     O_2   0.127716 0.416786 0.771729 -0.638118
O70   O     O_R   0.151793 0.509162 0.702176 -0.790083
H35   H     H_    0.192254 0.487630 0.680971 0.339477
C128  C     C_2   0.886921 0.469053 0.244043 1.007008
O71   O     O_2   0.855386 0.500628 0.296854 -0.623782
O72   O     O_R   0.867628 0.408672 0.221005 -0.779090
H36   H     H_    0.825972 0.396048 0.250990 0.349284
C129  C     C_2   0.384250 0.977127 0.741611 1.027408
O73   O     O_2   0.365269 0.923257 0.741949 -0.572680
O74   O     O_R   0.347863 0.023409 0.695614 -0.752871
H37   H     H_    0.308158 0.006217 0.661636 0.341548
C130  C     C_2   0.615555 0.024041 0.258890 1.029134
O75   O     O_2   0.634278 0.078003 0.258579 -0.580306
O76   O     O_R   0.652049 0.977950 0.305135 -0.765409
H38   H     H_    0.691576 0.995360 0.339301 0.340271
C131  C     C_2   0.613866 0.029347 0.750671 1.030460
O77   O     O_2   0.644424 0.993173 0.703470 -0.621291
O78   O     O_R   0.634892 0.090637 0.762556 -0.766283
H39   H     H_    0.676377 0.099691 0.729090 0.367409
C132  C     C_2   0.386653 0.968275 0.246736 1.011907
O79   O     O_2   0.356149 0.002296 0.297318 -0.630888
O80   O     O_R   0.365488 0.907705 0.228566 -0.771657
H40   H     H_    0.323605 0.897371 0.260130 0.353744
N5    N     N_3   0.177063 0.516732 0.906562 -0.412463
H41   H     H_    0.197776 0.558854 0.927681 0.240892
H42   H     H_    0.208666 0.480217 0.923398 0.205652
N6    N     N_3   0.823885 0.520984 0.094351 -0.418647
H43   H     H_    0.805231 0.564668 0.075913 0.230302
H44   H     H_    0.790550 0.486477 0.075514 0.207883
N7    N     N_3   0.821446 0.521015 0.897462 -0.422610
H45   H     H_    0.790268 0.484720 0.914762 0.214425
H46   H     H_    0.801260 0.563543 0.916030 0.219265
N8    N     N_3   0.179642 0.504420 0.102499 -0.425543
H47   H     H_    0.204760 0.464722 0.082613 0.214325
H48   H     H_    0.206317 0.544169 0.086414 0.217104
N9    N     N_3   0.678331 0.995647 0.908252 -0.421284
H49   H     H_    0.707780 0.033358 0.926599 0.232007
H50   H     H_    0.701216 0.954291 0.928784 0.202257
N10   N     N_3   0.322967 0.011278 0.092353 -0.426586
H51   H     H_    0.303050 0.054181 0.072455 0.228321
H52   H     H_    0.290871 0.975612 0.073961 0.210966
N11   N     N_3   0.322095 0.010793 0.895242 -0.426924
H53   H     H_    0.290596 0.974813 0.912773 0.217475
H54   H     H_    0.301915 0.053562 0.912606 0.218124
N12   N     N_3   0.678483 0.993377 0.104965 -0.428862
H55   H     H_    0.699654 0.951060 0.087618 0.215233
H56   H     H_    0.709190 0.030062 0.087747 0.217649

loop_
_geom_bond_atom_site_label_1
_geom_bond_atom_site_label_2
_geom_bond_distance
_ccdc_geom_bond_type
C9    C101  1.485036 S    
O36   H18   1.013539 S    
C129  O74   1.396552 S    
C60   C72   1.401238 A    
C94   C95   1.414250 A    
C83   C89   1.419332 A    
O2    C2    1.298369 A    
C118  O52   1.397721 S    
C110  O35   1.222372 D    
C59   C111  1.488930 S    
C69   C121  1.488869 S    
C97   N9    1.437450 S    
O24   H12   1.013876 S    
C14   C22   1.399505 A    
C61   C113  1.486490 S    
O52   H26   1.013772 S    
C25   H1    1.075436 S    
C15   C23   1.404246 A    
C104  O23   1.222980 D    
O15   Zn4   2.004524 S    
C47   C55   1.420911 A    
C83   C95   1.427111 A    
O18   H9    1.013757 S    
C12   C52   1.423538 A    
C78   N4    1.375730 A    
C119  O53   1.223374 D    
O10   C6    1.298445 A    
C102  O20   1.397775 S    
C79   C131  1.468854 S    
C130  O75   1.223212 D    
C109  O33   1.222292 D    
O7    Zn2   2.004524 S    
C95   N7    1.435909 S    
O12   Zn4   2.001564 S    
C105  O25   1.221813 D    
C13   C53   1.409945 A    
C78   C130  1.472119 S    
C27   C35   1.391352 A    
C75   C81   1.429187 A    
C39   C63   1.411994 A    
C53   C70   1.419706 A    
C132  O79   1.219330 D    
C103  O22   1.398750 S    
C131  O77   1.220459 D    
C82   C94   1.418720 A    
C114  O44   1.397168 S    
O6    Zn1   2.014488 S    
C81   C93   1.419795 A    
C57   C109  1.484726 S    
O72   H36   1.009445 S    
C46   C54   1.424293 A    
C113  O41   1.222602 D    
C29   C37   1.390162 A    
C42   C50   1.425532 A    
O3    C2    1.292497 A    
C115  O46   1.397228 S    
C128  O71   1.219980 D    
C118  O51   1.222794 D    
O14   C8    1.296990 A    
C12   C20   1.412505 A    
C117  O50   1.397733 S    
O64   H32   1.013899 S    
C67   C119  1.485071 S    
C70   C122  1.491456 S    
C32   C40   1.383674 A    
C10   C50   1.415887 A    
C33   C41   1.412340 A    
C41   C46   1.396980 A    
C38   C46   1.414247 A    
C107  O29   1.220992 D    
O70   H35   1.012574 S    
C87   C91   1.416652 A    
N6    H43   1.044745 S    
C112  O40   1.397389 S    
C35   C43   1.413329 A    
C93   C96   1.411927 A    
C87   C99   1.423510 A    
O68   H34   1.013811 S    
C36   C44   1.414546 A    
O13   Zn4   2.014491 S    
C79   C85   1.432977 A    
N5    H42   1.044927 S    
O14   Zn3   2.014488 S    
C71   C123  1.486886 S    
C16   C56   1.420301 A    
C126  O67   1.222902 D    
Zn2   N2    2.031428 S    
C59   C71   1.409521 A    
C28   C36   1.379111 A    
O9    Zn3   2.020359 S    
C75   C127  1.458845 S    
O80   H40   1.011910 S    
C97   C100  1.414311 A    
C39   C47   1.410093 A    
C24   C32   1.386196 A    
O16   Zn3   2.004528 S    
C121  O58   1.397574 S    
C77   N3    1.374237 A    
Zn3   N3    2.031427 S    
O50   H25   1.013910 S    
C107  O30   1.399687 S    
C10   C102  1.486732 S    
C129  O73   1.223041 D    
O1    Zn1   2.020359 S    
C8    C21   1.426902 S    
C110  O36   1.398170 S    
C105  O26   1.398013 S    
C80   C132  1.467488 S    
C115  O45   1.223102 D    
C96   N8    1.436413 S    
C21   C29   1.382701 A    
C104  O24   1.397821 S    
O13   C7    1.296104 A    
C108  O31   1.223218 D    
C9    C49   1.418042 A    
C111  O38   1.397524 S    
C31   H7    1.077642 S    
C124  O64   1.399276 S    
C30   H6    1.081955 S    
O8    C3    1.291535 A    
C130  O76   1.396420 S    
C62   C114  1.482841 S    
C94   N6    1.437863 S    
O46   H23   1.012902 S    
C30   C38   1.389185 A    
C44   C47   1.396928 A    
C80   C86   1.430768 A    
O76   H38   1.013889 S    
C98   N10   1.437731 S    
C74   C84   1.439811 A    
C9    C17   1.406252 A    
O62   H31   1.013763 S    
C120  O55   1.222392 D    
C45   C53   1.422826 A    
C37   C45   1.415815 A    
O34   H17   1.013941 S    
C131  O78   1.397860 S    
O48   H24   1.012865 S    
C108  O32   1.397810 S    
C12   C104  1.483211 S    
C34   C42   1.417180 A    
C116  O48   1.397528 S    
C122  O59   1.223296 D    
C111  O37   1.222897 D    
O12   C5    1.296935 A    
C25   C33   1.381666 A    
C58   C110  1.486197 S    
C58   C70   1.403571 A    
C74   C126  1.472381 S    
O54   H27   1.013745 S    
C88   C92   1.415517 A    
C132  O80   1.397797 S    
C1    C20   1.452209 S    
C22   C30   1.382781 A    
C11   C103  1.496983 S    
C33   C57   1.411764 A    
C2    C19   1.436645 S    
C15   C107  1.502137 S    
O56   H28   1.013885 S    
C123  O61   1.223323 D    
C86   C98   1.420899 A    
C3    C18   1.435293 S    
C5    C24   1.451734 S    
C35   C59   1.414019 A    
C7    C22   1.426534 S    
O30   H15   1.013944 S    
C26   H2    1.080367 S    
C125  O66   1.397689 S    
O11   Zn3   2.001564 S    
C64   C116  1.485322 S    
O26   H13   1.013852 S    
C57   C69   1.401770 A    
C26   C34   1.385592 A    
C124  O63   1.223068 D    
N12   H55   1.044796 S    
O42   H21   1.013859 S    
O2    Zn2   2.020359 S    
C86   C92   1.412877 A    
C48   C56   1.423600 A    
C51   C68   1.419252 A    
C126  O68   1.396802 S    
C66   C118  1.488249 S    
C77   C129  1.472542 S    
C89   C90   1.434912 A    
C84   C90   1.418889 A    
C55   C72   1.413487 A    
C14   C54   1.408512 A    
C76   C82   1.429243 A    
O4    C1    1.293883 A    
C65   C117  1.489267 S    
O15   C8    1.287611 A    
O66   H33   1.013904 S    
C43   C51   1.422022 A    
C72   C124  1.495778 S    
C116  O47   1.222585 D    
O16   C7    1.288797 A    
C91   C92   1.433431 A    
C68   C120  1.491941 S    
C127  O70   1.391769 S    
C101  O17   1.222921 D    
C73   C83   1.441355 A    
C37   C61   1.412155 A    
C16   C24   1.412331 A    
C106  O28   1.397148 S    
C40   C64   1.412254 A    
O1    C1    1.301818 A    
C17   C25   1.381580 A    
O78   H39   1.012177 S    
O60   H30   1.013761 S    
C52   C67   1.429889 A    
C85   C97   1.423110 A    
C54   C69   1.420028 A    
C19   C27   1.387534 A    
C119  O54   1.396960 S    
C14   C106  1.489904 S    
O10   Zn4   2.020359 S    
C99   N11   1.436718 S    
C20   C28   1.381072 A    
C43   C48   1.396873 A    
C120  O56   1.398178 S    
C73   C125  1.473533 S    
C28   H4    1.071816 S    
C42   C45   1.397893 A    
C78   C88   1.436450 A    
C88   C100  1.423293 A    
C79   N3    1.372494 A    
C63   C115  1.490148 S    
C15   C55   1.404672 A    
N10   H52   1.044989 S    
C109  O34   1.397135 S    
C36   C60   1.415514 A    
C63   C67   1.409799 A    
O4    Zn2   2.001564 S    
O20   H10   1.013827 S    
C76   C128  1.464842 S    
O5    C3    1.296480 A    
Zn1   N1    2.031427 S    
O40   H20   1.013936 S    
C122  O60   1.398445 S    
C81   C89   1.411159 A    
O6    C4    1.296960 A    
C102  O19   1.222157 D    
O11   C6    1.291782 A    
N12   H56   1.044943 S    
C125  O65   1.222419 D    
C75   N1    1.366701 A    
N7    H45   1.044992 S    
C41   C49   1.425064 A    
C60   C112  1.481794 S    
C38   C62   1.411522 A    
C98   C99   1.413567 A    
C85   C91   1.414512 A    
N11   H53   1.044974 S    
C13   C21   1.402318 A    
O44   H22   1.011970 S    
C123  O62   1.397778 S    
O38   H19   1.013476 S    
C62   C66   1.405102 A    
C103  O21   1.221405 D    
O8    Zn1   2.004528 S    
N11   H54   1.044818 S    
C76   N2    1.368934 A    
C4    C17   1.441680 S    
N7    H46   1.044819 S    
O9    C5    1.299046 A    
C114  O43   1.222555 D    
N5    H41   1.044798 S    
C64   C68   1.405862 A    
C23   C31   1.388685 A    
C121  O57   1.223123 D    
C100  N12   1.436870 S    
C11   C51   1.407466 A    
N9    H50   1.043932 S    
C11   C19   1.404285 A    
N8    H48   1.044778 S    
C44   C52   1.427931 A    
O58   H29   1.013773 S    
C117  O49   1.223246 D    
C18   C26   1.380131 A    
O32   H16   1.013874 S    
C74   N2    1.376311 A    
C112  O39   1.222618 D    
C56   C71   1.425683 A    
C29   H5    1.082988 S    
O5    Zn2   2.014491 S    
C82   C90   1.411155 A    
C80   N4    1.372133 A    
C113  O42   1.397494 S    
O3    Zn1   2.001564 S    
C31   C39   1.390721 A    
N10   H51   1.044702 S    
C40   C48   1.412527 A    
C16   C108  1.484880 S    
N6    H44   1.044940 S    
O7    C4    1.294338 A    
C84   C96   1.426470 A    
C93   N5    1.437868 S    
O28   H14   1.013800 S    
C101  O18   1.396532 S    
C32   H8    1.080788 S    
C27   H3    1.079003 S    
N8    H47   1.045154 S    
C77   C87   1.434832 A    
C13   C105  1.492082 S    
C10   C18   1.404513 A    
C128  O72   1.397093 S    
C106  O27   1.222788 D    
C127  O69   1.220476 D    
C50   C65   1.424838 A    
C73   N1    1.376350 A    
Zn4   N4    2.031428 S    
C6    C23   1.434619 S    
C61   C65   1.407530 A    
C49   C66   1.423423 A    
O22   H11   1.013944 S    
O74   H37   1.013859 S    
C34   C58   1.414555 A    
N9    H49   1.045019 S    
