data_mof_unit_21257.cif
_audit_creation_date              2012-10-26T18:32:02-0400
_audit_creation_method            fapswitch 2.2
_symmetry_space_group_name_H-M    P1
_symmetry_Int_Tables_number       1
_space_group_crystal_system       triclinic
_cell_length_a                    12.369825
_cell_length_b                    13.259412
_cell_length_c                    14.268564
_cell_angle_alpha                 92.969096
_cell_angle_beta                  107.75439
_cell_angle_gamma                 116.743915
_cell_volume                      1940.61621745

loop_
_atom_site_label
_atom_site_type_symbol
_atom_type_description
_atom_site_fract_x
_atom_site_fract_y
_atom_site_fract_z
_atom_type_partial_charge
C1    C     C_R   0.650750 0.714105 0.508624 0.536999
C2    C     C_R   0.192528 0.467383 0.003182 0.054049
C3    C     C_R   0.164213 0.513494 0.078671 0.036340
C4    C     C_R   0.619205 0.517600 0.686623 0.543480
C5    C     C_R   0.284769 0.429703 0.030044 -0.125437
C6    C     C_R   0.346535 0.434165 0.130933 -0.094159
C7    C     C_R   0.225457 0.514666 0.179557 -0.134662
C8    C     C_R   0.168912 0.962550 0.401337 -0.107945
C9    C     C_R   0.259302 0.163339 0.478444 0.003327
C10   C     C_R   0.732708 0.919172 0.579580 -0.128761
C11   C     C_R   0.831916 0.033184 0.611198 -0.132333
C12   C     C_R   0.885619 0.547380 0.920195 -0.037226
C13   C     C_R   0.939377 0.067020 0.583466 -0.114967
C14   C     C_R   0.945498 0.988605 0.516482 0.022872
C15   C     C_R   0.838027 0.874395 0.476743 0.006441
C16   C     C_R   0.347780 0.285778 0.488680 0.558370
C17   C     C_R   0.054677 0.019853 0.487347 0.023739
C18   C     C_R   0.059299 0.934860 0.426538 0.032432
C19   C     C_R   0.949721 0.826655 0.383002 -0.124482
C20   C     C_R   0.836013 0.801361 0.399088 -0.012871
C21   C     C_R   0.156664 0.134069 0.512437 -0.131563
C22   C     C_R   0.268971 0.076502 0.427569 -0.116027
C23   C     C_R   0.879399 0.620730 0.992039 0.054105
C24   C     C_R   0.737469 0.837593 0.516656 -0.003818
C25   C     C_R   0.252851 0.684497 0.661387 -0.146977
C26   C     C_R   0.657977 0.342574 0.363453 0.139921
C27   C     C_R   0.737998 0.309860 0.335090 -0.155625
C28   C     C_R   0.380814 0.482397 0.313188 0.568787
C29   C     C_R   0.871664 0.369172 0.386709 -0.142398
C30   C     C_R   0.929038 0.463348 0.468456 -0.003557
C31   C     C_R   0.843671 0.494750 0.495903 0.174158
C32   C     C_R   0.067910 0.527194 0.523745 -0.009414
C33   C     C_R   0.118484 0.620687 0.605615 0.032448
C34   C     C_R   0.993186 0.526614 0.947294 0.011293
C35   C     C_R   0.034933 0.650258 0.631456 -0.177273
C36   C     C_R   0.901298 0.589218 0.577950 -0.096767
C37   C     C_R   0.159926 0.502789 0.501754 0.039236
C38   C     C_R   0.337501 0.656105 0.636113 0.040951
C39   C     C_R   0.696824 0.541079 0.794087 -0.013737
C40   C     C_R   0.316495 0.476046 0.206171 0.015043
C41   C     C_R   0.784508 0.655322 0.963363 -0.101698
C42   C     C_R   0.697307 0.619389 0.864133 -0.170063
C43   C     C_R   0.782597 0.496358 0.824939 -0.029022
C44   C     C_1   0.716653 0.715302 0.320576 0.242880
C45   C     C_R   0.071990 0.552898 0.050524 -0.024600
C46   C     C_1   0.520444 0.277265 0.305618 0.242982
C47   C     C_1   0.750576 0.387471 0.765574 0.210522
C48   C     C_R   0.059341 0.621313 0.121296 -0.103126
C49   C     C_R   0.967997 0.658453 0.091516 0.366750
C50   C     C_R   0.030133 0.488569 0.874140 -0.111592
C51   C     C_R   0.128691 0.459817 0.901839 -0.126836
Cu1   Cu    Cu3+1 0.416420 0.526630 0.522910 0.930981
Cu2   Cu    Cu3+1 0.583580 0.473370 0.477090 0.981686
F1    F     F_    0.965078 0.730190 0.160871 -0.680863
H1    H     H_    0.308249 0.395825 0.972905 0.112652
H2    H     H_    0.200425 0.542059 0.238438 0.120767
H3    H     H_    0.073417 0.722004 0.694133 0.116922
H4    H     H_    0.292299 0.756147 0.724341 0.101140
H5    H     H_    0.130008 0.433237 0.440743 0.121139
H6    H     H_    0.927542 0.339187 0.360766 0.106574
H7    H     H_    0.696479 0.237591 0.272115 0.112885
H8    H     H_    0.847017 0.619714 0.604023 0.180191
H9    H     H_    0.417256 0.404392 0.149904 0.158215
H10   H     H_    0.153175 0.429397 0.843534 0.110131
H11   H     H_    0.780303 0.713388 0.016692 0.183784
H12   H     H_    0.349565 0.097354 0.402859 0.153284
H13   H     H_    0.631032 0.653792 0.841971 0.130250
H14   H     H_    0.124511 0.653570 0.199272 0.128854
H15   H     H_    0.986997 0.484982 0.794946 0.132698
H16   H     H_    0.948723 0.765896 0.328506 0.191938
H17   H     H_    0.173767 0.897333 0.356398 0.154949
H18   H     H_    0.154715 0.203521 0.552939 0.121759
H19   H     H_    0.655746 0.893588 0.609391 0.133380
H20   H     H_    0.016509 0.154702 0.617446 0.103833
H21   H     H_    0.828844 0.094535 0.662042 0.138808
H22   H     H_    0.441051 0.705318 0.679224 0.117549
N1    N     N_R   0.290690 0.566960 0.557640 -0.234456
N2    N     N_R   0.709100 0.433710 0.442970 -0.243456
N3    N     N_1   0.622307 0.647826 0.255694 -0.294382
N4    N     N_1   0.410068 0.223923 0.258166 -0.324809
N5    N     N_1   0.724602 0.300619 0.718196 -0.305472
O1    O     O_R   0.545970 0.684450 0.528810 -0.506429
O2    O     O_R   0.687130 0.639470 0.490120 -0.520684
O3    O     O_R   0.519670 0.535100 0.660030 -0.506376
O4    O     O_R   0.660830 0.490120 0.621340 -0.512215
O5    O     O_R   0.312870 0.360530 0.509880 -0.514161
O6    O     O_R   0.454030 0.315550 0.471190 -0.488624
O7    O     O_R   0.339170 0.509880 0.378660 -0.514619
O8    O     O_R   0.480330 0.464900 0.339970 -0.478015

loop_
_geom_bond_atom_site_label_1
_geom_bond_atom_site_label_2
_ccdc_geom_bond_type
C30   C32   A    
C27   C29   A    
C41   C42   A    
C19   C20   A    
C38   H22   S    
C12   C23   A    
C26   C27   A    
C26   N2    A    
C50   H15   S    
C12   C43   A    
C3    C7    A    
C30   C31   A    
C10   H19   S    
C9    C22   A    
C23   C49   A    
C28   C40   S    
C49   F1    S    
C18   C19   A    
Cu1   O3    S    
C22   H12   S    
C27   H7    S    
C35   C36   A    
C28   O7    A    
C16   O6    A    
C8    C22   A    
C7    C40   A    
C29   H6    S    
C28   O8    A    
C13   C14   A    
C16   O5    A    
C14   C17   A    
C7    H2    S    
C36   H8    S    
C20   C44   S    
C50   C51   A    
C39   C42   A    
C15   C20   A    
C34   C50   A    
C21   H18   S    
Cu1   O7    S    
C10   C11   A    
C41   H11   S    
C4    O4    A    
C10   C24   A    
C1    O1    A    
C37   N1    A    
C3    C45   A    
C8    C18   A    
C6    H9    S    
C29   C30   A    
C25   C38   A    
C4    O3    A    
C4    C39   S    
C17   C18   A    
Cu2   O6    S    
C34   C45   A    
C32   C37   A    
C48   H14   S    
Cu1   O1    S    
C37   H5    S    
C48   C49   A    
Cu2   O8    S    
C42   H13   S    
C6    C40   A    
C2    C5    A    
C25   H4    S    
C12   C34   A    
Cu1   N1    S    
Cu1   Cu2   S    
C31   N2    A    
C45   C48   A    
C15   C24   A    
C8    H17   S    
C14   C15   A    
C5    H1    S    
C44   N3    T    
C51   H10   S    
C39   C43   A    
C38   N1    A    
C1    O2    A    
C23   C41   A    
Cu2   O2    S    
C35   H3    S    
C32   C33   A    
Cu1   O5    S    
Cu2   N2    S    
C11   H21   S    
C46   N4    T    
C11   C13   A    
C9    C21   A    
C5    C6    A    
C33   C35   A    
C2    C3    A    
C47   N5    T    
C17   C21   A    
C2    C51   A    
C26   C46   S    
C13   H20   S    
C1    C24   S    
C25   C33   A    
C31   C36   A    
C19   H16   S    
Cu2   O4    S    
C43   C47   S    
C9    C16   S    
