data_mof_unit_26133.cif
_audit_creation_date              2012-12-10T16:37:27-0500
_audit_creation_method            fapswitch 2.2
_symmetry_space_group_name_H-M    P1
_symmetry_Int_Tables_number       1
_space_group_crystal_system       triclinic
_cell_length_a                    16.789214
_cell_length_b                    16.849115
_cell_length_c                    16.806341
_cell_angle_alpha                 65.786243
_cell_angle_beta                  66.215313
_cell_angle_gamma                 66.316292
_cell_volume                      3805.36618208

loop_
_atom_site_label
_atom_site_type_symbol
_atom_type_description
_atom_site_fract_x
_atom_site_fract_y
_atom_site_fract_z
_atom_type_partial_charge
C1    C     C_R   0.406102 0.033381 0.664245 0.481193
C2    C     C_R   0.393461 0.655273 0.078524 0.483124
C3    C     C_3   0.593486 0.215968 0.322483 -0.825417
C4    C     C_3   0.235386 0.502695 0.257006 0.089739
C5    C     C_3   0.309868 0.489718 0.294987 -0.896208
C6    C     C_3   0.371139 0.816208 0.731462 0.063414
C7    C     C_3   0.332119 0.739897 0.752425 -0.886476
C8    C     C_3   0.754676 0.756198 0.491197 0.136783
C9    C     C_3   0.704188 0.709034 0.475333 -0.821685
C10   C     C_3   0.734708 0.308364 0.946807 0.090003
C11   C     C_3   0.824776 0.268200 0.969683 -0.801911
C12   C     C_3   0.308238 0.749856 0.981769 0.089563
C13   C     C_R   0.950458 0.597824 0.336767 0.516289
C14   C     C_3   0.211801 0.802365 0.976408 -0.854445
C15   C     C_3   0.899499 0.736809 0.232321 0.169951
C16   C     C_3   0.900706 0.834445 0.201410 -0.711809
C17   C     C_3   0.953307 0.320080 0.719377 0.104972
C18   C     C_3   0.943763 0.224330 0.758665 -0.829624
C19   C     C_R   0.056242 0.401417 0.655273 0.503912
C20   C     C_R   0.982276 0.175537 0.429648 0.926464
C21   C     C_R   0.037091 0.820829 0.562439 0.884333
C22   C     C_R   0.175886 0.430502 0.981674 0.914982
C23   C     C_R   0.820696 0.561951 0.037973 0.895000
C24   C     C_R   0.437613 0.962764 0.179523 0.906589
C25   C     C_R   0.562285 0.036883 0.820374 0.905342
C26   C     C_R   0.562594 0.820606 0.036653 0.906022
C27   C     C_R   0.602267 0.938109 0.340403 0.510129
C28   C     C_R   0.436621 0.179392 0.966998 0.903385
C29   C     C_R   0.035821 0.562844 0.820422 0.923593
C30   C     C_R   0.961198 0.438306 0.179248 0.879873
C31   C     C_R   0.824157 0.019213 0.569553 0.929181
C32   C     C_R   0.179196 0.963036 0.437636 0.882945
C33   C     C_R   0.450948 0.057724 0.702580 -0.351179
C34   C     C_R   0.556055 0.925001 0.295594 -0.352330
C35   C     C_R   0.073601 0.709466 0.442690 -0.329559
C36   C     C_R   0.071390 0.261540 0.482824 -0.337945
C37   C     C_R   0.698250 0.440016 0.104846 -0.362671
C38   C     C_R   0.054971 0.670689 0.394426 0.539225
C39   C     C_R   0.253778 0.488024 0.075346 -0.342753
C40   C     C_R   0.294905 0.919813 0.557218 -0.285455
C41   C     C_R   0.741624 0.931447 0.512799 -0.335197
C42   C     C_R   0.545106 0.283535 0.978282 -0.301147
C43   C     C_R   0.441852 0.703161 0.083482 -0.336278
C44   C     C_R   0.928663 0.549789 0.299593 -0.349868
C45   C     C_R   0.064681 0.446252 0.704056 -0.314676
C46   C     C_R   0.552729 0.980439 0.559880 -0.130177
C47   C     C_R   0.466583 0.946338 0.469013 -0.139115
C48   C     C_R   0.047762 0.538798 0.527499 -0.125947
C49   C     C_R   0.094556 0.305529 0.521383 0.520789
C50   C     C_R   0.016317 0.451732 0.435653 -0.144474
C51   C     C_R   0.526579 0.525139 0.076855 -0.135766
C52   C     C_R   0.441386 0.432843 0.043401 -0.130742
C53   C     C_R   0.604809 0.945724 0.484654 -0.023008
C54   C     C_R   0.419929 0.958421 0.556252 -0.059598
C55   C     C_R   0.054986 0.445314 0.563451 -0.039659
C56   C     C_R   0.999250 0.547641 0.403330 -0.023563
C57   C     C_R   0.434588 0.564015 0.077162 -0.015264
C58   C     C_R   0.532090 0.392028 0.047798 -0.012527
C59   C     C_R   0.559480 0.942592 0.430926 -0.009457
C60   C     C_R   0.645184 0.389156 0.112111 0.525536
C61   C     C_R   0.458557 0.990037 0.594842 -0.009658
C62   C     C_R   0.389175 0.510578 0.073030 -0.028480
C63   C     C_R   0.569109 0.433797 0.078154 -0.034572
C64   C     C_R   0.055871 0.400175 0.507896 -0.046581
C65   C     C_R   0.030787 0.588140 0.441274 -0.041399
C66   C     C_R   0.546031 0.036605 0.676756 0.057488
C67   C     C_R   0.462227 0.933462 0.330512 0.038350
C68   C     C_R   0.062262 0.673105 0.536995 0.023633
C69   C     C_R   0.014991 0.311048 0.425069 0.010801
C70   C     C_R   0.667761 0.535583 0.078511 0.031526
C71   C     C_R   0.294177 0.526374 0.103357 0.566258
C72   C     C_R   0.306779 0.427230 0.023049 0.014594
C73   C     C_R   0.328954 0.934058 0.462346 -0.002271
C74   C     C_R   0.690705 0.985453 0.572108 0.008613
C75   C     C_R   0.451642 0.316951 0.983122 0.039388
C76   C     C_R   0.535957 0.668568 0.073308 0.026313
C77   C     C_R   0.956338 0.455110 0.323364 0.056014
C78   C     C_R   0.060117 0.539481 0.669065 0.020952
C79   C     C_R   0.593855 0.048832 0.722889 -0.107857
C80   C     C_R   0.408623 0.939879 0.278713 -0.100404
C81   C     C_R   0.059037 0.722196 0.590954 -0.093444
C82   C     C_R   0.340524 0.929757 0.604339 0.580393
C83   C     C_R   0.981574 0.269265 0.391235 -0.089292
C84   C     C_R   0.721534 0.591257 0.062140 -0.100066
C85   C     C_R   0.268775 0.392781 0.985836 -0.078391
C86   C     C_R   0.277919 0.940321 0.408599 -0.092315
C87   C     C_R   0.731049 0.018503 0.607550 -0.087291
C88   C     C_R   0.405499 0.275190 0.961696 -0.098184
C89   C     C_R   0.591474 0.721670 0.060091 -0.100427
C90   C     C_R   0.946228 0.406769 0.277096 -0.104885
C91   C     C_R   0.057026 0.591552 0.721003 -0.102290
C92   C     C_R   0.682093 0.050595 0.681494 -0.311407
C93   C     C_R   0.699450 0.909373 0.471401 0.538683
C94   C     C_R   0.319547 0.938660 0.319876 -0.308871
C95   C     C_R   0.061784 0.679367 0.679296 -0.312597
C96   C     C_R   0.947037 0.317909 0.318198 -0.309071
C97   C     C_R   0.681562 0.681485 0.057311 -0.310727
C98   C     C_R   0.319314 0.319192 0.953952 -0.320334
C99   C     C_R   0.596082 0.001967 0.602148 0.057432
C100  C     C_R   0.419478 0.937680 0.420546 0.061010
C101  C     C_R   0.056902 0.583590 0.577936 0.058093
C102  C     C_R   0.995205 0.406286 0.395278 0.054984
C103  C     C_R   0.576550 0.576573 0.076474 0.062954
C104  C     C_R   0.583874 0.316303 0.014064 0.469390
C105  C     C_R   0.400481 0.393184 0.015042 0.053804
C106  C     C_3   0.265958 0.059335 0.774330 0.169069
C107  C     C_3   0.168072 0.062974 0.793975 -0.761282
C108  C     C_3   0.682933 0.029888 0.217797 0.107822
C109  C     C_3   0.765515 0.063191 0.188171 -0.802413
C110  C     C_3   0.137020 0.744675 0.250276 0.140659
C111  C     C_3   0.111813 0.847892 0.228254 -0.900339
C112  C     C_3   0.246828 0.252261 0.507925 0.133563
C113  C     C_3   0.297855 0.284152 0.540612 -0.801305
C114  C     C_3   0.621386 0.301732 0.259872 0.090369
H1    H     H_    0.715229 0.069076 0.712313 0.187270
H2    H     H_    0.101617 0.189091 0.495664 0.192259
H3    H     H_    0.758497 0.404020 0.127796 0.176705
H4    H     H_    0.180914 0.501420 0.101647 0.197017
H5    H     H_    0.235912 0.895369 0.597325 0.193672
H6    H     H_    0.813841 0.900380 0.502168 0.194759
H7    H     H_    0.591534 0.232322 0.945369 0.189611
H8    H     H_    0.402483 0.767945 0.095170 0.198883
H9    H     H_    0.886238 0.585715 0.254279 0.146150
H10   H     H_    0.075870 0.404352 0.769128 0.205821
H11   H     H_    0.264243 0.119226 0.788069 0.123482
H12   H     H_    0.279644 0.943932 0.279828 0.192346
H13   H     H_    0.297615 0.995385 0.821141 0.127824
H14   H     H_    0.130089 0.063616 0.865331 0.178593
H15   H     H_    0.135562 0.125490 0.747229 0.308401
H16   H     H_    0.165123 0.003086 0.784177 0.267369
H17   H     H_    0.621043 0.086044 0.233942 0.157535
H18   H     H_    0.682377 0.014518 0.159717 0.147998
H19   H     H_    0.752073 0.134706 0.144927 0.292809
H20   H     H_    0.781262 0.058641 0.248296 0.258629
H21   H     H_    0.825590 0.022467 0.147663 0.221449
H22   H     H_    0.161922 0.729721 0.184988 0.268656
H23   H     H_    0.059575 0.717927 0.718741 0.193641
H24   H     H_    0.194478 0.709792 0.281143 0.123835
H25   H     H_    0.172061 0.867950 0.216347 0.224867
H26   H     H_    0.089542 0.882427 0.165531 0.225733
H27   H     H_    0.055884 0.872402 0.284195 0.270231
H28   H     H_    0.249113 0.293877 0.435724 0.092258
H29   H     H_    0.283195 0.180684 0.508047 0.183410
H30   H     H_    0.298664 0.243221 0.611662 0.282257
H31   H     H_    0.368853 0.276827 0.496145 0.199513
H32   H     H_    0.264235 0.356568 0.538157 0.235534
H33   H     H_    0.559840 0.360158 0.271165 0.129310
H34   H     H_    0.929184 0.284340 0.287417 0.188218
H35   H     H_    0.674592 0.305544 0.280533 0.144902
H36   H     H_    0.653570 0.155760 0.321832 0.262521
H37   H     H_    0.562021 0.220054 0.393377 0.208993
H38   H     H_    0.543124 0.208621 0.300797 0.250229
H39   H     H_    0.235270 0.435889 0.258465 0.120390
H40   H     H_    0.169854 0.528563 0.303474 0.185800
H41   H     H_    0.314516 0.556539 0.287218 0.263804
H42   H     H_    0.293967 0.451215 0.368407 0.221197
H43   H     H_    0.376265 0.450692 0.259254 0.248202
H44   H     H_    0.377599 0.815012 0.794901 0.150251
H45   H     H_    0.723118 0.722917 0.045216 0.194193
H46   H     H_    0.441807 0.802689 0.685324 0.125849
H47   H     H_    0.330778 0.736262 0.688523 0.249256
H48   H     H_    0.375035 0.674069 0.785460 0.218467
H49   H     H_    0.262037 0.751760 0.798877 0.267751
H50   H     H_    0.727523 0.755229 0.564163 0.089866
H51   H     H_    0.827089 0.715962 0.480767 0.195624
H52   H     H_    0.729545 0.709224 0.403222 0.276401
H53   H     H_    0.714776 0.637715 0.519788 0.201751
H54   H     H_    0.630407 0.744497 0.491705 0.234331
H55   H     H_    0.714668 0.383360 0.932443 0.124348
H56   H     H_    0.288304 0.290621 0.930547 0.182623
H57   H     H_    0.743497 0.293197 0.884862 0.127720
H58   H     H_    0.852676 0.195500 0.972355 0.237612
H59   H     H_    0.874327 0.305325 0.918584 0.206120
H60   H     H_    0.815195 0.273450 0.036798 0.272274
H61   H     H_    0.338028 0.702761 0.939570 0.143582
H62   H     H_    0.347973 0.799587 0.954062 0.134081
H63   H     H_    0.212345 0.842043 0.904821 0.232229
H64   H     H_    0.170421 0.754705 0.002386 0.262348
H65   H     H_    0.180616 0.850162 0.017717 0.243921
H66   H     H_    0.831325 0.737171 0.237123 0.122974
H67   H     H_    0.411524 0.097566 0.749362 0.157626
H68   H     H_    0.952738 0.705298 0.179063 0.122785
H69   H     H_    0.871478 0.873321 0.143138 0.172035
H70   H     H_    0.861039 0.865213 0.257818 0.329948
H71   H     H_    0.971367 0.837444 0.178461 0.243753
H72   H     H_    0.929949 0.352946 0.657138 0.132356
H73   H     H_    0.907875 0.359459 0.768211 0.123875
H74   H     H_    0.965613 0.188446 0.821666 0.250557
H75   H     H_    0.872072 0.226771 0.774697 0.201651
H76   H     H_    0.986499 0.186109 0.708235 0.265505
H77   H     H_    0.596576 0.907891 0.233254 0.187424
H78   H     H_    0.099818 0.767031 0.405299 0.192791
O1    O     O_R   0.982940 0.138950 0.510160 -0.629560
O2    O     O_R   0.982940 0.510160 0.138950 -0.645412
O3    O     O_R   0.861050 0.017060 0.489840 -0.628914
O4    O     O_R   0.138950 0.982940 0.510160 -0.643968
O5    O     O_R   0.867700 0.025880 0.612340 -0.625147
O6    O     O_R   0.132300 0.974120 0.387660 -0.636150
O7    O     O_R   0.025880 0.612340 0.867700 -0.617764
O8    O     O_R   0.974120 0.387660 0.132300 -0.629280
O9    O     O_R   0.612340 0.867700 0.025880 -0.630843
O10   O     O_R   0.387660 0.132300 0.974120 -0.624549
O11   O     O_R   0.387660 0.974120 0.132300 -0.629035
O12   O     O_R   0.017060 0.861050 0.489840 -0.647436
O13   O     O_R   0.612340 0.025880 0.867700 -0.621691
O14   O     O_R   0.132300 0.387660 0.974120 -0.629339
O15   O     O_R   0.867700 0.612340 0.025880 -0.635612
O16   O     O_R   0.974120 0.132300 0.387660 -0.623868
O17   O     O_R   0.025880 0.867700 0.612340 -0.632927
O18   O     O_3   0.311926 0.063662 0.681832 -0.591512
O19   O     O_3   0.687780 0.951060 0.293783 -0.592934
O20   O     O_3   0.060185 0.711778 0.302375 -0.589807
O21   O     O_3   0.158477 0.255819 0.568887 -0.565166
O22   O     O_3   0.655974 0.300387 0.167980 -0.584291
O23   O     O_R   0.138950 0.510160 0.982940 -0.635018
O24   O     O_3   0.241170 0.568528 0.170379 -0.597130
O25   O     O_3   0.311857 0.901563 0.698369 -0.609681
O26   O     O_3   0.750037 0.843659 0.427124 -0.569564
O27   O     O_3   0.670635 0.268189 0.021353 -0.589181
O28   O     O_3   0.305940 0.700577 0.073189 -0.603572
O29   O     O_3   0.915148 0.691846 0.319000 -0.576774
O30   O     O_3   0.044734 0.315516 0.701362 -0.576343
O31   O     O_R   0.861050 0.489840 0.017060 -0.626443
O32   O     O_R   0.510160 0.982940 0.138950 -0.642487
O33   O     O_R   0.489840 0.017060 0.861050 -0.637394
O34   O     O_R   0.489840 0.861050 0.017060 -0.642441
O35   O     O_R   0.510160 0.138950 0.982940 -0.637982
O36   O     O_R   0.017060 0.489840 0.861050 -0.638565
Zn1   Zn    Zn3+2 0.004880 0.004880 0.583590 0.945767
Zn2   Zn    Zn3+2 0.995120 0.995120 0.416410 0.938118
Zn3   Zn    Zn3+2 0.004880 0.583590 0.004880 0.927317
Zn4   Zn    Zn3+2 0.995120 0.416410 0.995120 0.937935
Zn5   Zn    Zn3+2 0.583590 0.004880 0.004880 0.930879
Zn6   Zn    Zn3+2 0.416410 0.995120 0.995120 0.919395

loop_
_geom_bond_atom_site_label_1
_geom_bond_atom_site_label_2
_ccdc_geom_bond_type
C66   C99   A    
C48   C55   A    
C30   O8    A    
C46   C99   A    
C24   O11   A    
C3    H38   S    
C35   H78   S    
C4    O24   S    
C22   O23   A    
C109  H21   S    
C50   C64   A    
C114  O22   S    
C4    H40   S    
O1    Zn1   S    
C30   C90   S    
C72   C85   A    
C53   C59   A    
C2    C57   A    
C111  H25   S    
C57   C62   A    
C18   H75   S    
C69   C102  A    
C108  C109  S    
C26   C89   S    
C66   C79   A    
C7    H47   S    
C106  H11   S    
C42   C75   A    
C60   C63   A    
O23   Zn3   S    
C68   C81   A    
C97   H45   S    
C112  H29   S    
C44   C77   A    
C34   H77   S    
C114  H33   S    
C16   H71   S    
C81   C95   A    
O35   Zn5   S    
C19   C45   A    
C106  C107  S    
C83   C96   A    
C113  H31   S    
C71   O24   S    
C106  O18   S    
C15   H68   S    
C49   O21   S    
C43   C76   A    
C40   C73   A    
C22   O14   A    
O36   Zn4   S    
C22   C85   S    
C112  H28   S    
O7    Zn3   S    
C110  C111  S    
C108  H17   S    
C32   O6    A    
C17   O30   S    
C86   C94   A    
C41   C74   A    
C110  H22   S    
C24   C80   S    
C41   C93   A    
C8    C9    S    
C29   O7    A    
C111  H26   S    
C39   C72   A    
C45   C78   A    
C51   C57   A    
C74   C87   A    
C70   C84   A    
C8    H51   S    
C2    C43   A    
C14   H65   S    
C26   O34   A    
C107  H15   S    
C76   C89   A    
C12   H62   S    
C13   C56   A    
C15   C16   S    
C76   C103  A    
C24   O32   A    
C4    H39   S    
C109  H20   S    
C11   H58   S    
C45   H10   S    
C49   C64   A    
C37   C70   A    
C78   C101  A    
C2    O28   S    
C16   H70   S    
C21   O12   A    
C77   C102  A    
C19   O30   S    
C16   H69   S    
C32   O4    A    
C107  H16   S    
C25   O13   A    
C28   O35   A    
C112  C113  S    
C6    H44   S    
C33   C66   A    
C23   O31   A    
C94   H12   S    
C27   C34   A    
C75   C105  A    
C96   H34   S    
C7    H48   S    
C77   C90   A    
C11   H59   S    
C47   C59   A    
C95   H23   S    
C23   C84   S    
C46   C61   A    
C1    C33   A    
C37   C60   A    
C40   C82   A    
C9    H53   S    
C26   O9    A    
C31   C87   S    
C68   C101  A    
O11   Zn6   S    
C8    H50   S    
C73   C100  A    
C87   C92   A    
C70   C103  A    
C10   H57   S    
C5    H41   S    
C109  H19   S    
C106  H13   S    
C39   H4    S    
C84   C97   A    
C47   C100  A    
O3    Zn2   S    
C42   C104  A    
C93   O26   S    
C10   H55   S    
C113  H32   S    
C15   O29   S    
O32   Zn5   S    
C104  O27   S    
C28   C88   S    
C69   C83   A    
O10   Zn6   S    
C6    O25   S    
O9    Zn5   S    
C38   C65   A    
C110  H24   S    
C17   H72   S    
C32   C86   S    
C55   C64   A    
C35   C38   A    
C27   O19   S    
C17   C18   S    
C85   C98   A    
C51   C63   A    
C60   O22   S    
O17   Zn1   S    
C112  O21   S    
O4    Zn1   S    
C43   H8    S    
C79   C92   A    
C14   H64   S    
C52   C58   A    
C67   C100  A    
C12   H61   S    
C21   C81   S    
C52   C105  A    
C50   C102  A    
C5    H43   S    
C47   C54   A    
C33   H67   S    
C48   C65   A    
C58   C104  A    
O33   Zn6   S    
C80   C94   A    
C36   H2    S    
C20   O1    A    
C54   C82   A    
C108  O19   S    
C10   O27   S    
O31   Zn4   S    
C3    H36   S    
C19   C55   A    
C58   C63   A    
C9    H52   S    
C11   H60   S    
C39   C71   A    
C44   H9    S    
C23   O15   A    
C1    O18   S    
C25   C79   S    
O2    Zn3   S    
C9    H54   S    
C110  O20   S    
C67   C80   A    
C13   O29   S    
C4    C5    S    
C3    C114  S    
C1    C61   A    
C34   C67   A    
C107  H14   S    
C6    H46   S    
O6    Zn2   S    
C90   C96   A    
C6    C7    S    
C54   C61   A    
O5    Zn1   S    
C78   C91   A    
C5    H42   S    
C74   C99   A    
C3    H37   S    
O34   Zn6   S    
C113  H30   S    
C28   O10   A    
C31   O5    A    
O13   Zn5   S    
C12   C14   S    
C18   H76   S    
O14   Zn4   S    
C27   C59   A    
C31   O3    A    
O15   Zn3   S    
C30   O2    A    
C82   O25   S    
C7    H49   S    
C35   C68   A    
C17   H73   S    
C48   C101  A    
C46   C53   A    
C18   H74   S    
C21   O17   A    
C62   C71   A    
C13   C44   A    
C41   H6    S    
O12   Zn2   S    
C36   C69   A    
C92   H1    S    
C50   C56   A    
C73   C86   A    
C108  H18   S    
C14   H63   S    
C8    O26   S    
C10   C11   S    
C111  H27   S    
C91   C95   A    
C29   O36   A    
C98   H56   S    
C75   C88   A    
C40   H5    S    
C37   H3    S    
C72   C105  A    
C20   C83   S    
C89   C97   A    
C20   O16   A    
C52   C62   A    
O8    Zn4   S    
C114  H35   S    
C38   O20   S    
C15   H66   S    
C51   C103  A    
C12   O28   S    
C53   C93   A    
C88   C98   A    
C36   C49   A    
C56   C65   A    
C42   H7    S    
O16   Zn2   S    
C25   O33   A    
C29   C91   S    
