data_mof_unit_54992.cif
_audit_creation_date              2012-12-10T19:07:04-0500
_audit_creation_method            fapswitch 2.2
_symmetry_space_group_name_H-M    P1
_symmetry_Int_Tables_number       1
_space_group_crystal_system       triclinic
_cell_length_a                    27.780705
_cell_length_b                    10.816533
_cell_length_c                    9.53155
_cell_angle_alpha                 90.029634
_cell_angle_beta                  89.799553
_cell_angle_gamma                 90.115773
_cell_volume                      2864.12040894

loop_
_atom_site_label
_atom_site_type_symbol
_atom_type_description
_atom_site_fract_x
_atom_site_fract_y
_atom_site_fract_z
_atom_type_partial_charge
C1    C     C_R   0.499171 0.262291 0.499939 0.842223
C2    C     C_R   0.277954 0.499321 0.378807 -0.098637
C3    C     C_R   0.253327 0.506344 0.507135 0.351337
C4    C     C_R   0.101540 0.515434 0.525907 -0.049768
C5    C     C_R   0.126897 0.414533 0.581777 -0.017905
C6    C     C_R   0.101779 0.321187 0.652387 -0.232509
C7    C     C_R   0.127262 0.613506 0.463549 -0.015546
C8    C     C_R   0.354382 0.501885 0.501956 -0.037048
C9    C     C_R   0.645375 0.494646 0.499346 -0.058152
C10   C     C_R   0.974551 0.409420 0.568053 -0.027394
C11   C     C_R   0.974433 0.625903 0.489303 0.065434
C12   C     C_R   0.407411 0.500292 0.500308 0.791254
C13   C     C_R   0.949189 0.516535 0.526043 0.063458
C14   C     C_R   0.948991 0.296996 0.577244 -0.202884
C15   C     C_R   0.899093 0.293152 0.567000 0.667954
C16   C     C_R   0.872992 0.401967 0.541734 -0.161823
C17   C     C_R   0.898191 0.513469 0.518307 -0.121049
C18   C     C_R   0.872447 0.621719 0.485877 0.007640
C19   C     C_R   0.821999 0.617491 0.480411 0.545284
C20   C     C_R   0.822379 0.402395 0.536142 0.592154
C21   C     C_R   0.722742 0.434740 0.400701 -0.178989
C22   C     C_R   0.672433 0.425208 0.400122 -0.040164
C23   C     C_R   0.499285 0.737728 0.499960 0.798681
C24   C     C_R   0.669559 0.567319 0.599001 -0.259783
C25   C     C_R   0.719603 0.572885 0.600393 -0.080314
C26   C     C_R   0.746394 0.506885 0.501227 0.333045
C27   C     C_R   0.025083 0.416046 0.589707 0.063760
C28   C     C_R   0.050550 0.518088 0.531936 0.051952
C29   C     C_R   0.025437 0.622793 0.480121 0.050295
C30   C     C_R   0.051662 0.324612 0.664592 -0.031700
C31   C     C_R   0.102200 0.714824 0.409823 -0.138230
C32   C     C_R   0.947596 0.733691 0.460179 -0.194684
C33   C     C_R   0.897534 0.731586 0.459452 -0.106990
C34   C     C_R   0.592449 0.496863 0.499701 0.859260
C35   C     C_R   0.052268 0.719756 0.418170 -0.202948
C36   C     C_R   0.494689 0.063687 0.625811 0.103612
C37   C     C_R   0.494552 0.129200 0.499752 -0.087381
C38   C     C_R   0.487797 0.064323 0.373457 -0.184930
C39   C     C_R   0.487883 0.935469 0.373473 -0.207456
C40   C     C_R   0.494727 0.870815 0.499785 -0.092080
C41   C     C_R   0.494830 0.936477 0.625814 0.133168
C42   C     C_3   0.529062 0.930456 0.746130 -0.469389
C43   C     C_3   0.528789 0.070819 0.746389 -0.434424
C44   C     C_R   0.523923 0.590182 0.073584 0.247134
C45   C     C_R   0.177335 0.412385 0.572109 0.546779
C46   C     C_R   0.472757 0.418189 0.074701 -0.065288
C47   C     C_R   0.472757 0.418181 0.925705 -0.079949
C48   C     C_R   0.524008 0.590027 0.926080 0.256569
C49   C     C_3   0.576695 0.616504 0.920361 -0.509920
C50   C     C_3   0.576494 0.617456 0.079443 -0.479796
C51   C     C_R   0.177724 0.608097 0.456960 0.535577
C52   C     C_R   0.279298 0.511298 0.632653 -0.102771
C53   C     C_R   0.329417 0.508868 0.630263 -0.215622
C54   C     C_R   0.328196 0.497196 0.376093 -0.218704
Cu1   Cu    Cu3+1 0.500000 0.499980 0.640670 0.948685
Cu2   Cu    Cu3+1 0.500000 0.500020 0.359330 0.970697
H1    H     H_    0.346465 0.491682 0.275734 0.157488
H2    H     H_    0.260544 0.517325 0.732211 0.144454
H3    H     H_    0.121104 0.791013 0.360403 0.188808
H4    H     H_    0.964367 0.822033 0.440634 0.148610
H5    H     H_    0.649618 0.621418 0.675050 0.152368
H6    H     H_    0.878557 0.816581 0.436540 0.206513
H7    H     H_    0.737641 0.628355 0.678945 0.155799
H8    H     H_    0.035509 0.799109 0.370653 0.145437
H9    H     H_    0.484731 0.112436 0.274260 0.162748
H10   H     H_    0.484867 0.887219 0.274271 0.163456
H11   H     H_    0.512195 0.889526 0.841358 0.196239
H12   H     H_    0.258126 0.495104 0.281311 0.145501
H13   H     H_    0.564474 0.890450 0.716051 0.198159
H14   H     H_    0.511615 0.110921 0.841564 0.195497
H15   H     H_    0.564064 0.112352 0.716959 0.215506
H16   H     H_    0.451465 0.350429 0.130851 0.132009
H17   H     H_    0.451464 0.350420 0.869906 0.138807
H18   H     H_    0.597879 0.538585 0.876042 0.224921
H19   H     H_    0.584671 0.708451 0.873860 0.189975
H20   H     H_    0.597801 0.540612 0.125117 0.224636
H21   H     H_    0.583948 0.710199 0.124818 0.199157
H22   H     H_    0.121452 0.248696 0.705756 0.182749
H23   H     H_    0.743975 0.382675 0.325606 0.147034
H24   H     H_    0.967413 0.209731 0.588624 0.167510
H25   H     H_    0.348553 0.512909 0.728962 0.159766
N1    N     N_R   0.201663 0.508400 0.510657 -0.468968
N2    N     N_R   0.798069 0.509096 0.505947 -0.476481
N3    N     N_R   0.500300 0.500930 0.147930 -0.180077
N4    N     N_R   0.500310 0.500890 0.852020 -0.183570
O1    O     O_R   0.500000 0.319640 0.618810 -0.588806
O2    O     O_2   0.797485 0.297647 0.562434 -0.443449
O3    O     O_2   0.202704 0.702350 0.398972 -0.536553
O4    O     O_2   0.797039 0.720583 0.448520 -0.518612
O5    O     O_R   0.500010 0.319680 0.381230 -0.563065
O6    O     O_R   0.430260 0.500000 0.618780 -0.587553
O7    O     O_R   0.430270 0.500040 0.381190 -0.590287
O8    O     O_R   0.499990 0.680320 0.618770 -0.580249
O9    O     O_R   0.500000 0.680360 0.381190 -0.589225
O10   O     O_R   0.569730 0.499960 0.618810 -0.590785
O11   O     O_R   0.569740 0.500000 0.381220 -0.551941
O12   O     O_2   0.201913 0.314928 0.623386 -0.536745
C55   C     C_2   0.650719 0.336891 0.299197 0.361939
H26   H     H_    0.670137 0.312929 0.203987 0.076400
O13   O     O_2   0.612593 0.284888 0.323913 -0.532276
F1    F     F_    0.876851 0.181841 0.580386 -0.606385
C56   C     C_2   0.030393 0.242829 0.773445 0.353496
H27   H     H_    0.047316 0.155057 0.797731 0.074503
O14   O     O_2   0.995642 0.275714 0.842741 -0.506179

loop_
_geom_bond_atom_site_label_1
_geom_bond_atom_site_label_2
_ccdc_geom_bond_type
C10   C27   A    
C21   C26   A    
C40   C41   A    
C1    O5    A    
C22   C55   S    
C41   C42   S    
C12   O6    A    
C45   N1    A    
Cu1   Cu2   S    
C8    C53   A    
Cu2   O9    S    
C24   H5    S    
C26   N2    S    
C47   N4    A    
C28   C29   A    
C34   O11   A    
C2    H12   S    
C5    C6    A    
C9    C22   A    
C6    H22   S    
C42   H11   S    
C23   C40   S    
C20   O2    S    
C53   H25   S    
C18   C19   A    
C25   H7    S    
C31   H3    S    
Cu1   O6    S    
C33   H6    S    
C49   H19   S    
C35   H8    S    
C14   H24   S    
C46   H16   S    
C8    C12   S    
Cu2   O5    S    
C21   C22   A    
C27   C30   A    
C30   C56   S    
C36   C41   A    
C34   O10   A    
C4    C7    A    
C19   N2    A    
C4    C28   A    
Cu2   N3    S    
C7    C31   A    
C48   N4    A    
C24   C25   A    
C47   H17   S    
Cu1   O10   S    
C2    C54   A    
C8    C54   A    
C39   C40   A    
C16   C17   A    
C25   C26   A    
C5    C45   A    
C42   H13   S    
C23   O8    A    
Cu1   N4    S    
C37   C38   A    
C19   O4    S    
C50   H20   S    
C38   H9    S    
C16   C20   A    
C21   H23   S    
C3    N1    S    
C17   C18   A    
C15   F1    S    
C56   O14   D    
C51   N1    A    
C52   H2    S    
C46   N3    A    
C48   C49   S    
C6    C30   A    
C11   C32   A    
C55   H26   S    
C43   H14   S    
C55   O13   D    
C10   C14   A    
C9    C34   S    
C39   H10   S    
C31   C35   A    
C42   C43   S    
C32   H4    S    
C50   H21   S    
C52   C53   A    
C44   C50   S    
C1    O1    A    
Cu2   O11   S    
C46   C47   A    
C36   C37   A    
C43   H15   S    
C14   C15   A    
C12   O7    A    
C4    C5    A    
C44   N3    A    
C10   C13   A    
C51   O3    S    
C3    C52   A    
C9    C24   A    
C1    C37   S    
C29   C35   A    
C23   O9    A    
C13   C17   A    
C32   C33   A    
Cu1   O1    S    
C2    C3    A    
C7    C51   A    
C45   O12   S    
C11   C13   A    
C38   C39   A    
C56   H27   S    
C18   C33   A    
C44   C48   A    
Cu2   O7    S    
C11   C29   A    
C49   C50   S    
C20   N2    A    
C27   C28   A    
C49   H18   S    
C36   C43   S    
Cu1   O8    S    
C15   C16   A    
C54   H1    S    
