data_mof_unit_31612.cif
_audit_creation_date              2013-03-05T16:09:16-0500
_audit_creation_method            fapswitch 2.2
_symmetry_space_group_name_H-M    P1
_symmetry_Int_Tables_number       1
_space_group_crystal_system       triclinic
_cell_length_a                    8.694077
_cell_length_b                    10.650002
_cell_length_c                    9.880428
_cell_angle_alpha                 90.807375
_cell_angle_beta                  99.09221
_cell_angle_gamma                 90.643644
_cell_volume                      903.179554549

loop_
_atom_site_label
_atom_site_type_symbol
_atom_site_description
_atom_site_fract_x
_atom_site_fract_y
_atom_site_fract_z
_atom_type_partial_charge
O1    O     O_R   0.499990 0.316750 0.614620 -0.624685
O2    O     O_R   0.500010 0.683250 0.385380 -0.624697
O3    O     O_R   0.499990 0.316780 0.385290 -0.569948
O4    O     O_R   0.500010 0.683220 0.614710 -0.569943
C1    C     C_R   0.498962 0.260532 0.499105 0.953045
C2    C     C_R   0.501039 0.739467 0.500896 0.952921
O5    O     O_R   0.271750 0.499990 0.587840 -0.607292
O6    O     O_R   0.728250 0.500010 0.412160 -0.607307
O7    O     O_R   0.271750 0.500010 0.358510 -0.549195
O8    O     O_R   0.728250 0.499990 0.641490 -0.549273
C3    C     C_R   0.201856 0.502645 0.464331 0.901308
C4    C     C_R   0.798145 0.497364 0.535669 0.901221
Zn1   Zn    Zn3+2 0.500000 0.499980 0.653120 1.104203
Zn2   Zn    Zn3+2 0.500000 0.500020 0.346880 1.104201
N1    N     N_R   0.499960 0.499970 0.857200 -0.165036
N2    N     N_R   0.500040 0.500030 0.142800 -0.164996
C5    C     C_2   0.037893 0.494138 0.444913 0.030429
C6    C     C_2   0.962107 0.505882 0.555085 0.030416
C7    C     C_R   0.626724 0.064992 0.457412 0.395749
C8    C     C_R   0.373262 0.935003 0.542575 0.395852
C9    C     C_R   0.625538 0.935336 0.457667 0.281016
C10   C     C_R   0.374448 0.064662 0.542327 0.280980
C11   C     C_R   0.500325 0.871842 0.501787 -0.388241
C12   C     C_R   0.499666 0.128157 0.498209 -0.388275
C13   C     C_R   0.563587 0.597985 0.083144 -0.094925
C14   C     C_R   0.436415 0.402017 0.916850 -0.094913
H1    H     H_    0.615832 0.675582 0.146745 0.211560
H2    H     H_    0.384169 0.324425 0.853240 0.211595
C15   C     C_R   0.564659 0.598425 0.939868 0.367781
C16   C     C_R   0.435343 0.401569 0.060125 0.367719
N3    N     N_R   0.962465 0.459346 0.308760 0.239570
O9    O     O_R   0.965908 0.536324 0.208151 -0.295972
O10   O     O_R   0.913294 0.344465 0.282096 -0.264674
N4    N     N_R   0.037536 0.540679 0.691237 0.239575
O11   O     O_R   0.034080 0.463710 0.791853 -0.295961
O12   O     O_R   0.086732 0.655555 0.717891 -0.264633
O13   O     O_3   0.756352 0.125863 0.422890 -0.601654
H3    H     H_    0.763419 0.212855 0.459783 0.342122
O14   O     O_3   0.243629 0.874125 0.577076 -0.601605
H4    H     H_    0.236568 0.787137 0.540174 0.342108
N5    N     N_R   0.755621 0.868576 0.419666 0.250730
O15   O     O_R   0.808957 0.896352 0.307747 -0.241445
O16   O     O_R   0.830406 0.788778 0.503369 -0.346743
N6    N     N_R   0.244358 0.131419 0.580325 0.250722
O17   O     O_R   0.190891 0.103532 0.692150 -0.241251
O18   O     O_R   0.169672 0.211320 0.496681 -0.346850
N7    N     N_R   0.635778 0.702808 0.883456 0.231346
O19   O     O_R   0.761825 0.686303 0.830450 -0.252680
O20   O     O_R   0.596965 0.816436 0.913008 -0.306292
N8    N     N_R   0.364237 0.297160 0.116515 0.231356
O21   O     O_R   0.238444 0.313698 0.169876 -0.252724
O22   O     O_R   0.402695 0.183537 0.086583 -0.306315

loop_
_geom_bond_atom_site_label_1
_geom_bond_atom_site_label_2
_geom_bond_distance
_ccdc_geom_bond_type
N8    O22   1.301462 A    
O7    Zn2   2.005792 S    
N3    O10   1.301015 A    
N1    C15   1.378552 A    
O13   H3    0.988492 S    
C13   H1    1.082072 S    
C6    N4    1.441782 S    
N5    O15   1.301367 A    
C14   H2    1.082073 S    
N7    O19   1.299698 A    
C8    C11   1.408898 A    
O6    C4    1.275242 A    
C1    C12   1.409794 S    
C5    C6    1.363602 D    
C16   N8    1.428255 S    
N7    O20   1.301498 A    
O5    C3    1.275244 A    
N5    O16   1.300473 A    
O7    C3    1.289801 A    
O2    C2    1.280076 A    
O3    Zn2   1.993308 S    
O8    C4    1.289802 A    
C15   N7    1.428200 S    
O1    C1    1.280079 A    
C2    C11   1.409788 S    
C10   C12   1.405059 A    
C7    C9    1.380804 A    
C5    N3    1.441779 S    
C8    C10   1.380832 A    
C14   C16   1.417200 A    
N4    O12   1.301013 A    
C9    C11   1.405029 A    
Zn1   N1    2.016455 S    
C13   C15   1.417210 A    
O2    Zn2   1.982859 S    
Zn2   N2    2.016454 S    
O1    Zn1   1.982858 S    
N2    C16   1.378631 A    
O14   H4    0.988487 S    
O5    Zn1   1.987320 S    
N6    O17   1.301355 A    
O4    C2    1.282788 A    
N4    O11   1.301152 A    
C9    N5    1.438847 S    
C4    C6    1.409700 S    
N2    C13   1.359508 A    
C8    O14   1.384923 S    
C3    C5    1.409695 S    
N1    C14   1.359459 A    
O6    Zn2   1.987319 S    
C7    O13   1.384927 S    
N8    O21   1.299629 A    
C7    C12   1.408916 A    
C10   N6    1.438870 S    
N3    O9    1.301153 A    
O4    Zn1   1.993309 S    
N6    O18   1.300526 A    
O3    C1    1.282790 A    
O8    Zn1   2.005792 S    
