data_mof_unit_11654.cif
_audit_creation_date              2012-12-11T15:39:19-0500
_audit_creation_method            fapswitch 2.2
_symmetry_space_group_name_H-M    P1
_symmetry_Int_Tables_number       1
_space_group_crystal_system       triclinic
_cell_length_a                    14.296995
_cell_length_b                    14.794398
_cell_length_c                    33.227273
_cell_angle_alpha                 97.908749
_cell_angle_beta                  90.25886
_cell_angle_gamma                 118.844168
_cell_volume                      6077.1951093

loop_
_atom_site_label
_atom_site_type_symbol
_atom_type_description
_atom_site_fract_x
_atom_site_fract_y
_atom_site_fract_z
_atom_type_partial_charge
C1    C     C_R   0.617043 0.910267 0.436988 0.538230
C2    C     C_R   0.755050 0.418956 0.186615 0.004524
C3    C     C_R   0.723171 0.895246 0.653245 -0.124436
C4    C     C_R   0.655083 0.791015 0.657808 0.021458
C5    C     C_R   0.636553 0.863022 0.585854 0.020712
C6    C     C_R   0.051683 0.781295 0.063970 0.547951
C7    C     C_R   0.743902 0.487024 0.066390 0.555247
C8    C     C_R   0.742956 0.789273 0.066462 0.552138
C9    C     C_R   0.021887 0.732012 0.947494 0.531416
C10   C     C_R   0.712052 0.437137 0.949300 0.532083
C11   C     C_R   0.740346 0.717429 0.945363 0.559385
C12   C     C_R   0.828807 0.416836 0.159563 -0.134164
C13   C     C_R   0.820709 0.432738 0.119577 -0.159236
C14   C     C_R   0.766057 0.320211 0.239502 -0.084851
C15   C     C_R   0.754990 0.299729 0.279895 0.165376
C16   C     C_R   0.745978 0.372017 0.310143 0.027228
C17   C     C_R   0.752486 0.463685 0.300167 -0.151361
C18   C     C_R   0.761664 0.481744 0.260115 -0.129036
C19   C     C_R   0.765203 0.408675 0.229477 -0.002601
C20   C     C_R   0.614522 0.327770 0.361568 -0.129346
C21   C     C_R   0.594204 0.205456 0.456408 0.553761
C22   C     C_R   0.573734 0.288446 0.397482 0.128573
C23   C     C_R   0.744579 0.297873 0.414638 -0.117450
C24   C     C_R   0.784348 0.335114 0.378440 0.155629
C25   C     C_R   0.716747 0.347153 0.351219 -0.001541
C26   C     C_R   0.638359 0.268792 0.423421 -0.005630
C27   C     C_R   0.242442 0.876635 0.393814 -0.009967
C28   C     C_R   0.214647 0.950232 0.383516 -0.087017
C29   C     C_R   0.188083 0.950201 0.342811 0.150002
C30   C     C_R   0.190262 0.875522 0.312002 0.037731
C31   C     C_R   0.210531 0.797854 0.322558 -0.147384
C32   C     C_R   0.295097 0.892445 0.434506 0.540013
C33   C     C_R   0.235976 0.797993 0.363122 -0.137312
C34   C     C_R   0.185893 0.808110 0.165540 -0.145503
C35   C     C_R   0.160766 0.785035 0.123537 -0.130911
C36   C     C_R   0.087660 0.903231 0.129021 -0.161065
C37   C     C_R   0.111259 0.926338 0.171485 0.032093
C38   C     C_R   0.157695 0.874870 0.189918 0.052515
C39   C     C_1   0.168619 0.879991 0.233397 0.038567
C40   C     C_1   0.177221 0.879259 0.269398 -0.007751
C41   C     C_R   0.107283 0.828900 0.105104 0.009093
C42   C     C_R   0.638053 0.878879 0.395455 0.021480
C43   C     C_R   0.614242 0.905161 0.551535 0.536729
C44   C     C_R   0.553562 0.799682 0.368329 -0.130506
C45   C     C_R   0.566083 0.787573 0.326647 -0.116252
C46   C     C_R   0.663150 0.853822 0.311841 0.038833
C47   C     C_R   0.749937 0.927756 0.338843 -0.124967
C48   C     C_R   0.737679 0.940127 0.380489 -0.130237
C49   C     C_R   0.777773 0.921719 0.174719 -0.119075
C50   C     C_R   0.792697 0.908422 0.133253 -0.132393
C51   C     C_R   0.619248 0.751094 0.121851 -0.122870
C52   C     C_R   0.604595 0.764588 0.163207 -0.117288
C53   C     C_R   0.685421 0.847673 0.189822 0.038751
C54   C     C_R   0.591702 0.203000 0.570524 0.552855
C55   C     C_1   0.677573 0.850887 0.232832 -0.035939
C56   C     C_1   0.671193 0.851577 0.268868 -0.038513
C57   C     C_R   0.715436 0.820371 0.106773 0.022752
C58   C     C_R   0.629326 0.262440 0.612956 0.009962
C59   C     C_R   0.568532 0.304339 0.634106 0.139946
C60   C     C_R   0.579062 0.325237 0.677394 0.046874
C61   C     C_R   0.647260 0.300940 0.698754 -0.044652
C62   C     C_R   0.716334 0.273465 0.677942 -0.163139
C63   C     C_R   0.712761 0.260004 0.635484 -0.022795
C64   C     C_R   0.759442 0.351267 0.843516 -0.147053
C65   C     C_R   0.287618 0.886480 0.548171 0.523566
C66   C     C_R   0.772711 0.377597 0.885871 -0.137730
C67   C     C_R   0.587575 0.338594 0.886957 -0.117581
C68   C     C_R   0.574253 0.313511 0.844327 0.147090
C69   C     C_R   0.661953 0.323343 0.822562 0.058993
C70   C     C_1   0.655775 0.313426 0.778893 0.003139
C71   C     C_1   0.651817 0.307894 0.742426 -0.042670
C72   C     C_R   0.688423 0.376650 0.907807 -0.009485
C73   C     C_R   0.070744 0.754396 0.908929 -0.012567
C74   C     C_R   0.101191 0.851077 0.896761 -0.149579
C75   C     C_R   0.125109 0.864719 0.856902 -0.138223
C76   C     C_R   0.737690 0.449319 0.105824 0.040445
C77   C     C_R   0.119130 0.782107 0.828731 -0.012112
C78   C     C_R   0.097503 0.687006 0.841414 0.018041
C79   C     C_R   0.073381 0.674272 0.881751 -0.094796
C80   C     C_R   0.220933 0.873941 0.773682 -0.118267
C81   C     C_R   0.227441 0.888222 0.733160 -0.106045
C82   C     C_R   0.139758 0.824126 0.704427 0.030720
C83   C     C_R   0.045054 0.745923 0.716802 -0.113070
C84   C     C_R   0.038539 0.731837 0.757478 -0.121684
C85   C     C_R   0.127050 0.794992 0.785836 0.005516
C86   C     C_R   0.202497 0.935945 0.650801 -0.131496
C87   C     C_R   0.658570 0.443687 0.132577 0.137912
C88   C     C_R   0.237563 0.949867 0.612234 -0.138899
C89   C     C_R   0.157636 0.761266 0.591965 0.008325
C90   C     C_R   0.124231 0.748547 0.631453 -0.078701
C91   C     C_R   0.151528 0.835881 0.661349 0.000323
C92   C     C_R   0.222277 0.864036 0.583390 -0.015993
C93   C     C_R   0.712849 0.704830 0.901530 -0.007799
C94   C     C_R   0.606450 0.658130 0.884857 -0.088517
C95   C     C_R   0.583907 0.654555 0.843208 0.140524
C96   C     C_R   0.669849 0.693733 0.817922 0.022007
C97   C     C_R   0.775208 0.734488 0.834464 -0.144635
C98   C     C_R   0.669311 0.430224 0.172795 -0.105901
C99   C     C_R   0.796474 0.741210 0.875929 -0.142321
C100  C     C_R   0.626995 0.784424 0.769835 -0.107344
C101  C     C_R   0.626268 0.810035 0.731126 -0.113283
C102  C     C_R   0.652281 0.759169 0.697955 0.025132
C103  C     C_R   0.676939 0.680578 0.703721 -0.070071
C104  C     C_R   0.679444 0.656082 0.742790 -0.093990
C105  C     C_R   0.654583 0.708206 0.775973 0.016650
C106  C     C_R   0.582026 0.721220 0.625376 -0.108903
C107  C     C_R   0.572148 0.757201 0.589698 -0.122718
C108  C     C_R   0.714808 0.930772 0.617367 -0.125730
Cr1   Cr    Cr6+3 0.424820 0.846020 0.489780 1.018292
Cr2   Cr    Cr6+3 0.657880 0.078580 0.505700 1.068779
Cr3   Cr    Cr6+3 0.417280 0.075360 0.504550 1.007133
Cr4   Cr    Cr6+3 0.903360 0.812540 0.006510 1.005702
Cr5   Cr    Cr6+3 0.914630 0.587050 0.006280 1.006741
Cr6   Cr    Cr6+3 0.673560 0.582680 0.008540 1.017458
H1    H     H_    0.894803 0.406866 0.169824 0.112188
H2    H     H_    0.795972 0.288479 0.435703 0.146648
H3    H     H_    0.176956 0.727621 0.105872 0.129641
H4    H     H_    0.222061 0.768878 0.179345 0.107034
H5    H     H_    0.211097 0.739419 0.299133 0.110037
H6    H     H_    0.257190 0.740404 0.370030 0.134035
H7    H     H_    0.219139 0.011509 0.406784 0.137366
H8    H     H_    0.046388 0.937623 0.115038 0.111837
H9    H     H_    0.881923 0.435850 0.099833 0.129050
H10   H     H_    0.867763 0.962698 0.122578 0.114451
H11   H     H_    0.840512 0.986516 0.195264 0.112131
H12   H     H_    0.825452 0.979106 0.327552 0.098812
H13   H     H_    0.804271 0.001766 0.400594 0.123422
H14   H     H_    0.475783 0.751746 0.378868 0.124687
H15   H     H_    0.532713 0.707177 0.174716 0.102019
H16   H     H_    0.558228 0.682655 0.102194 0.128276
H17   H     H_    0.498612 0.729939 0.305824 0.105156
H18   H     H_    0.851429 0.406510 0.900987 0.147908
H19   H     H_    0.827234 0.358545 0.826942 0.155319
H20   H     H_    0.775011 0.264100 0.695127 0.116508
H21   H     H_    0.521407 0.336892 0.903250 0.127433
H22   H     H_    0.100519 0.914151 0.917392 0.127715
H23   H     H_    0.051281 0.599946 0.891389 0.171239
H24   H     H_    0.081610 0.670896 0.639536 0.161744
H25   H     H_    0.301941 0.947838 0.724064 0.112181
H26   H     H_    0.289256 0.923589 0.795500 0.111406
H27   H     H_    0.142519 0.938082 0.847380 0.119673
H28   H     H_    0.976525 0.696234 0.695096 0.110583
H29   H     H_    0.964729 0.671989 0.766935 0.111510
H30   H     H_    0.221523 0.004085 0.673276 0.111675
H31   H     H_    0.284275 0.029043 0.606189 0.130005
H32   H     H_    0.541310 0.626810 0.904325 0.131518
H33   H     H_    0.767564 0.264416 0.215146 0.107529
H34   H     H_    0.878763 0.776288 0.888229 0.135349
H35   H     H_    0.780095 0.949965 0.678098 0.112024
H36   H     H_    0.606645 0.870559 0.727060 0.112535
H37   H     H_    0.610063 0.826891 0.795322 0.115089
H38   H     H_    0.697223 0.640751 0.678331 0.133567
H39   H     H_    0.702423 0.598091 0.747323 0.111863
H40   H     H_    0.528692 0.640587 0.628575 0.144304
H41   H     H_    0.511475 0.703230 0.565768 0.129497
H42   H     H_    0.841698 0.765993 0.815530 0.123563
H43   H     H_    0.610154 0.428465 0.193444 0.106027
H44   H     H_    0.765416 0.012559 0.615271 0.123277
H45   H     H_    0.745455 0.518993 0.323228 0.119136
H46   H     H_    0.761647 0.550790 0.252679 0.122647
H47   H     H_    0.565797 0.340631 0.340515 0.118344
O1    O     O_R   0.318160 0.824460 0.443680 -0.519673
O2    O     O_R   0.645130 0.163230 0.552140 -0.446758
O3    O     O_R   0.498360 0.178430 0.555780 -0.530686
O4    O     O_R   0.328690 0.978040 0.538950 -0.504034
O5    O     O_3   0.499990 0.999990 0.500010 -0.242812
O6    O     O_R   0.828710 0.851830 0.052170 -0.516734
O7    O     O_R   0.005980 0.823990 0.047210 -0.501263
O8    O     O_R   0.031900 0.688850 0.050170 -0.512344
O9    O     O_R   0.830940 0.518420 0.048680 -0.507480
O10   O     O_R   0.668160 0.499860 0.053480 -0.475987
O11   O     O_R   0.689170 0.693840 0.050110 -0.490412
O12   O     O_R   0.525040 0.857250 0.449830 -0.504369
O13   O     O_R   0.803860 0.812940 0.962540 -0.503824
O14   O     O_R   0.982950 0.787950 0.964120 -0.520609
O15   O     O_R   0.007050 0.649970 0.960540 -0.518609
O16   O     O_R   0.807910 0.482370 0.965590 -0.502529
O17   O     O_R   0.643310 0.460980 0.963840 -0.527703
O18   O     O_R   0.666140 0.657800 0.967020 -0.504363
O19   O     O_3   0.830520 0.660760 0.007110 -0.258507
O20   O     O_R   0.684760 0.998800 0.456360 -0.516537
O21   O     O_R   0.647540 0.166310 0.470260 -0.501955
O22   O     O_R   0.500960 0.181750 0.467450 -0.494323
O23   O     O_R   0.331100 0.981120 0.457080 -0.497251
O24   O     O_R   0.315560 0.821140 0.532010 -0.517827
O25   O     O_R   0.522630 0.854180 0.531710 -0.497302
O26   O     O_R   0.682160 0.995480 0.544690 -0.507117
N1    N     N_2   0.570588 0.456036 0.120105 -0.488681
H48   H     H_    0.549214 0.496462 0.142600 0.237027
C109  C     C_3   0.479057 0.359836 0.100866 -0.288765
H49   H     H_    0.416803 0.376913 0.089722 0.135502
H50   H     H_    0.444663 0.304652 0.123099 0.128826
H51   H     H_    0.502436 0.322655 0.074392 0.165164
N2    N     N_2   0.468845 0.267490 0.407734 -0.492990
H52   H     H_    0.467678 0.310434 0.434758 0.260474
C110  C     C_3   0.389287 0.249642 0.376055 -0.297064
H53   H     H_    0.309333 0.217001 0.388338 0.164565
H54   H     H_    0.386157 0.192385 0.349915 0.175925
H55   H     H_    0.407454 0.324396 0.365819 0.126099
C111  C     C_2   0.080931 0.000200 0.194802 0.212514
H56   H     H_    0.041680 0.033553 0.178779 0.085279
O27   O     O_2   0.099438 0.025581 0.231683 -0.539982
N3    N     N_2   0.165943 0.029410 0.333443 -0.535439
H57   H     H_    0.184761 0.050255 0.305044 0.298831
C112  C     C_3   0.061692 0.014607 0.343499 -0.296807
H58   H     H_    0.053453 0.082185 0.336983 0.145516
H59   H     H_    0.051903 0.009448 0.376396 0.139236
H60   H     H_    0.997649 0.942162 0.324869 0.166572
N4    N     N_2   0.892218 0.362634 0.370177 -0.500697
H61   H     H_    0.921032 0.402226 0.345928 0.265107
C113  C     C_3   0.924494 0.284479 0.372933 -0.295598
H62   H     H_    0.005923 0.311577 0.362287 0.135403
H63   H     H_    0.868130 0.209277 0.353621 0.166450
H64   H     H_    0.928096 0.272087 0.404936 0.146586
C114  C     C_2   0.799462 0.245648 0.616705 0.262206
H65   H     H_    0.834523 0.206567 0.631369 0.079835
O28   O     O_2   0.838083 0.284078 0.586550 -0.460257
N5    N     N_2   0.499113 0.327933 0.612061 -0.459465
H66   H     H_    0.522449 0.352877 0.584494 0.255752
C115  C     C_3   0.384651 0.262738 0.613844 -0.234638
H67   H     H_    0.347980 0.211466 0.584106 0.137507
H68   H     H_    0.347443 0.313351 0.620310 0.178403
H69   H     H_    0.366371 0.213083 0.638079 0.132141
N6    N     N_2   0.474815 0.285446 0.823384 -0.532118
H70   H     H_    0.409826 0.231071 0.836083 0.244499
C116  C     C_3   0.462213 0.374152 0.817493 -0.297052
H71   H     H_    0.455692 0.414466 0.847272 0.163076
H72   H     H_    0.388142 0.347018 0.797543 0.154287
H73   H     H_    0.531543 0.430424 0.802764 0.163425
C117  C     C_2   0.519989 0.372273 0.700651 0.216318
H74   H     H_    0.501024 0.358173 0.731449 0.107864
O29   O     O_2   0.494822 0.429861 0.686272 -0.506085
N7    N     N_2   0.746110 0.205277 0.290323 -0.522035
H75   H     H_    0.685176 0.166365 0.308322 0.260077
C118  C     C_3   0.771678 0.138875 0.261723 -0.319013
H76   H     H_    0.775883 0.079350 0.277452 0.149166
H77   H     H_    0.851155 0.185547 0.250205 0.149678
H78   H     H_    0.708544 0.098061 0.236024 0.148040
C119  C     C_2   0.098924 0.600941 0.812963 0.193223
H79   H     H_    0.124944 0.612399 0.782579 0.125185
O30   O     O_2   0.071804 0.516093 0.823224 -0.536120
C120  C     C_2   0.124203 0.667382 0.560491 0.240547
H80   H     H_    0.132265 0.674679 0.528505 0.127810
O31   O     O_2   0.085002 0.580080 0.569824 -0.487770
N8    N     N_2   0.475306 0.608551 0.826933 -0.537173
H81   H     H_    0.462439 0.586695 0.795715 0.267995
C121  C     C_3   0.416629 0.660439 0.843162 -0.297115
H82   H     H_    0.333166 0.617280 0.828868 0.171746
H83   H     H_    0.454901 0.741603 0.836391 0.137559
H84   H     H_    0.413065 0.661984 0.876589 0.154454

loop_
_geom_bond_atom_site_label_1
_geom_bond_atom_site_label_2
_ccdc_geom_bond_type
C94   H32   S    
C65   C92   S    
Cr5   O16   S    
C99   H34   S    
C34   H4    S    
C78   C119  S    
C29   N3    S    
C7    O10   A    
C73   C74   A    
Cr4   O13   S    
C95   C96   A    
C36   H8    S    
C21   C26   S    
C2    C12   A    
N6    H70   S    
C80   C85   A    
C115  H68   S    
C81   C82   A    
N5    H66   S    
C86   H30   S    
C68   N6    S    
C77   C78   A    
C27   C33   A    
C2    C98   A    
Cr6   O11   S    
N3    C112  S    
C1    O12   A    
C100  C105  A    
C101  C102  A    
C42   C44   A    
C10   O16   A    
C47   H12   S    
C83   C84   A    
C60   C117  S    
C52   H15   S    
C112  H60   S    
C28   C29   A    
C119  H79   S    
C18   C19   A    
C86   C91   A    
C114  O28   D    
C54   C58   S    
C38   C39   S    
C13   H9    S    
Cr1   O12   S    
C55   C56   T    
C23   C26   A    
C108  H44   S    
C106  C107  A    
C15   C16   A    
Cr4   O7    S    
C65   O4    A    
C101  H36   S    
C58   C63   A    
C9    O15   A    
N1    C109  S    
C34   C35   A    
C37   C111  S    
C104  C105  A    
C75   H27   S    
C109  H51   S    
C97   C99   A    
C23   H2    S    
C64   H19   S    
C66   C72   A    
C88   C92   A    
Cr2   O20   S    
C16   C17   A    
C106  H40   S    
C6    C41   S    
C4    C102  S    
C120  O31   D    
C23   C24   A    
C31   C33   A    
C70   C71   T    
C51   C57   A    
C3    C108  A    
C104  H39   S    
C103  C104  A    
N7    H75   S    
C93   C99   A    
C97   H42   S    
Cr4   O19   S    
C87   C98   A    
C11   C93   S    
C121  H83   S    
N2    H52   S    
C5    C43   S    
C77   C85   S    
C59   C60   A    
C68   C69   A    
N8    H81   S    
C54   O3    A    
C118  H77   S    
C36   C41   A    
C61   C62   A    
C9    C73   S    
C110  H55   S    
C35   C41   A    
C115  H67   S    
C90   H24   S    
C51   H16   S    
C120  H80   S    
C66   H18   S    
C53   C55   S    
C100  H37   S    
Cr6   O10   S    
N4    H61   S    
C65   O24   A    
Cr2   O26   S    
C3    H35   S    
C74   C75   A    
C86   C88   A    
C67   C68   A    
C10   O17   A    
C67   C72   A    
C50   H10   S    
C84   C85   A    
C110  H54   S    
C39   C40   T    
C1    O20   A    
C78   C79   A    
C111  H56   S    
Cr5   O8    S    
C84   H29   S    
Cr6   O17   S    
C58   C59   A    
C45   C46   A    
Cr4   O6    S    
C4    C106  A    
C14   H33   S    
C82   C91   S    
C51   C52   A    
C74   H22   S    
C60   C61   A    
C64   C66   A    
C37   C38   A    
C67   H21   S    
C114  H65   S    
C113  H62   S    
C29   C30   A    
C8    O6    A    
C21   O21   A    
C75   C77   A    
Cr4   O14   S    
N5    C115  S    
C47   C48   A    
C14   C15   A    
C13   C76   A    
C43   O26   A    
C32   O1    A    
C118  H76   S    
C96   C97   A    
C15   N7    S    
C62   C63   A    
Cr3   O22   S    
C17   C18   A    
C73   C79   A    
C88   H31   S    
C30   C40   S    
C94   C95   A    
C119  O30   D    
Cr3   O5    S    
C42   C48   A    
C64   C69   A    
C24   C25   A    
C89   C92   A    
C117  O29   D    
N7    C118  S    
C76   C87   A    
C31   H5    S    
C87   N1    S    
C103  H38   S    
Cr5   O15   S    
Cr3   O4    S    
C111  O27   D    
C79   H23   S    
C20   C22   A    
C49   C50   A    
C116  H72   S    
N8    C121  S    
C107  H41   S    
C54   O2    A    
C118  H78   S    
C80   C81   A    
C35   H3    S    
C11   O18   A    
C3    C4    A    
N2    C110  S    
C98   H43   S    
C44   C45   A    
C96   C105  S    
C5    C107  A    
C121  H84   S    
C16   C25   S    
C21   O22   A    
C6    O7    A    
C112  H58   S    
C46   C47   A    
C44   H14   S    
C11   O13   A    
C109  H50   S    
C113  H63   S    
C2    C19   S    
C34   C38   A    
C50   C57   A    
C14   C19   A    
C32   O23   A    
C22   N2    S    
Cr3   O3    S    
C116  H71   S    
C110  H53   S    
C59   N5    S    
N6    C116  S    
C83   H28   S    
C24   N4    S    
C45   H17   S    
C7    C76   S    
C20   C25   A    
Cr1   O25   S    
C116  H73   S    
C49   H11   S    
C93   C94   A    
Cr6   O19   S    
C43   O25   A    
Cr1   O1    S    
Cr1   O24   S    
C12   H1    S    
C89   C90   A    
C117  H74   S    
C80   H26   S    
C95   N8    S    
Cr2   O2    S    
Cr2   O5    S    
C62   H20   S    
C90   C91   A    
C30   C31   A    
Cr6   O18   S    
C49   C53   A    
C20   H47   S    
Cr3   O23   S    
N4    C113  S    
C9    O14   A    
Cr5   O9    S    
C115  H69   S    
C102  C103  A    
C17   H45   S    
C69   C70   S    
C109  H49   S    
C18   H46   S    
Cr1   O5    S    
C27   C32   S    
C61   C71   S    
C1    C42   S    
Cr5   O19   S    
C12   C13   A    
Cr2   O21   S    
C33   H6    S    
C36   C37   A    
C82   C83   A    
C22   C26   A    
C7    O9    A    
C46   C56   S    
C27   C28   A    
C89   C120  S    
N1    H48   S    
C100  C101  A    
C28   H7    S    
N3    H57   S    
C63   C114  S    
C113  H64   S    
C112  H59   S    
C5    C108  A    
C8    C57   S    
C81   H25   S    
C8    O11   A    
C121  H82   S    
C52   C53   A    
C48   H13   S    
C6    O8    A    
C10   C72   S    
