data_mof_unit_32369.cif
_audit_creation_date              2012-10-26T18:47:34-0400
_audit_creation_method            fapswitch 2.2
_symmetry_space_group_name_H-M    P1
_symmetry_Int_Tables_number       1
_space_group_crystal_system       triclinic
_cell_length_a                    10.845455
_cell_length_b                    12.960239
_cell_length_c                    11.772117
_cell_angle_alpha                 98.286041
_cell_angle_beta                  93.495503
_cell_angle_gamma                 92.707192
_cell_volume                      1631.73480332

loop_
_atom_site_label
_atom_site_type_symbol
_atom_type_description
_atom_site_fract_x
_atom_site_fract_y
_atom_site_fract_z
_atom_type_partial_charge
C1    C     C_R   0.499748 0.299821 0.479842 0.537896
C2    C     C_R   0.428696 0.974278 0.634046 -0.129230
C3    C     C_R   0.562384 0.133398 0.376163 -0.132781
C4    C     C_R   0.439067 0.866979 0.625418 -0.132059
C5    C     C_R   0.462020 0.134857 0.555427 -0.132084
C6    C     C_R   0.543959 0.866803 0.449064 -0.141804
C7    C     C_R   0.473689 0.027875 0.548826 0.059300
C8    C     C_R   0.531587 0.973562 0.455415 0.057034
C9    C     C_R   0.398186 0.388224 0.026752 -0.182904
C10   C     C_R   0.609822 0.606335 0.973414 -0.174507
C11   C     C_R   0.406264 0.400525 0.147156 0.022756
C12   C     C_R   0.500760 0.700337 0.520407 0.542118
C13   C     C_R   0.600859 0.594677 0.852864 0.022032
C14   C     C_R   0.544132 0.549568 0.153753 0.243644
C15   C     C_R   0.452565 0.452086 0.846447 0.251629
C16   C     C_R   0.262639 0.502811 0.500094 0.541441
C17   C     C_R   0.737311 0.496716 0.499905 0.540971
C18   C     C_R   0.540975 0.537958 0.032125 0.021932
C19   C     C_R   0.464479 0.458299 0.967912 0.015386
C20   C     C_R   0.221320 0.689718 0.209417 0.131611
C21   C     C_R   0.770062 0.322300 0.798878 0.134355
C22   C     C_R   0.171489 0.657919 0.306859 -0.017636
C23   C     C_R   0.871269 0.493642 0.500740 -0.003540
C24   C     C_R   0.818438 0.349767 0.698744 -0.008529
C25   C     C_R   0.108212 0.559848 0.299392 0.029813
C26   C     C_R   0.892513 0.442464 0.703351 0.025907
C27   C     C_R   0.093692 0.494102 0.193217 -0.108377
C28   C     C_R   0.919755 0.506421 0.809646 -0.119577
C29   C     C_R   0.143870 0.525221 0.096184 -0.145909
C30   C     C_R   0.872059 0.479096 0.909438 -0.150243
C31   C     C_R   0.207598 0.622446 0.103952 -0.080133
C32   C     C_R   0.797576 0.387513 0.904416 -0.081670
C33   C     C_R   0.927886 0.519099 0.404060 -0.153752
C34   C     C_R   0.128577 0.504621 0.499194 -0.001808
C35   C     C_R   0.072067 0.478686 0.595587 -0.153035
C36   C     C_R   0.944253 0.472213 0.597912 -0.029304
C37   C     C_R   0.055654 0.526293 0.402369 -0.031015
C38   C     C_R   0.495123 0.812990 0.531975 0.001799
C39   C     C_R   0.506995 0.187612 0.469756 0.004081
C40   C     C_R   0.575387 0.026673 0.369361 -0.132220
Cu1   Cu    Cu3+1 0.509250 0.507730 0.615930 0.929026
Cu2   Cu    Cu3+1 0.490750 0.492270 0.384070 0.927213
H1    H     H_    0.245832 0.645219 0.027811 0.103780
H2    H     H_    0.891883 0.529512 0.990762 0.122834
H3    H     H_    0.872597 0.537261 0.330353 0.131501
H4    H     H_    0.127619 0.460742 0.669150 0.125323
H5    H     H_    0.592043 0.826014 0.380034 0.101174
H6    H     H_    0.417613 0.176987 0.626721 0.118043
H7    H     H_    0.401409 0.825883 0.690554 0.127755
H8    H     H_    0.597946 0.173991 0.309704 0.128004
H9    H     H_    0.619434 0.985802 0.297163 0.107519
H10   H     H_    0.384479 0.014971 0.706232 0.109024
H11   H     H_    0.354808 0.374390 0.699113 0.291513
H12   H     H_    0.760644 0.368004 0.982540 0.108015
H13   H     H_    0.274378 0.399300 0.812719 0.192572
H14   H     H_    0.665540 0.622101 0.284642 0.272578
H15   H     H_    0.546933 0.694559 0.240580 0.235826
H16   H     H_    0.315625 0.802879 0.139295 0.220852
H17   H     H_    0.361377 0.792222 0.275334 0.232039
H18   H     H_    0.670861 0.215528 0.874107 0.222160
H19   H     H_    0.610200 0.240052 0.747380 0.251746
H20   H     H_    0.182058 0.709502 0.388338 0.111699
H21   H     H_    0.797622 0.299432 0.617331 0.115711
H22   H     H_    0.655492 0.646898 0.809395 0.135120
H23   H     H_    0.354682 0.346272 0.190560 0.134437
H24   H     H_    0.339587 0.323844 0.980764 0.127813
H25   H     H_    0.671488 0.668450 0.019823 0.135480
H26   H     H_    0.044654 0.418428 0.185985 0.110389
H27   H     H_    0.977044 0.577941 0.814959 0.111873
H28   H     H_    0.133664 0.473740 0.014776 0.112464
N1    N     N_R   0.523180 0.519350 0.790130 -0.217759
N2    N     N_R   0.476820 0.480650 0.209870 -0.215345
N3    N     N_3   0.360758 0.376565 0.786628 -0.649516
N4    N     N_3   0.611033 0.639999 0.215401 -0.657225
N5    N     N_3   0.283363 0.791074 0.218605 -0.633649
N6    N     N_3   0.693314 0.228159 0.791890 -0.631351
O1    O     O_R   0.506570 0.354460 0.582000 -0.522358
O2    O     O_R   0.493430 0.645540 0.418000 -0.519550
O3    O     O_R   0.490940 0.341410 0.386200 -0.508970
O4    O     O_R   0.509060 0.658590 0.613800 -0.506351
O5    O     O_R   0.327460 0.506540 0.597900 -0.530057
O6    O     O_R   0.672540 0.493460 0.402100 -0.523158
O7    O     O_R   0.311830 0.493480 0.402100 -0.488315
O8    O     O_R   0.688170 0.506520 0.597900 -0.491469

loop_
_geom_bond_atom_site_label_1
_geom_bond_atom_site_label_2
_ccdc_geom_bond_type
C27   C29   A    
C34   C37   A    
C1    O1    A    
Cu1   Cu2   S    
C14   C18   A    
C28   H27   S    
Cu2   O6    S    
Cu1   O4    S    
C7    C8    A    
C10   H25   S    
C15   C19   A    
C21   N6    S    
C17   C23   S    
C31   H1    S    
C14   N4    S    
C24   C26   A    
C17   O6    A    
Cu1   O1    S    
C33   H3    S    
C34   C35   A    
C9    H24   S    
C27   H26   S    
C16   C34   S    
C9    C19   A    
C2    C7    A    
C23   C33   A    
C22   C25   A    
C12   O2    A    
C6    C38   A    
Cu1   N1    S    
C25   C37   S    
C3    C39   A    
Cu2   O3    S    
C30   H2    S    
C32   H12   S    
C21   C32   A    
C3    H8    S    
H16   N5    S    
H19   N6    S    
C5    H6    S    
H14   N4    S    
C6    H5    S    
C5    C7    A    
C11   N2    A    
C18   C19   A    
C6    C8    A    
C13   N1    A    
Cu1   O8    S    
H18   N6    S    
C16   O7    A    
C33   C37   A    
C20   N5    S    
C35   C36   A    
H15   N4    S    
C2    C4    A    
C22   H20   S    
Cu1   O5    S    
Cu2   N2    S    
C9    C11   A    
C2    H10   S    
C26   C36   S    
C15   N3    S    
C4    C38   A    
C3    C40   A    
Cu2   O2    S    
C24   H21   S    
C5    C39   A    
C1    O3    A    
H17   N5    S    
C29   H28   S    
C14   N2    A    
H11   N3    S    
Cu2   O7    S    
C20   C22   A    
C10   C13   A    
C25   C27   A    
C40   H9    S    
C15   N1    A    
C26   C28   A    
C4    H7    S    
C17   O8    A    
C28   C30   A    
C29   C31   A    
C30   C32   A    
C13   H22   S    
C10   C18   A    
C12   O4    A    
C16   O5    A    
C12   C38   S    
C1    C39   S    
H13   N3    S    
C23   C36   A    
C21   C24   A    
C8    C40   A    
C35   H4    S    
C11   H23   S    
C20   C31   A    
