data_mof_unit_8569.cif
_audit_creation_date              2012-12-11T14:08:28-0500
_audit_creation_method            fapswitch 2.2
_symmetry_space_group_name_H-M    P1
_symmetry_Int_Tables_number       1
_space_group_crystal_system       triclinic
_cell_length_a                    27.982729
_cell_length_b                    7.229683
_cell_length_c                    17.181554
_cell_angle_alpha                 90.000106
_cell_angle_beta                  101.136845
_cell_angle_gamma                 90.000385
_cell_volume                      3410.47939014

loop_
_atom_site_label
_atom_site_type_symbol
_atom_type_description
_atom_site_fract_x
_atom_site_fract_y
_atom_site_fract_z
_atom_type_partial_charge
O1    O     O_R   0.000700 0.436510 0.857920 -0.533524
O2    O     O_R   0.999300 0.563490 0.142080 -0.538934
O3    O     O_R   0.999300 0.936510 0.642080 -0.533521
O4    O     O_R   0.000700 0.063490 0.357920 -0.538929
O5    O     O_R   0.930080 0.766380 0.721890 -0.503963
O6    O     O_R   0.069920 0.233620 0.278110 -0.538993
O7    O     O_R   0.069920 0.266380 0.778110 -0.503945
O8    O     O_R   0.930080 0.733620 0.221890 -0.538992
C1    C     C_R   0.910636 0.598091 0.706591 0.717927
C2    C     C_R   0.089413 0.402765 0.286605 0.704478
C3    C     C_R   0.089364 0.098092 0.793405 0.717973
C4    C     C_R   0.910587 0.902764 0.213396 0.704471
O9    O     O_R   0.996180 0.766230 0.862310 -0.546849
O10   O     O_R   0.003820 0.233770 0.137690 -0.544990
O11   O     O_R   0.003820 0.266230 0.637690 -0.546825
O12   O     O_R   0.996180 0.733770 0.362310 -0.544983
O13   O     O_R   0.065870 0.936460 0.783500 -0.549752
O14   O     O_R   0.934130 0.063540 0.216500 -0.514720
O15   O     O_R   0.934130 0.436460 0.716500 -0.549737
O16   O     O_R   0.065870 0.563540 0.283500 -0.514713
C5    C     C_R   0.998575 0.596490 0.894440 0.758089
C6    C     C_R   0.001603 0.403557 0.105619 0.736576
C7    C     C_R   0.001424 0.096489 0.605560 0.758138
C8    C     C_R   0.998397 0.903557 0.394381 0.736584
O17   O     O_3   0.022790 0.603020 0.723980 -0.378181
O18   O     O_3   0.977210 0.396980 0.276020 -0.373163
O19   O     O_3   0.977210 0.103020 0.776020 -0.378199
O20   O     O_3   0.022790 0.896980 0.223980 -0.373176
V1    V     V_3+5 0.995770 0.877900 0.754830 1.424770
V2    V     V_3+5 0.004230 0.122100 0.245170 1.437753
V3    V     V_3+5 0.004230 0.377900 0.745170 1.424848
V4    V     V_3+5 0.995770 0.622100 0.254830 1.437766
C9    C     C_2   0.001406 0.082456 0.519422 -0.350655
C10   C     C_2   0.998113 0.917694 0.480410 -0.341737
C11   C     C_2   0.998594 0.582456 0.980578 -0.350654
C12   C     C_2   0.001886 0.417694 0.019590 -0.341734
H1    H     H_    0.003997 0.210637 0.487527 0.148303
H2    H     H_    0.995451 0.789530 0.512277 0.153167
H3    H     H_    0.996003 0.710637 0.012473 0.148299
H4    H     H_    0.004548 0.289530 0.987723 0.153159
C13   C     C_R   0.683176 0.968772 0.065425 0.585530
C14   C     C_R   0.312034 0.997076 0.007178 0.624355
C15   C     C_R   0.316825 0.468742 0.434585 0.585530
C16   C     C_R   0.687966 0.497057 0.492824 0.624368
O21   O     O_2   0.714202 0.987319 0.014768 -0.508181
O22   O     O_2   0.280260 0.974947 0.056303 -0.499748
O23   O     O_2   0.285799 0.487268 0.485243 -0.508164
O24   O     O_2   0.719739 0.474904 0.443701 -0.499729
N1    N     N_R   0.701632 0.948636 0.144658 -0.551933
N2    N     N_R   0.294598 0.039508 0.929003 -0.548884
N3    N     N_R   0.298369 0.448624 0.355352 -0.551936
N4    N     N_R   0.705401 0.539506 0.570998 -0.548900
C17   C     C_R   0.671567 0.943641 0.198743 0.544538
C18   C     C_R   0.325732 0.063774 0.877507 0.550611
C19   C     C_R   0.328433 0.443640 0.301266 0.544521
C20   C     C_R   0.674268 0.563797 0.622493 0.550642
C21   C     C_R   0.781188 0.075006 0.210086 -0.165197
C22   C     C_R   0.223711 0.226583 0.865893 -0.200727
C23   C     C_R   0.218814 0.575045 0.289953 -0.165216
C24   C     C_R   0.776294 0.726596 0.634076 -0.200620
C25   C     C_R   0.832247 0.064946 0.228191 0.397991
C26   C     C_R   0.174275 0.242366 0.827561 0.376255
C27   C     C_R   0.167755 0.564990 0.271846 0.397991
C28   C     C_R   0.825729 0.742380 0.672400 0.376232
C29   C     C_R   0.828383 0.765844 0.162386 -0.236087
C30   C     C_R   0.162404 0.922037 0.863584 -0.292341
C31   C     C_R   0.171617 0.265816 0.337592 -0.236076
C32   C     C_R   0.837592 0.422004 0.636440 -0.292355
C33   C     C_R   0.777548 0.774482 0.147431 -0.112822
C34   C     C_R   0.211726 0.906999 0.897921 -0.119500
C35   C     C_R   0.222452 0.274453 0.352549 -0.112822
C36   C     C_R   0.788269 0.406964 0.602105 -0.119364
C37   C     C_R   0.753642 0.930312 0.169928 0.307903
C38   C     C_R   0.242800 0.058747 0.899260 0.338350
C39   C     C_R   0.246358 0.430313 0.330081 0.307940
C40   C     C_R   0.757200 0.558737 0.600739 0.338328
C41   C     C_R   0.600682 0.968067 0.091497 -0.108543
C42   C     C_R   0.395396 0.009097 0.984041 -0.111703
C43   C     C_R   0.399318 0.468052 0.408511 -0.108535
C44   C     C_R   0.604604 0.509098 0.515963 -0.111702
C45   C     C_R   0.632366 0.972237 0.036754 -0.129093
C46   C     C_R   0.362966 0.979917 0.036584 -0.119538
C47   C     C_R   0.367635 0.472209 0.463255 -0.129096
C48   C     C_R   0.637034 0.479905 0.463420 -0.119542
C49   C     C_R   0.612511 0.972536 0.954983 0.455497
C50   C     C_R   0.382291 0.935015 0.116464 0.457112
C51   C     C_R   0.387491 0.472497 0.545026 0.455493
C52   C     C_R   0.617707 0.434999 0.383540 0.457116
C53   C     C_R   0.620542 0.953061 0.173197 -0.019807
C54   C     C_R   0.376303 0.049119 0.903833 0.004724
C55   C     C_R   0.379458 0.453056 0.326811 -0.019799
C56   C     C_R   0.623698 0.549138 0.596169 0.004710
C57   C     C_R   0.856518 0.912639 0.200634 -0.155208
C58   C     C_R   0.142791 0.088303 0.827745 -0.124940
C59   C     C_R   0.143483 0.412644 0.299371 -0.155225
C60   C     C_R   0.857210 0.588298 0.672249 -0.125042
H5    H     H_    0.845711 0.645910 0.142132 0.164290
H6    H     H_    0.139561 0.801760 0.865225 0.177296
H7    H     H_    0.154289 0.145854 0.357823 0.164329
H8    H     H_    0.860431 0.301708 0.634821 0.177350
H9    H     H_    0.756601 0.662198 0.115899 0.127424
H10   H     H_    0.225922 0.775964 0.922757 0.133946
H11   H     H_    0.243398 0.162141 0.384060 0.127412
H12   H     H_    0.774069 0.275911 0.577292 0.133979
C61   C     C_R   0.478645 0.019297 0.956377 0.080226
C62   C     C_R   0.517607 0.963735 0.120040 0.074948
C63   C     C_R   0.521356 0.519299 0.543629 0.080225
C64   C     C_R   0.482393 0.463729 0.379966 0.074952
C65   C     C_R   0.466096 0.962361 0.092237 -0.021447
C66   C     C_R   0.529810 0.997972 0.982625 -0.021697
C67   C     C_R   0.533904 0.462353 0.407769 -0.021449
C68   C     C_R   0.470191 0.497958 0.517382 -0.021700
C69   C     C_R   0.446866 0.997331 0.011098 0.063730
C70   C     C_R   0.549204 0.976694 0.064654 0.058621
C71   C     C_R   0.553134 0.497329 0.488907 0.063733
C72   C     C_R   0.450796 0.476682 0.435353 0.058621
C73   C     C_R   0.457965 0.061962 0.876733 -0.183097
C74   C     C_R   0.538807 0.956056 0.201718 -0.209699
C75   C     C_R   0.542036 0.561986 0.623270 -0.183097
C76   C     C_R   0.461192 0.456058 0.298288 -0.209695
C77   C     C_R   0.407982 0.074876 0.851195 -0.148108
C78   C     C_R   0.589151 0.951786 0.227572 -0.171552
C79   C     C_R   0.592018 0.574910 0.648807 -0.148106
C80   C     C_R   0.410848 0.451790 0.272435 -0.171566
O25   O     O_2   0.307688 0.101379 0.800522 -0.560709
O26   O     O_2   0.690870 0.932120 0.276843 -0.527594
O27   O     O_2   0.692313 0.601427 0.699476 -0.560682
O28   O     O_2   0.309129 0.432134 0.223166 -0.527601
C81   C     C_R   0.562301 0.992802 0.929095 -0.280558
C82   C     C_R   0.433028 0.923120 0.142614 -0.288050
C83   C     C_R   0.437701 0.492769 0.570914 -0.280556
C84   C     C_R   0.566971 0.423107 0.357391 -0.288051
H13   H     H_    0.247978 0.344011 0.869242 0.119684
H14   H     H_    0.762926 0.196330 0.227086 0.148070
H15   H     H_    0.752035 0.844052 0.630716 0.119722
H16   H     H_    0.237076 0.696393 0.272977 0.148032
H17   H     H_    0.394320 0.105305 0.789411 0.138133
H18   H     H_    0.603453 0.947134 0.290816 0.177035
H19   H     H_    0.605681 0.605358 0.710589 0.138133
H20   H     H_    0.396546 0.447144 0.209191 0.177036
H21   H     H_    0.479402 0.090536 0.832400 0.115316
H22   H     H_    0.517346 0.958577 0.247511 0.131359
H23   H     H_    0.520598 0.590572 0.667601 0.115318
H24   H     H_    0.482654 0.458584 0.252495 0.131359
H25   H     H_    0.549911 0.996770 0.865789 0.128656
H26   H     H_    0.445531 0.876505 0.202665 0.135356
H27   H     H_    0.450093 0.496726 0.634220 0.128658
H28   H     H_    0.554466 0.376489 0.297340 0.135358
O29   O     O_3   0.642349 0.958671 0.899509 -0.547624
C85   C     C_3   0.637437 0.781298 0.863601 0.105369
H29   H     H_    0.650960 0.792493 0.807229 0.174532
H30   H     H_    0.598788 0.734936 0.847555 0.085032
C86   C     C_3   0.668549 0.635953 0.915720 -0.314358
H31   H     H_    0.707735 0.671523 0.921828 0.230821
H32   H     H_    0.659409 0.634628 0.975590 0.186239
C87   C     C_3   0.659849 0.441741 0.881050 -0.764645
H33   H     H_    0.621015 0.402016 0.876010 0.226629
H34   H     H_    0.682699 0.341200 0.920715 0.269080
H35   H     H_    0.669758 0.434588 0.821700 0.265195
O30   O     O_3   0.351541 0.884581 0.167278 -0.536367
C88   C     C_3   0.356803 0.005287 0.233422 0.130791
H36   H     H_    0.321775 0.079160 0.230593 0.188336
H37   H     H_    0.385952 0.110579 0.235669 0.104756
C89   C     C_3   0.367177 0.891650 0.309441 -0.323385
H38   H     H_    0.335441 0.801128 0.310586 0.214534
H39   H     H_    0.400470 0.808723 0.309891 0.214253
C90   C     C_3   0.375582 0.008856 0.384155 -0.856342
H40   H     H_    0.408938 0.093551 0.387353 0.249154
H41   H     H_    0.380856 0.917004 0.436947 0.242726
H42   H     H_    0.343480 0.098010 0.384952 0.226348
O31   O     O_3   0.357653 0.458624 0.600501 -0.547633
C91   C     C_3   0.362565 0.281248 0.636405 0.105341
H43   H     H_    0.349045 0.292439 0.692780 0.174531
H44   H     H_    0.401213 0.234880 0.652445 0.085036
C92   C     C_3   0.331448 0.135911 0.584286 -0.314314
H45   H     H_    0.292263 0.171486 0.578184 0.230848
H46   H     H_    0.340585 0.134591 0.524414 0.186238
C93   C     C_3   0.340147 0.941694 0.618951 -0.764655
H47   H     H_    0.378980 0.901965 0.623985 0.226631
H48   H     H_    0.317294 0.841160 0.579286 0.269052
H49   H     H_    0.330241 0.934537 0.678303 0.265214
O32   O     O_3   0.648456 0.384564 0.332724 -0.536363
C94   C     C_3   0.643196 0.505278 0.266583 0.130792
H50   H     H_    0.678225 0.579146 0.269413 0.188339
H51   H     H_    0.614049 0.610575 0.264339 0.104754
C95   C     C_3   0.632819 0.391652 0.190560 -0.323384
H52   H     H_    0.664554 0.301129 0.189411 0.214531
H53   H     H_    0.599526 0.308726 0.190110 0.214252
C96   C     C_3   0.624414 0.508868 0.115849 -0.856327
H54   H     H_    0.591059 0.593565 0.112656 0.249152
H55   H     H_    0.619138 0.417024 0.063054 0.242725
H56   H     H_    0.656516 0.598021 0.115053 0.226350
O33   O     O_3   0.155177 0.408148 0.793764 -0.566816
C97   C     C_3   0.186415 0.494385 0.749047 0.064254
H57   H     H_    0.205434 0.391667 0.717189 0.136038
H58   H     H_    0.213752 0.579738 0.789085 0.134348
C98   C     C_3   0.156246 0.621236 0.687183 -0.281178
H59   H     H_    0.130845 0.536211 0.643710 0.189922
H60   H     H_    0.134224 0.716885 0.716571 0.212720
C99   C     C_3   0.188712 0.734879 0.643375 -0.804525
H61   H     H_    0.213343 0.825192 0.685635 0.248307
H62   H     H_    0.165698 0.823710 0.598358 0.226468
H63   H     H_    0.210870 0.642292 0.612791 0.258693
O34   O     O_3   0.857688 0.211050 0.268634 -0.561830
C100  C     C_3   0.873861 0.163446 0.349498 0.115582
H64   H     H_    0.906995 0.247143 0.371605 0.129064
H65   H     H_    0.885988 0.016631 0.358631 0.079438
C101  C     C_3   0.835679 0.213646 0.399734 -0.349759
H66   H     H_    0.854259 0.278818 0.456151 0.163710
H67   H     H_    0.809379 0.316419 0.367991 0.242737
C102  C     C_3   0.808070 0.044047 0.420621 -0.676223
H68   H     H_    0.789841 0.970507 0.366351 0.255700
H69   H     H_    0.779871 0.087898 0.454216 0.242331
H70   H     H_    0.833512 0.947382 0.458188 0.203943
O35   O     O_3   0.844820 0.908204 0.706157 -0.566825
C103  C     C_3   0.813635 0.994157 0.751050 0.064278
H71   H     H_    0.794688 0.891252 0.782936 0.135998
H72   H     H_    0.786236 0.079526 0.711139 0.134365
C104  C     C_3   0.843846 0.120933 0.812899 -0.281202
H73   H     H_    0.869373 0.035901 0.856176 0.190010
H74   H     H_    0.865732 0.216991 0.783451 0.212622
C105  C     C_3   0.811434 0.233962 0.857034 -0.804563
H75   H     H_    0.786655 0.324211 0.814970 0.248257
H76   H     H_    0.834479 0.322821 0.902002 0.226453
H77   H     H_    0.789433 0.140952 0.887718 0.258692
O36   O     O_3   0.142315 0.711129 0.231432 -0.561831
C106  C     C_3   0.126154 0.663627 0.150554 0.115544
H78   H     H_    0.093012 0.747294 0.128461 0.129076
H79   H     H_    0.114042 0.516802 0.141378 0.079447
C107  C     C_3   0.164337 0.713992 0.100344 -0.349719
H80   H     H_    0.145757 0.779226 0.043942 0.163709
H81   H     H_    0.190625 0.816762 0.132123 0.242712
C108  C     C_3   0.191967 0.544485 0.079419 -0.676252
H82   H     H_    0.210183 0.470846 0.133670 0.255707
H83   H     H_    0.220179 0.588461 0.045874 0.242409
H84   H     H_    0.166541 0.447866 0.041794 0.203922

loop_
_geom_bond_atom_site_label_1
_geom_bond_atom_site_label_2
_ccdc_geom_bond_type
O17   V3    S    
C97   H58   S    
C61   C66   A    
N1    C17   A    
O1    C5    A    
C30   H6    S    
C79   H19   S    
O19   V1    S    
C15   C47   A    
C63   C68   A    
C64   C76   A    
C28   O35   S    
O3    C7    A    
C11   C12   D    
C14   C46   A    
C103  C104  S    
C68   C72   A    
O31   C91   S    
O15   V3    S    
C75   C79   A    
C107  H81   S    
C88   H36   S    
C34   C38   A    
C90   H41   S    
C100  H64   S    
C42   C54   A    
C98   C99   S    
O7    C3    A    
C41   C53   A    
C32   C60   A    
C107  C108  S    
O9    V1    S    
C89   H38   S    
N3    C39   S    
C18   C54   A    
N2    C38   S    
C25   O34   S    
C74   C78   A    
C91   H43   S    
O4    C8    A    
C25   C57   A    
C97   C98   S    
C82   H26   S    
C53   C78   A    
C21   C37   A    
C27   C59   A    
C23   H16   S    
O1    V3    S    
O13   V1    S    
C66   C81   A    
O2    V4    S    
C14   O22   S    
C20   O27   S    
C51   C83   A    
O3    V1    S    
C73   C77   A    
O32   C94   S    
C19   C55   A    
C49   C81   A    
C76   C80   A    
C87   H34   S    
C1    O15   A    
C92   H45   S    
C2    O16   A    
C99   H61   S    
C7    C9    S    
C85   C86   S    
C76   H24   S    
O2    C6    A    
C31   C35   A    
C83   H27   S    
O14   V2    S    
C86   H32   S    
C108  H82   S    
C66   C70   A    
C81   H25   S    
C91   C92   S    
C65   C69   A    
C30   C58   A    
C16   N4    A    
O11   C7    A    
C97   H57   S    
C13   C45   A    
O12   C8    A    
C43   C72   A    
C62   C74   A    
C31   C59   A    
C61   C73   A    
C96   H54   S    
O10   V2    S    
C13   N1    A    
C88   H37   S    
C91   H44   S    
C45   C49   A    
C93   H47   S    
C90   H42   S    
O5    V1    S    
C100  H65   S    
C22   H13   S    
C75   H23   S    
C18   O25   S    
O7    V3    S    
C44   C48   A    
C84   H28   S    
C12   H4    S    
C103  H71   S    
C78   H18   S    
C92   H46   S    
C94   C95   S    
C90   H40   S    
C92   C93   S    
C101  H66   S    
C98   H60   S    
C36   H12   S    
C105  H77   S    
N4    C40   S    
C46   C50   A    
C77   H17   S    
O11   V3    S    
C24   C40   A    
C107  H80   S    
C8    C10   S    
C32   C36   A    
O8    V4    S    
C44   C56   A    
C96   H56   S    
C11   H3    S    
O35   C103  S    
C32   H8    S    
C94   H50   S    
O5    C1    A    
C85   H30   S    
C104  H74   S    
C33   C37   A    
C42   C46   A    
C52   O32   S    
C106  H78   S    
C24   H15   S    
C44   C71   A    
C41   C45   A    
C21   H14   S    
O8    C4    A    
C51   O31   S    
C102  H70   S    
C9    C10   D    
O9    C5    A    
C36   C40   A    
N2    C18   A    
O34   C100  S    
C86   C87   S    
C105  H76   S    
C108  H83   S    
C1    C60   S    
C63   C71   A    
C22   C26   A    
C14   N2    A    
C5    C11   S    
C3    C58   S    
C99   H62   S    
C106  H79   S    
C62   C70   A    
O36   C106  S    
C33   H9    S    
C55   C80   A    
C26   C58   A    
C17   C53   A    
O10   C6    A    
C54   C77   A    
N1    C37   S    
C4    C57   S    
C56   C79   A    
C42   C69   A    
C52   C84   A    
C95   H53   S    
C41   C70   A    
C23   C39   A    
C104  H73   S    
C88   C89   S    
C73   H21   S    
C22   C38   A    
O16   V4    S    
C100  C101  S    
C61   C69   A    
C35   H11   S    
C3    O13   A    
C102  H69   S    
C10   H2    S    
C43   C55   A    
C80   H20   S    
C87   H35   S    
C50   C82   A    
C27   O36   S    
C48   C52   A    
C103  H72   S    
C74   H22   S    
C47   C51   A    
O6    C2    A    
C93   H48   S    
C34   H10   S    
C21   C25   A    
O18   V4    S    
C31   H7    S    
O12   V4    S    
C49   O29   S    
C6    C12   S    
C23   C27   A    
C63   C75   A    
C64   C67   A    
C16   C48   A    
C24   C28   A    
O30   C88   S    
C64   C72   A    
C95   C96   S    
C94   H51   S    
C86   H31   S    
C29   H5    S    
O20   V2    S    
O29   C85   S    
C104  C105  S    
C35   C39   A    
C15   N3    A    
C30   C34   A    
C50   O30   S    
C2    C59   S    
C99   H63   S    
C29   C33   A    
C89   H39   S    
C29   C57   A    
C28   C60   A    
N3    C19   A    
C89   C90   S    
C68   C83   A    
C98   H59   S    
O6    V2    S    
C108  H84   S    
C9    H1    S    
C93   H49   S    
C17   O26   S    
C102  H68   S    
C43   C47   A    
N4    C20   A    
C67   C84   A    
C20   C56   A    
C106  C107  S    
C87   H33   S    
C19   O28   S    
C101  H67   S    
O33   C97   S    
C101  C102  S    
C4    O14   A    
C65   C82   A    
C13   O21   S    
C85   H29   S    
C67   C71   A    
C26   O33   S    
C96   H55   S    
C95   H52   S    
C15   O23   S    
C105  H75   S    
O4    V2    S    
C16   O24   S    
C62   C65   A    
