data_mof_unit_35739.cif
_audit_creation_date              2012-12-10T19:46:26-0500
_audit_creation_method            fapswitch 2.2
_symmetry_space_group_name_H-M    P1
_symmetry_Int_Tables_number       1
_space_group_crystal_system       triclinic
_cell_length_a                    10.862931
_cell_length_b                    10.850888
_cell_length_c                    10.42727
_cell_angle_alpha                 91.039412
_cell_angle_beta                  90.594734
_cell_angle_gamma                 89.796246
_cell_volume                      1228.81242

loop_
_atom_site_label
_atom_site_type_symbol
_atom_type_description
_atom_site_fract_x
_atom_site_fract_y
_atom_site_fract_z
_atom_type_partial_charge
C1    C     C_R   0.498686 0.261495 0.498613 0.791480
C2    C     C_R   0.501312 0.738505 0.501387 0.791484
C3    C     C_R   0.872059 0.494789 0.502263 -0.081481
C4    C     C_R   0.127941 0.505216 0.497738 -0.081478
C5    C     C_R   0.940764 0.461314 0.612171 -0.001551
C6    C     C_R   0.059236 0.538694 0.387831 -0.001557
C7    C     C_R   0.261600 0.203646 0.129436 -0.119128
C8    C     C_R   0.738395 0.796336 0.870553 -0.119104
C9    C     C_R   0.299843 0.156488 0.247868 0.183372
C10   C     C_R   0.700151 0.843501 0.752125 0.183374
C11   C     C_R   0.422626 0.114300 0.263300 0.100762
C12   C     C_R   0.577370 0.885698 0.736700 0.100759
C13   C     C_R   0.504931 0.119924 0.158940 0.186183
C14   C     C_R   0.495068 0.880075 0.841062 0.186185
C15   C     C_R   0.464061 0.168484 0.042091 -0.131707
C16   C     C_R   0.535937 0.831510 0.957907 -0.131716
C17   C     C_R   0.343320 0.210053 0.027707 -0.218147
C18   C     C_R   0.656678 0.789935 0.972286 -0.218145
C19   C     C_R   0.465612 0.931328 0.391371 -0.257542
C20   C     C_R   0.534382 0.068671 0.608631 -0.257546
C21   C     C_R   0.501720 0.871994 0.503652 -0.081473
C22   C     C_R   0.498276 0.128005 0.496349 -0.081478
C23   C     C_R   0.261505 0.503407 0.499169 0.794768
C24   C     C_R   0.738495 0.496595 0.500831 0.794758
C25   C     C_R   0.536495 0.941338 0.614024 0.040072
C26   C     C_R   0.463500 0.058661 0.385978 0.040069
C27   C     C_1   0.500031 0.500005 0.071946 0.089911
C28   C     C_1   0.499969 0.499994 0.928054 0.089904
C29   C     C_R   0.227228 0.738557 0.152803 -0.134067
C30   C     C_R   0.772740 0.261455 0.847179 -0.134051
C31   C     C_R   0.175231 0.697478 0.266451 -0.102875
C32   C     C_R   0.824733 0.302540 0.733533 -0.102820
C33   C     C_R   0.115630 0.582853 0.268527 0.131892
C34   C     C_R   0.884371 0.417152 0.731474 0.131904
C35   C     C_R   0.107653 0.510826 0.155600 -0.140587
C36   C     C_R   0.892390 0.489157 0.844418 -0.140639
C37   C     C_R   0.161262 0.551386 0.042722 -0.141893
C38   C     C_R   0.838785 0.448592 0.957295 -0.141895
C39   C     C_R   0.220864 0.665208 0.041259 -0.130431
C40   C     C_R   0.779144 0.334784 0.958741 -0.130418
C41   C     C_R   0.931983 0.531988 0.391363 -0.247211
C42   C     C_R   0.068017 0.468020 0.608639 -0.247214
Cu1   Cu    Cu3+1 0.500000 0.500000 0.625300 0.976390
Cu2   Cu    Cu3+1 0.500000 0.500000 0.374700 0.976395
H1    H     H_    0.272174 0.827304 0.151185 0.114069
H2    H     H_    0.727767 0.172718 0.848783 0.114047
H3    H     H_    0.060291 0.423252 0.155453 0.118449
H4    H     H_    0.939781 0.576720 0.844580 0.118458
H5    H     H_    0.156306 0.494753 0.956309 0.127537
H6    H     H_    0.843774 0.505208 0.043722 0.127539
H7    H     H_    0.879438 0.559261 0.307422 0.154159
H8    H     H_    0.120562 0.440748 0.692579 0.154161
H9    H     H_    0.312721 0.246844 0.936928 0.147104
H10   H     H_    0.687277 0.753139 0.063062 0.147107
N1    N     N_1   0.500010 0.499990 0.186410 -0.140683
N2    N     N_1   0.499990 0.500010 0.813590 -0.140685
O1    O     O_R   0.499990 0.319650 0.605810 -0.585492
O2    O     O_R   0.500010 0.680350 0.394190 -0.585490
O3    O     O_R   0.499990 0.319640 0.394190 -0.570008
O4    O     O_R   0.500010 0.680360 0.605810 -0.570008
O5    O     O_R   0.319640 0.500010 0.605810 -0.591082
O6    O     O_R   0.680360 0.499990 0.394190 -0.591078
O7    O     O_R   0.319650 0.500010 0.394190 -0.558269
O8    O     O_R   0.680350 0.499990 0.605810 -0.558272
H11   H     H_    0.261994 0.696302 0.953598 0.138683
H12   H     H_    0.738017 0.303685 0.046401 0.138679
C43   C     C_3   0.636000 0.075378 0.171433 -0.889829
H13   H     H_    0.684653 0.130175 0.247154 0.236450
H14   H     H_    0.637639 0.976664 0.197290 0.239717
H15   H     H_    0.686869 0.084170 0.080279 0.225937
C44   C     C_3   0.363998 0.924621 0.828571 -0.889846
H16   H     H_    0.315341 0.869815 0.752862 0.236453
H17   H     H_    0.313135 0.915839 0.919729 0.225940
H18   H     H_    0.362355 0.023330 0.802703 0.239720
H19   H     H_    0.525434 0.173675 0.961297 0.136190
H20   H     H_    0.474564 0.826316 0.038701 0.136195
H21   H     H_    0.437953 0.878393 0.306804 0.151346
H22   H     H_    0.562041 0.121606 0.693198 0.151338
H23   H     H_    0.181158 0.754710 0.352485 0.102753
H24   H     H_    0.818773 0.245324 0.647486 0.102733
H25   H     H_    0.167799 0.234620 0.115109 0.131425
H26   H     H_    0.832193 0.765350 0.884875 0.131431
C45   C     C_3   0.208884 0.150120 0.355679 -0.882253
H27   H     H_    0.198627 0.053089 0.385788 0.230030
H28   H     H_    0.241501 0.207076 0.438617 0.229199
H29   H     H_    0.116728 0.185123 0.326477 0.227829
C46   C     C_3   0.791107 0.849864 0.644311 -0.882245
H30   H     H_    0.801366 0.946894 0.614201 0.230030
H31   H     H_    0.883263 0.814858 0.673510 0.227830
H32   H     H_    0.758485 0.792906 0.561376 0.229196

loop_
_geom_bond_atom_site_label_1
_geom_bond_atom_site_label_2
_ccdc_geom_bond_type
C15   H19   S    
C5    C42   A    
C14   C44   S    
C46   H30   S    
C35   H3    S    
C28   N2    T    
C8    H26   S    
C38   C40   A    
C1    O3    A    
C2    O4    A    
C20   C25   A    
Cu2   O3    S    
C7    C9    A    
C19   H21   S    
C19   C26   A    
Cu2   O2    S    
C7    C17   A    
C6    C41   A    
C31   C33   A    
C34   C36   A    
C23   O7    A    
C1    C22   S    
C24   O8    A    
C40   H12   S    
C39   H11   S    
C3    C24   S    
Cu1   O8    S    
C7    H25   S    
Cu2   O7    S    
C10   C46   S    
C43   H13   S    
C4    C6    A    
C44   H17   S    
C4    C23   S    
Cu1   O1    S    
C11   C26   S    
Cu2   O6    S    
C8    C18   A    
C29   H1    S    
C43   H14   S    
C32   C34   A    
Cu1   Cu2   S    
C1    O1    A    
C32   H24   S    
C37   H5    S    
C45   H27   S    
C5    C34   S    
C29   C39   A    
C2    C21   S    
C30   C40   A    
C16   C18   A    
C9    C11   A    
C10   C12   A    
Cu1   O4    S    
C9    C45   S    
C8    C10   A    
C45   H28   S    
C20   C22   A    
C13   C15   A    
C14   C16   A    
C17   H9    S    
Cu1   O5    S    
C13   C43   S    
C35   C37   A    
C15   C17   A    
C21   C25   A    
C3    C41   A    
C24   O6    A    
C19   C21   A    
C16   H20   S    
C30   H2    S    
C12   C14   A    
C3    C5    A    
C44   H18   S    
C2    O2    A    
C31   H23   S    
C38   H6    S    
C6    C33   S    
C20   H22   S    
C12   C25   S    
C43   H15   S    
C36   C38   A    
C44   H16   S    
C29   C31   A    
C30   C32   A    
C11   C13   A    
Cu2   N1    S    
C4    C42   A    
C33   C35   A    
C36   H4    S    
C27   N1    T    
C18   H10   S    
Cu1   N2    S    
C23   O5    A    
C45   H29   S    
C37   C39   A    
C22   C26   A    
C46   H32   S    
C27   C28   S    
C46   H31   S    
C41   H7    S    
C42   H8    S    
