data_mof_unit_8902.cif
_audit_creation_date              2012-12-10T20:20:41-0500
_audit_creation_method            fapswitch 2.2
_symmetry_space_group_name_H-M    P1
_symmetry_Int_Tables_number       1
_space_group_crystal_system       triclinic
_cell_length_a                    18.928295
_cell_length_b                    18.436786
_cell_length_c                    10.665655
_cell_angle_alpha                 90.160303
_cell_angle_beta                  90.134073
_cell_angle_gamma                 90.297278
_cell_volume                      3721.99249265

loop_
_atom_site_label
_atom_site_type_symbol
_atom_type_description
_atom_site_fract_x
_atom_site_fract_y
_atom_site_fract_z
_atom_type_partial_charge
C1    C     C_R   0.365183 0.499721 0.504564 0.900224
C2    C     C_R   0.635039 0.500214 0.502366 0.912611
C3    C     C_R   0.805246 0.551976 0.655293 -0.180840
C4    C     C_R   0.175202 0.551934 0.512108 -0.163989
C5    C     C_R   0.735367 0.553073 0.616321 -0.271374
C6    C     C_R   0.245666 0.548605 0.477127 -0.273436
C7    C     C_R   0.710107 0.500901 0.531122 -0.137855
C8    C     C_R   0.290574 0.498991 0.535120 -0.142247
C9    C     C_R   0.962328 0.569639 0.635508 -0.180819
C10   C     C_R   0.035644 0.571597 0.636291 -0.188360
C11   C     C_R   0.073904 0.506706 0.637520 0.138035
C12   C     C_R   0.926679 0.502745 0.637485 0.138200
C13   C     C_R   0.038223 0.440321 0.651381 -0.184243
C14   C     C_R   0.964939 0.438433 0.652160 -0.189581
C15   C     C_R   0.537963 0.726106 0.588028 -0.130035
C16   C     C_R   0.462915 0.725306 0.410656 -0.137150
C17   C     C_R   0.541011 0.802670 0.587912 0.349109
C18   C     C_R   0.460737 0.802012 0.409098 0.350081
C19   C     C_R   0.500837 0.841344 0.498618 -0.103097
C20   C     C_R   0.436681 0.961309 0.499212 -0.123813
C21   C     C_R   0.564312 0.962484 0.498591 -0.122676
C22   C     C_R   0.497484 0.499967 0.259587 0.896508
C23   C     C_R   0.497331 0.500093 0.740361 0.899765
C24   C     C_R   0.436370 0.037472 0.499270 -0.208922
C25   C     C_R   0.564057 0.038637 0.499829 -0.206835
C26   C     C_R   0.500072 0.077274 0.499922 0.120787
C27   C     C_R   0.500648 0.922756 0.498796 0.225891
C28   C     C_R   0.547919 0.198280 0.574697 -0.281609
C29   C     C_R   0.451517 0.197530 0.426430 -0.275341
C30   C     C_R   0.546660 0.274347 0.573969 -0.011777
C31   C     C_R   0.452815 0.273631 0.427037 -0.010837
C32   C     C_R   0.499811 0.158571 0.500389 0.127688
C33   C     C_R   0.485343 0.565996 0.064214 0.120901
C34   C     C_R   0.485067 0.566084 0.936359 0.150115
C35   C     C_R   0.485054 0.500355 0.128434 -0.110061
C36   C     C_R   0.484612 0.500543 0.871323 -0.098138
C37   C     C_R   0.470138 0.435526 0.064327 -0.231654
C38   C     C_R   0.469848 0.435629 0.934618 -0.186173
C39   C     C_3   0.535605 0.628502 0.929524 -0.510830
C40   C     C_3   0.536003 0.628396 0.071617 -0.464960
C41   C     C_R   0.755318 0.446755 0.485183 0.475901
C42   C     C_R   0.265067 0.453002 0.630733 0.483359
C43   C     C_R   0.826127 0.447606 0.521472 -0.254895
C44   C     C_R   0.194987 0.458804 0.668537 -0.258933
C45   C     C_R   0.851181 0.499568 0.607553 0.048906
C46   C     C_R   0.149461 0.507109 0.608141 0.043575
H1    H     H_    0.463980 0.384455 0.113205 0.169391
H2    H     H_    0.463484 0.384611 0.885090 0.176369
H3    H     H_    0.566209 0.695548 0.658205 0.144609
H4    H     H_    0.435221 0.693840 0.340364 0.149208
H5    H     H_    0.386754 0.932389 0.500848 0.132266
H6    H     H_    0.614437 0.934544 0.495907 0.129204
H7    H     H_    0.386133 0.065285 0.500976 0.134458
H8    H     H_    0.614091 0.067357 0.498473 0.135402
H9    H     H_    0.585550 0.170797 0.634337 0.141813
H10   H     H_    0.413815 0.169444 0.366958 0.138156
H11   H     H_    0.583229 0.304586 0.632356 0.118581
H12   H     H_    0.415925 0.303319 0.369298 0.118879
H13   H     H_    0.587272 0.613278 0.887773 0.196216
H14   H     H_    0.511490 0.677538 0.113153 0.204685
H15   H     H_    0.510684 0.677644 0.888983 0.213198
H16   H     H_    0.587917 0.613130 0.112583 0.209494
H17   H     H_    0.861933 0.409046 0.479330 0.142372
H18   H     H_    0.176226 0.425817 0.745546 0.142320
H19   H     H_    0.823480 0.592255 0.722206 0.142648
H20   H     H_    0.140609 0.588670 0.462481 0.141824
H21   H     H_    0.700511 0.593773 0.655233 0.164173
H22   H     H_    0.265084 0.584278 0.404171 0.156787
H23   H     H_    0.933890 0.620020 0.624207 0.132312
H24   H     H_    0.062364 0.623479 0.628524 0.131519
H25   H     H_    0.066617 0.389480 0.652475 0.126562
H26   H     H_    0.938200 0.386410 0.656554 0.129036
N1    N     N_R   0.500000 0.689440 0.500000 -0.122561
N2    N     N_R   0.500000 0.310560 0.500000 -0.096290
O1    O     O_R   0.398180 0.560840 0.499970 -0.611387
O2    O     O_R   0.601820 0.560840 0.500030 -0.619336
O3    O     O_R   0.398180 0.439210 0.499910 -0.623023
O4    O     O_R   0.601820 0.439210 0.500090 -0.614672
O5    O     O_R   0.499990 0.560820 0.316770 -0.620711
O6    O     O_R   0.500010 0.560820 0.683230 -0.621180
O7    O     O_R   0.499990 0.439200 0.316710 -0.621252
O8    O     O_R   0.500010 0.439200 0.683290 -0.624513
Zn1   Zn    Zn3+2 0.500000 0.581210 0.500000 0.940822
Zn2   Zn    Zn3+2 0.500000 0.418790 0.500000 0.938714
O9    O     O_3   0.577017 0.840382 0.681303 -0.635394
C47   C     C_3   0.649218 0.820323 0.686438 0.064073
H27   H     H_    0.681483 0.870364 0.674903 0.155860
H28   H     H_    0.666169 0.782445 0.610406 0.119632
C48   C     C_3   0.665918 0.787753 0.814852 -0.319437
H29   H     H_    0.655570 0.828760 0.889076 0.235204
H30   H     H_    0.631162 0.740257 0.832076 0.214031
C49   C     C_3   0.742769 0.763620 0.823264 -0.985529
H31   H     H_    0.753732 0.721310 0.751645 0.259534
H32   H     H_    0.753145 0.740539 0.917533 0.269836
H33   H     H_    0.778828 0.810532 0.808500 0.266366
O10   O     O_3   0.426928 0.839645 0.313577 -0.636558
C50   C     C_3   0.356800 0.814802 0.293448 0.067135
H34   H     H_    0.321546 0.862748 0.297424 0.156709
H35   H     H_    0.336772 0.776609 0.366407 0.118430
C51   C     C_3   0.350521 0.780849 0.162654 -0.324835
H36   H     H_    0.362937 0.822564 0.090840 0.233563
H37   H     H_    0.389067 0.736083 0.152238 0.211662
C52   C     C_3   0.276330 0.751024 0.138982 -0.968770
H38   H     H_    0.263625 0.707749 0.207759 0.260468
H39   H     H_    0.273361 0.727536 0.043121 0.270977
H40   H     H_    0.236744 0.795065 0.146795 0.263097
O11   O     O_3   0.732259 0.397586 0.395549 -0.650965
C53   C     C_3   0.715608 0.330284 0.452440 0.118903
H41   H     H_    0.662850 0.313287 0.416908 0.187543
H42   H     H_    0.711650 0.332425 0.557007 0.107022
C54   C     C_3   0.769223 0.272655 0.413849 -0.357896
H43   H     H_    0.773536 0.271177 0.309951 0.238395
H44   H     H_    0.821886 0.286454 0.453559 0.208297
C55   C     C_3   0.747085 0.197722 0.460593 -0.980964
H45   H     H_    0.742909 0.197728 0.564474 0.261535
H46   H     H_    0.787140 0.157111 0.432224 0.268110
H47   H     H_    0.695293 0.181765 0.419436 0.267666
O12   O     O_3   0.310254 0.408885 0.698096 -0.651150
C56   C     C_3   0.311555 0.338506 0.644469 0.125800
H48   H     H_    0.367318 0.320029 0.646059 0.187516
H49   H     H_    0.294096 0.336370 0.544286 0.111984
C57   C     C_3   0.267511 0.285704 0.722768 -0.382137
H50   H     H_    0.284373 0.289098 0.822527 0.236676
H51   H     H_    0.210813 0.300474 0.716636 0.208976
C58   C     C_3   0.276417 0.207853 0.676454 -0.966114
H52   H     H_    0.259044 0.203004 0.577204 0.260621
H53   H     H_    0.243754 0.170767 0.734494 0.267513
H54   H     H_    0.332581 0.191113 0.683997 0.269350

loop_
_geom_bond_atom_site_label_1
_geom_bond_atom_site_label_2
_ccdc_geom_bond_type
C4    H20   S    
C26   C32   S    
C40   H14   S    
C23   O8    A    
C1    C8    S    
C1    O3    A    
C2    C7    S    
C5    H21   S    
O7    Zn2   S    
C50   H34   S    
C43   H17   S    
C4    C46   A    
O9    C47   S    
C44   H18   S    
C15   H3    S    
C22   C35   S    
C17   O9    S    
C31   H12   S    
C35   C37   A    
C8    C42   A    
C22   O5    A    
C29   C32   A    
C30   N2    A    
C47   H28   S    
C30   H11   S    
C40   H16   S    
C53   H41   S    
C18   C19   A    
O12   C56   S    
C51   H36   S    
C33   C35   A    
C20   C24   A    
C58   H54   S    
O11   C53   S    
C23   O6    A    
C48   H30   S    
C19   C27   S    
C9    C10   A    
C38   H2    S    
C29   H10   S    
C6    H22   S    
C21   C27   A    
C13   C14   A    
C41   C43   A    
C54   C55   S    
C3    H19   S    
C42   C44   A    
O6    Zn1   S    
O2    Zn1   S    
C51   H37   S    
C50   H35   S    
C28   H9    S    
C44   C46   A    
C55   H45   S    
C56   H49   S    
C39   H15   S    
C33   C40   S    
C16   N1    A    
C1    O1    A    
C22   O7    A    
C28   C32   A    
C25   H8    S    
C54   H44   S    
C39   C40   S    
C5    C7    A    
C47   H27   S    
C42   O12   S    
C31   N2    A    
C6    C8    A    
C13   H25   S    
O3    Zn2   S    
C24   H7    S    
C3    C45   A    
C51   C52   S    
C34   C39   S    
C37   C38   A    
C2    O4    A    
C39   H13   S    
O10   C50   S    
C49   H32   S    
C33   C34   A    
C52   H39   S    
C48   C49   S    
C43   C45   A    
C10   H24   S    
C4    C6    A    
C15   N1    A    
C12   C14   A    
O8    Zn2   S    
C58   H52   S    
C9    H23   S    
C37   H1    S    
C49   H33   S    
C57   H51   S    
C48   H29   S    
C50   C51   S    
C2    O2    A    
C56   C57   S    
C15   C17   A    
C21   C25   A    
C41   O11   S    
C54   H43   S    
C14   H26   S    
C18   O10   S    
C24   C26   A    
N2    Zn2   S    
C12   C45   S    
C3    C5    A    
C47   C48   S    
C55   H46   S    
C56   H48   S    
C20   C27   A    
C20   H5    S    
C53   C54   S    
C57   C58   S    
C36   C38   A    
C25   C26   A    
C29   C31   A    
O5    Zn1   S    
C11   C13   A    
O1    Zn1   S    
C28   C30   A    
C49   H31   S    
C17   C19   A    
C53   H42   S    
C52   H40   S    
C34   C36   A    
C7    C41   A    
C16   H4    S    
C9    C12   A    
C55   H47   S    
C10   C11   A    
O4    Zn2   S    
C16   C18   A    
C23   C36   S    
C52   H38   S    
C58   H53   S    
C11   C46   S    
C57   H50   S    
N1    Zn1   S    
C21   H6    S    
