data_mof_unit_50515.cif
_audit_creation_date              2012-12-11T15:39:31-0500
_audit_creation_method            fapswitch 2.2
_symmetry_space_group_name_H-M    P1
_symmetry_Int_Tables_number       1
_space_group_crystal_system       triclinic
_cell_length_a                    14.333367
_cell_length_b                    14.783863
_cell_length_c                    33.26903
_cell_angle_alpha                 97.607882
_cell_angle_beta                  90.440801
_cell_angle_gamma                 118.8137
_cell_volume                      6101.80817762

loop_
_atom_site_label
_atom_site_type_symbol
_atom_type_description
_atom_site_fract_x
_atom_site_fract_y
_atom_site_fract_z
_atom_type_partial_charge
C1    C     C_R   0.616810 0.910477 0.436959 0.543175
C2    C     C_R   0.712136 0.437520 0.949299 0.533192
C3    C     C_R   0.580017 0.707574 0.760103 0.278678
C4    C     C_R   0.572246 0.727183 0.720461 -0.100870
C5    C     C_R   0.654408 0.744041 0.694802 -0.020533
C6    C     C_R   0.741120 0.733630 0.707875 -0.154528
C7    C     C_R   0.748878 0.712287 0.746961 -0.192427
C8    C     C_R   0.669486 0.700427 0.773661 0.022926
C9    C     C_R   0.558917 0.723510 0.628820 -0.122619
C10   C     C_R   0.549802 0.762639 0.594099 -0.125304
C11   C     C_R   0.727440 0.910846 0.611134 -0.133077
C12   C     C_3   0.464253 0.356628 0.425528 -0.117693
C13   C     C_R   0.741906 0.717281 0.945593 0.565461
C14   C     C_3   0.079111 0.989845 0.198332 -0.403791
C15   C     C_3   0.394271 0.268808 0.627995 -0.065827
C16   C     C_3   0.584427 0.460790 0.707660 -0.113577
C17   C     C_3   0.712112 0.191176 0.289272 -0.391295
C18   C     C_3   0.289264 0.750393 0.702496 -0.406081
C19   C     C_3   0.027061 0.892598 0.708221 -0.413288
C20   C     C_3   0.513985 0.794664 0.801235 -0.126875
C21   C     C_3   0.768687 0.586759 0.249391 -0.392970
C22   C     C_R   0.829972 0.432353 0.163254 -0.124869
C23   C     C_R   0.828093 0.449509 0.123131 -0.126834
C24   C     C_R   0.737888 0.312545 0.239226 -0.111011
C25   C     C_R   0.729548 0.294860 0.279632 0.009770
C26   C     C_R   0.731836 0.372484 0.310075 0.027984
C27   C     C_R   0.745798 0.466924 0.299922 -0.111726
C28   C     C_R   0.753810 0.484356 0.259475 0.004808
C29   C     C_R   0.746889 0.404939 0.228904 0.023319
C30   C     C_R   0.742299 0.414202 0.185756 0.029019
C31   C     C_R   0.605710 0.331931 0.363617 -0.103233
C32   C     C_R   0.593647 0.205069 0.456349 0.560501
C33   C     C_R   0.570566 0.292788 0.399894 0.269995
C34   C     C_R   0.740000 0.296503 0.412632 -0.179479
C35   C     C_R   0.774757 0.337361 0.376891 -0.142476
C36   C     C_R   0.705860 0.350706 0.351471 -0.017444
C37   C     C_R   0.635903 0.268824 0.423512 0.026518
C38   C     C_R   0.243833 0.877889 0.393636 0.015263
C39   C     C_R   0.232941 0.959732 0.380888 -0.116586
C40   C     C_R   0.207253 0.956307 0.339936 -0.109806
C41   C     C_R   0.737077 0.870533 0.645794 -0.117607
C42   C     C_R   0.191479 0.870924 0.311341 0.035427
C43   C     C_R   0.195419 0.786229 0.324062 -0.115592
C44   C     C_R   0.295526 0.892832 0.434428 0.541266
C45   C     C_R   0.221249 0.789476 0.364992 -0.130271
C46   C     C_R   0.189159 0.805125 0.164253 -0.128626
C47   C     C_R   0.163624 0.784571 0.122365 -0.133537
C48   C     C_R   0.086238 0.899270 0.129683 -0.107837
C49   C     C_R   0.110587 0.919508 0.172012 0.015883
C50   C     C_R   0.159247 0.868915 0.189339 0.051549
C51   C     C_1   0.170801 0.873488 0.232691 -0.030594
C52   C     C_R   0.651483 0.778144 0.655379 0.033692
C53   C     C_1   0.179223 0.873220 0.268687 -0.035123
C54   C     C_R   0.107829 0.827822 0.104888 0.005427
C55   C     C_R   0.637388 0.879399 0.395404 0.018912
C56   C     C_R   0.613464 0.904833 0.551708 0.541263
C57   C     C_R   0.552824 0.801073 0.368242 -0.132137
C58   C     C_R   0.565407 0.789133 0.326627 -0.117191
C59   C     C_R   0.662599 0.854721 0.311871 0.036522
C60   C     C_R   0.749254 0.927881 0.338909 -0.118794
C61   C     C_R   0.736925 0.940058 0.380485 -0.127129
C62   C     C_R   0.780052 0.919885 0.174868 -0.118291
C63   C     C_R   0.632553 0.858321 0.585435 0.018036
C64   C     C_R   0.794758 0.906740 0.133469 -0.128423
C65   C     C_R   0.620116 0.751780 0.121955 -0.126164
C66   C     C_R   0.605578 0.765234 0.163259 -0.115906
C67   C     C_R   0.686948 0.847139 0.189914 0.038008
C68   C     C_R   0.589380 0.198830 0.571078 0.564881
C69   C     C_1   0.678351 0.850926 0.232903 -0.038560
C70   C     C_1   0.671321 0.852161 0.268918 -0.038490
C71   C     C_R   0.716615 0.820008 0.106922 0.021585
C72   C     C_R   0.620577 0.244869 0.614637 -0.006365
C73   C     C_R   0.564270 0.288792 0.636840 0.276230
C74   C     C_R   0.051736 0.781117 0.063912 0.543256
C75   C     C_R   0.580955 0.310955 0.679926 0.281353
C76   C     C_R   0.648203 0.283730 0.700070 0.004727
C77   C     C_R   0.707350 0.245610 0.677904 -0.192160
C78   C     C_R   0.694562 0.227320 0.635621 -0.199856
C79   C     C_R   0.757756 0.335660 0.845919 -0.120292
C80   C     C_R   0.289923 0.887346 0.548624 0.540396
C81   C     C_R   0.769705 0.366394 0.888008 -0.127351
C82   C     C_R   0.590724 0.344560 0.885905 -0.131055
C83   C     C_R   0.579063 0.313923 0.843832 -0.112961
C84   C     C_R   0.663912 0.313035 0.823679 0.034137
C85   C     C_R   0.744139 0.486793 0.066178 0.546014
C86   C     C_1   0.658746 0.299860 0.780103 -0.020734
C87   C     C_1   0.654637 0.292264 0.743624 0.013099
C88   C     C_R   0.688020 0.375655 0.908188 0.020742
C89   C     C_R   0.073906 0.757929 0.910082 0.025050
C90   C     C_R   0.101623 0.854607 0.898071 -0.137763
C91   C     C_R   0.128767 0.870791 0.858719 -0.125952
C92   C     C_R   0.738228 0.448412 0.105186 0.021137
C93   C     C_R   0.128420 0.790493 0.831035 0.028882
C94   C     C_R   0.109234 0.696990 0.843957 -0.120990
C95   C     C_R   0.082330 0.680825 0.883397 -0.123316
C96   C     C_R   0.743285 0.789143 0.066515 0.552443
C97   C     C_R   0.204667 0.770939 0.766013 -0.105089
C98   C     C_R   0.213424 0.778895 0.724758 0.002306
C99   C     C_R   0.154201 0.817167 0.705398 0.055813
C100  C     C_R   0.087826 0.847776 0.727615 0.000235
C101  C     C_R   0.079777 0.837925 0.768694 -0.104448
C102  C     C_R   0.138679 0.800717 0.787973 0.001081
C103  C     C_R   0.228861 0.935782 0.654935 -0.130194
C104  C     C_R   0.648088 0.423757 0.127277 -0.127242
C105  C     C_R   0.259185 0.952757 0.616065 -0.135558
C106  C     C_R   0.168093 0.765483 0.592899 -0.131272
C107  C     C_R   0.022332 0.732627 0.947748 0.536598
C108  C     C_R   0.134807 0.748558 0.631717 -0.125538
C109  C     C_R   0.169364 0.833708 0.663087 0.035494
C110  C     C_R   0.233318 0.867772 0.585355 0.026588
C111  C     C_R   0.720882 0.704859 0.901174 0.016203
C112  C     C_R   0.624140 0.627357 0.879938 -0.133163
C113  C     C_R   0.607664 0.622548 0.837922 -0.078021
C114  C     C_R   0.687974 0.694635 0.816811 0.046324
C115  C     C_R   0.786234 0.767897 0.837838 -0.131908
C116  C     C_R   0.650213 0.406697 0.167336 -0.120798
C117  C     C_R   0.802606 0.772607 0.879382 -0.123227
Cr1   Cr    Cr6+3 0.424820 0.846020 0.489780 1.003959
Cr2   Cr    Cr6+3 0.657880 0.078580 0.505700 1.004203
Cr3   Cr    Cr6+3 0.417280 0.075360 0.504550 1.038560
Cr4   Cr    Cr6+3 0.903360 0.812540 0.006510 1.003328
Cr5   Cr    Cr6+3 0.914630 0.587050 0.006280 1.004981
Cr6   Cr    Cr6+3 0.673560 0.582680 0.008540 1.010131
H1    H     H_    0.577694 0.422117 0.114270 0.128727
H2    H     H_    0.898761 0.468320 0.106868 0.128866
H3    H     H_    0.204126 0.022126 0.330361 0.114738
H4    H     H_    0.870150 0.960153 0.122872 0.119458
H5    H     H_    0.843321 0.983719 0.195388 0.102246
H6    H     H_    0.824930 0.978622 0.327697 0.104816
H7    H     H_    0.803570 0.000973 0.400607 0.126549
H8    H     H_    0.475058 0.753583 0.378712 0.124808
H9    H     H_    0.533083 0.708820 0.174683 0.104439
H10   H     H_    0.558458 0.684351 0.102254 0.121789
H11   H     H_    0.498003 0.732010 0.305821 0.105683
H12   H     H_    0.901006 0.437051 0.177227 0.107526
H13   H     H_    0.845705 0.390028 0.904192 0.125738
H14   H     H_    0.853028 0.353112 0.367931 0.119440
H15   H     H_    0.823854 0.335127 0.830506 0.105217
H16   H     H_    0.760807 0.226414 0.693373 0.127342
H17   H     H_    0.738011 0.192919 0.619474 0.152101
H18   H     H_    0.506097 0.296519 0.826788 0.119545
H19   H     H_    0.526413 0.351101 0.900423 0.126610
H20   H     H_    0.096975 0.915678 0.918385 0.118682
H21   H     H_    0.061190 0.605551 0.892021 0.126829
H22   H     H_    0.087894 0.669357 0.637937 0.108671
H23   H     H_    0.792831 0.281373 0.430611 0.133460
H24   H     H_    0.250679 0.743145 0.781341 0.113014
H25   H     H_    0.145687 0.944316 0.849370 0.106128
H26   H     H_    0.027535 0.859458 0.785818 0.100264
H27   H     H_    0.256917 0.001931 0.679144 0.113167
H28   H     H_    0.310607 0.032022 0.610906 0.125101
H29   H     H_    0.108470 0.634102 0.822886 0.108153
H30   H     H_    0.147449 0.699108 0.569443 0.120086
H31   H     H_    0.560942 0.572241 0.895791 0.125603
H32   H     H_    0.733014 0.252517 0.215356 0.112135
H33   H     H_    0.879239 0.831164 0.894686 0.133156
H34   H     H_    0.181265 0.729331 0.104003 0.127773
H35   H     H_    0.809137 0.914046 0.666173 0.106385
H36   H     H_    0.504239 0.734023 0.710389 0.109652
H37   H     H_    0.531980 0.563731 0.822039 0.148438
H38   H     H_    0.802827 0.742560 0.687791 0.123088
H39   H     H_    0.817985 0.706672 0.756666 0.123022
H40   H     H_    0.492436 0.651823 0.635557 0.107964
H41   H     H_    0.475645 0.719519 0.574900 0.130947
H42   H     H_    0.849453 0.824328 0.822377 0.101689
H43   H     H_    0.581370 0.390886 0.184447 0.109739
H44   H     H_    0.792374 0.984513 0.605263 0.121459
H45   H     H_    0.227106 0.766441 0.177349 0.108839
H46   H     H_    0.747151 0.525637 0.323575 0.109559
H47   H     H_    0.552131 0.341833 0.343735 0.118830
H48   H     H_    0.481089 0.409801 0.402577 0.099609
H49   H     H_    0.520879 0.398265 0.453182 0.122914
H50   H     H_    0.382667 0.334034 0.434797 0.137163
H51   H     H_    0.043136 0.024245 0.179843 0.111651
H52   H     H_    0.019692 0.944595 0.219115 0.137090
H53   H     H_    0.150758 0.054801 0.216642 0.134359
H54   H     H_    0.381914 0.328607 0.647416 0.154747
H55   H     H_    0.373443 0.201385 0.644423 0.107693
H56   H     H_    0.183035 0.719632 0.302087 0.106798
H57   H     H_    0.337492 0.239640 0.600504 0.121127
H58   H     H_    0.596491 0.490150 0.677944 0.149584
H59   H     H_    0.662677 0.490007 0.725131 0.123817
H60   H     H_    0.538928 0.492873 0.725405 0.152345
H61   H     H_    0.706424 0.137704 0.261395 0.123931
H62   H     H_    0.779842 0.203228 0.309779 0.130046
H63   H     H_    0.636629 0.152275 0.304229 0.153335
H64   H     H_    0.349296 0.818169 0.689175 0.144047
H65   H     H_    0.332799 0.727579 0.723138 0.130565
H66   H     H_    0.244460 0.683114 0.677953 0.131772
H67   H     H_    0.229330 0.725429 0.373739 0.123728
H68   H     H_    0.982649 0.841638 0.679379 0.133772
H69   H     H_    0.969134 0.899969 0.728517 0.122656
H70   H     H_    0.083391 0.971675 0.701544 0.131029
H71   H     H_    0.502634 0.833939 0.776812 0.107855
H72   H     H_    0.593739 0.845023 0.818283 0.129633
H73   H     H_    0.452549 0.784696 0.822923 0.143707
H74   H     H_    0.841503 0.624157 0.232793 0.147191
H75   H     H_    0.698327 0.573434 0.230147 0.136264
H76   H     H_    0.778046 0.641926 0.277241 0.126066
H77   H     H_    0.250076 0.029090 0.402108 0.152190
H78   H     H_    0.042792 0.932799 0.116584 0.125586
O1    O     O_R   0.318160 0.824460 0.443680 -0.522795
O2    O     O_R   0.668160 0.499860 0.053480 -0.517095
O3    O     O_R   0.689170 0.693840 0.050110 -0.495068
O4    O     O_R   0.525040 0.857250 0.449830 -0.503028
O5    O     O_R   0.803860 0.812940 0.962540 -0.513120
O6    O     O_R   0.982950 0.787950 0.964120 -0.525150
O7    O     O_R   0.007050 0.649970 0.960540 -0.518680
O8    O     O_R   0.807910 0.482370 0.965590 -0.503831
O9    O     O_R   0.643310 0.460980 0.963840 -0.526857
O10   O     O_R   0.666140 0.657800 0.967020 -0.498213
O11   O     O_3   0.830520 0.660760 0.007110 -0.258852
O12   O     O_R   0.645130 0.163230 0.552140 -0.515079
O13   O     O_R   0.684760 0.998800 0.456360 -0.516989
O14   O     O_R   0.647540 0.166310 0.470260 -0.514725
O15   O     O_R   0.500960 0.181750 0.467450 -0.459139
O16   O     O_R   0.331100 0.981120 0.457080 -0.496603
O17   O     O_R   0.315560 0.821140 0.532010 -0.518301
O18   O     O_R   0.522630 0.854180 0.531710 -0.503223
O19   O     O_R   0.682160 0.995480 0.544690 -0.519503
O20   O     O_3   0.467276 0.265251 0.409097 -0.553932
O21   O     O_3   0.499506 0.315568 0.615677 -0.557694
O22   O     O_3   0.524866 0.351026 0.702451 -0.584899
O23   O     O_R   0.498360 0.178430 0.555780 -0.474280
O24   O     O_3   0.500029 0.695202 0.785447 -0.585058
O25   O     O_R   0.328690 0.978040 0.538950 -0.509987
O26   O     O_3   0.499990 0.999990 0.500010 -0.242017
O27   O     O_R   0.828710 0.851830 0.052170 -0.515714
O28   O     O_R   0.005980 0.823990 0.047210 -0.502741
O29   O     O_R   0.031900 0.688850 0.050170 -0.514240
O30   O     O_R   0.830940 0.518420 0.048680 -0.499513

loop_
_geom_bond_atom_site_label_1
_geom_bond_atom_site_label_2
_ccdc_geom_bond_type
C11   H44   S    
C105  C110  A    
C18   H66   S    
Cr2   O14   S    
C93   C94   A    
C34   C37   A    
C97   H24   S    
C13   O10   A    
C10   C63   A    
C85   O30   A    
C21   H75   S    
C74   O29   A    
C114  C115  A    
C90   C91   A    
C16   H60   S    
Cr2   O26   S    
C7    C8    A    
C12   H49   S    
C30   C116  A    
C77   C78   A    
C58   H11   S    
C48   C54   A    
Cr5   O30   S    
C43   H56   S    
C26   C27   A    
C101  C102  A    
Cr4   O27   S    
C46   H45   S    
Cr6   O3    S    
C96   O27   A    
C56   C63   S    
C28   C29   A    
C84   C86   S    
C108  H22   S    
C11   C63   A    
C69   C70   T    
C42   C53   S    
C47   H34   S    
C5    C6    A    
C16   H59   S    
Cr4   O11   S    
C4    H36   S    
C94   H29   S    
C99   C109  S    
Cr6   O9    S    
Cr1   O1    S    
C18   H64   S    
C13   O5    A    
C108  C109  A    
C34   C35   A    
C64   C71   A    
C101  H26   S    
C9    H40   S    
C24   C29   A    
C112  C113  A    
C38   C45   A    
C72   C78   A    
C103  H27   S    
C54   C74   S    
C32   O14   A    
C14   H53   S    
C35   C36   A    
C17   H62   S    
Cr3   O16   S    
C115  C117  A    
Cr6   O10   S    
Cr1   O17   S    
C62   C64   A    
C31   C33   A    
C5    C52   S    
C2    C88   S    
C115  H42   S    
C29   C30   S    
C1    O4    A    
C9    C10   A    
C27   H46   S    
C41   C52   A    
C107  O6    A    
C97   C102  A    
C24   H32   S    
C82   H19   S    
C19   H69   S    
C23   H2    S    
C106  H30   S    
C40   C42   A    
C66   C67   A    
C75   O22   S    
C95   H21   S    
Cr3   O23   S    
C103  C109  A    
C104  C116  A    
C15   H57   S    
C44   O1    A    
C73   C75   A    
C116  H43   S    
C68   O23   A    
C9    C52   A    
Cr4   O5    S    
C21   H76   S    
C74   O28   A    
Cr5   O29   S    
C96   O3    A    
C20   H71   S    
C91   H25   S    
C85   C92   S    
C97   C98   A    
C12   H48   S    
C66   H9    S    
C22   C23   A    
C105  H28   S    
C7    H39   S    
C2    O9    A    
Cr4   O28   S    
Cr5   O7    S    
Cr1   O4    S    
C76   C77   A    
C3    C8    A    
C60   H6    S    
C39   C40   A    
C83   H18   S    
C85   O2    A    
C86   C87   T    
C4    C5    A    
C71   C96   S    
C25   C26   A    
C65   C71   A    
C48   H78   S    
C82   C83   A    
C33   C37   A    
C20   O24   S    
Cr1   O18   S    
C60   C61   A    
C51   C53   T    
C32   O15   A    
C89   C95   A    
C75   C76   A    
C38   C44   S    
C14   H52   S    
C91   C93   A    
C83   C84   A    
C76   C87   S    
C6    H38   S    
C17   H63   S    
C68   C72   S    
C64   H4    S    
C40   H3    S    
Cr6   O11   S    
C89   C107  S    
C117  H33   S    
C77   H16   S    
C50   C51   S    
Cr5   O8    S    
C103  C105  A    
C80   O25   A    
C32   C37   S    
C24   C25   A    
C68   O12   A    
C43   C45   A    
Cr3   O26   S    
C107  O7    A    
C61   H7    S    
C47   C54   A    
C62   C67   A    
C26   C36   S    
C48   C49   A    
C21   C28   S    
Cr2   O12   S    
C55   C57   A    
C79   C84   A    
Cr2   O19   S    
C49   C50   A    
Cr5   O11   S    
C42   C43   A    
Cr4   O6    S    
C3    C4    A    
Cr3   O25   S    
C56   O19   A    
C81   H13   S    
C79   C81   A    
C113  C114  A    
C106  C110  A    
C3    O24   S    
C46   C47   A    
C2    O8    A    
C10   H41   S    
C20   H72   S    
C111  C112  A    
C31   C36   A    
C57   H8    S    
C44   O16   A    
C90   H20   S    
C21   H74   S    
C72   C73   A    
C78   H17   S    
C93   C102  S    
C19   C100  S    
C19   H70   S    
C6    C7    A    
C104  H1    S    
C31   H47   S    
C8    C114  S    
Cr1   O26   S    
Cr3   O15   S    
C73   O21   S    
C46   C50   A    
C99   C100  A    
Cr6   O2    S    
C22   H12   S    
C111  C117  A    
C17   C25   S    
C16   H58   S    
C15   O21   S    
C15   H54   S    
C58   C59   A    
C14   H51   S    
C22   C30   A    
C35   H14   S    
C62   H5    S    
C12   O20   S    
C34   H23   S    
C17   H61   S    
C57   C58   A    
C38   C39   A    
C106  C108  A    
C82   C88   A    
C55   C61   A    
C18   H65   S    
C100  C101  A    
C39   H77   S    
C11   C41   A    
C65   C66   A    
C113  H37   S    
C1    C55   S    
C94   C95   A    
C80   O17   A    
C81   C88   A    
C92   C104  A    
C59   C70   S    
C41   H35   S    
C14   C49   S    
C45   H67   S    
C59   C60   A    
C79   H15   S    
Cr2   O13   S    
C13   C111  S    
C98   C99   A    
C15   H55   S    
C80   C110  S    
C1    O13   A    
C23   C92   A    
C16   O22   S    
C112  H31   S    
C18   C98   S    
C67   C69   S    
C89   C90   A    
C20   H73   S    
C56   O18   A    
C65   H10   S    
C19   H68   S    
C12   H50   S    
C27   C28   A    
C33   O20   S    
