data_mof_unit_34008.cif
_audit_creation_date              2012-12-10T17:42:45-0500
_audit_creation_method            fapswitch 2.2
_symmetry_space_group_name_H-M    P1
_symmetry_Int_Tables_number       1
_space_group_crystal_system       triclinic
_cell_length_a                    10.077294
_cell_length_b                    10.613766
_cell_length_c                    13.147899
_cell_angle_alpha                 94.211048
_cell_angle_beta                  73.133323
_cell_angle_gamma                 87.498044
_cell_volume                      1339.03360064

loop_
_atom_site_label
_atom_site_type_symbol
_atom_type_description
_atom_site_fract_x
_atom_site_fract_y
_atom_site_fract_z
_atom_type_partial_charge
C1    C     C_R   0.505303 0.734654 0.479796 0.983968
C2    C     C_R   0.381240 0.455701 0.814292 -0.277867
C3    C     C_R   0.296550 0.906177 0.398419 0.431632
C4    C     C_R   0.424852 0.486044 0.701291 0.939539
C5    C     C_R   0.179400 0.993954 0.414806 0.304024
C6    C     C_R   0.145730 0.084054 0.504801 -0.278599
C7    C     C_R   0.248512 0.111054 0.555364 0.560369
C8    C     C_R   0.384216 0.055396 0.505924 -0.198927
C9    C     C_R   0.393914 0.935691 0.453423 -0.053282
C10   C     C_R   0.514970 0.860880 0.441343 -0.191838
C11   C     C_R   0.641111 0.918713 0.418374 -0.169209
C12   C     C_R   0.449552 0.432320 0.975140 0.047927
C13   C     C_R   0.637816 0.051162 0.436252 0.508434
C14   C     C_R   0.508938 0.119435 0.490220 -0.249601
C15   C     C_R   0.805928 0.696532 0.615574 -0.041357
C16   C     C_R   0.502001 0.258198 0.500832 0.893195
C17   C     C_R   0.853257 0.818039 0.618522 -0.005557
C18   C     C_R   0.992369 0.827482 0.612365 -0.201818
C19   C     C_R   0.080725 0.717767 0.600305 -0.082820
C20   C     C_R   0.044965 0.600365 0.555806 0.024207
C21   C     C_R   0.900938 0.596311 0.557844 0.073363
C22   C     C_R   0.953713 0.413190 0.440163 -0.045483
C23   C     C_R   0.483321 0.417903 0.863248 0.054410
C24   C     C_R   0.096048 0.413635 0.438003 0.027535
C25   C     C_R   0.576996 0.489145 0.297152 0.876055
C26   C     C_R   0.800168 0.397896 0.013074 -0.090399
C27   C     C_R   0.623589 0.455293 0.181848 -0.188604
C28   C     C_R   0.239381 0.476914 0.878130 -0.103555
C29   C     C_R   0.207989 0.493509 0.989493 0.574874
C30   C     C_R   0.312933 0.472251 0.036718 -0.292250
C31   C     C_3   0.240286 0.723459 0.319620 -0.273557
C32   C     C_3   0.168806 0.993483 0.239808 -0.062578
C33   C     C_2   0.005844 0.151283 0.541505 0.543698
C34   C     C_R   0.556128 0.416116 0.023110 0.019000
C35   C     C_3   0.264887 0.150195 0.725493 -0.258734
C36   C     C_3   0.773823 0.137916 0.292893 -0.243406
C37   C     C_2   0.702906 0.668619 0.715152 0.472897
C38   C     C_2   0.753091 0.930839 0.651494 0.503696
C39   C     C_2   0.170930 0.728509 0.670042 0.541898
C40   C     C_2   0.192893 0.322579 0.359626 0.427900
C41   C     C_3   0.475142 0.211390 0.158494 -0.281589
C42   C     C_2   0.121357 0.476962 0.831608 0.346973
C43   C     C_3   0.058023 0.627412 0.124756 -0.287354
C44   C     C_2   0.772126 0.840766 0.368244 0.453031
C45   C     C_R   0.695802 0.393303 0.961683 0.049941
C46   C     C_R   0.725540 0.360231 0.852612 -0.159806
C47   C     C_R   0.618779 0.366248 0.804609 -0.162271
C48   C     C_R   0.526036 0.416194 0.132794 0.445112
C49   C     C_R   0.764304 0.439066 0.122136 -0.247898
H1    H     H_    0.844377 0.449210 0.161196 0.225728
H2    H     H_    0.244808 0.662938 0.382353 0.224006
H3    H     H_    0.176683 0.897877 0.197839 0.145930
H4    H     H_    0.274106 0.028591 0.225908 0.139146
H5    H     H_    0.109446 0.055849 0.202035 0.182165
H6    H     H_    0.928800 0.128063 0.501947 0.181521
H7    H     H_    0.230542 0.053555 0.740978 0.217897
H8    H     H_    0.218482 0.211113 0.800726 0.155527
H9    H     H_    0.379570 0.151212 0.707096 0.155822
H10   H     H_    0.871148 0.186140 0.262798 0.198965
H11   H     H_    0.686725 0.202355 0.287200 0.128865
H12   H     H_    0.919951 0.342156 0.391652 0.182210
H13   H     H_    0.782602 0.049155 0.240101 0.147061
H14   H     H_    0.722152 0.585952 0.753462 0.090528
H15   H     H_    0.650402 0.926346 0.641072 0.098692
H16   H     H_    0.167999 0.661811 0.726533 0.117825
H17   H     H_    0.295512 0.301855 0.363593 0.160049
H18   H     H_    0.445699 0.160567 0.231574 0.155363
H19   H     H_    0.590421 0.194829 0.125494 0.136937
H20   H     H_    0.426235 0.168322 0.099962 0.198765
H21   H     H_    0.125024 0.412844 0.762770 0.158519
H22   H     H_    0.134969 0.698596 0.095084 0.150747
H23   H     H_    0.023579 0.917662 0.638112 0.206966
H24   H     H_    0.064953 0.596759 0.202045 0.154323
H25   H     H_    0.953247 0.675261 0.139609 0.200187
H26   H     H_    0.772290 0.754618 0.318315 0.048185
H27   H     H_    0.830647 0.330901 0.804799 0.214587
H28   H     H_    0.907448 0.371942 0.969513 0.196817
H29   H     H_    0.285003 0.485727 0.122540 0.197041
H30   H     H_    0.644868 0.332507 0.721201 0.200992
H31   H     H_    0.269602 0.662555 0.243583 0.162677
H32   H     H_    0.131763 0.762000 0.335096 0.212575
N1    N     N_R   0.856860 0.501200 0.500990 -0.137324
N2    N     N_R   0.142450 0.501280 0.501020 -0.170365
O1    O     O_R   0.385310 0.683220 0.500000 -0.601628
O2    O     O_3   0.093781 0.992484 0.348871 -0.558822
O3    O     O_2   0.973889 0.232475 0.616644 -0.564366
O4    O     O_3   0.218167 0.199150 0.643916 -0.565010
O5    O     O_3   0.758373 0.112829 0.399545 -0.577449
O6    O     O_2   0.597737 0.737430 0.756554 -0.585927
O7    O     O_2   0.782231 0.028343 0.692802 -0.591682
O8    O     O_2   0.236777 0.821665 0.674239 -0.627029
O9    O     O_2   0.158993 0.270778 0.285895 -0.613994
O10   O     O_3   0.425571 0.340474 0.185253 -0.613598
O11   O     O_2   0.018807 0.550227 0.868920 -0.569283
O12   O     O_R   0.614640 0.683250 0.500010 -0.631355
O13   O     O_3   0.071119 0.520385 0.051192 -0.594501
O14   O     O_2   0.879184 0.868162 0.386372 -0.538131
O15   O     O_R   0.328400 0.499950 0.653610 -0.645936
O16   O     O_R   0.557730 0.499970 0.653620 -0.620433
O17   O     O_R   0.385360 0.316750 0.499990 -0.621671
O18   O     O_R   0.614690 0.316780 0.500000 -0.584285
O19   O     O_R   0.442270 0.500030 0.346380 -0.618487
O20   O     O_R   0.671600 0.500050 0.346390 -0.649197
O21   O     O_3   0.337534 0.816263 0.311309 -0.630849
Zn1   Zn    Zn3+2 0.346880 0.499980 0.499990 0.951672
Zn2   Zn    Zn3+2 0.653120 0.500020 0.500010 0.957711

loop_
_geom_bond_atom_site_label_1
_geom_bond_atom_site_label_2
_ccdc_geom_bond_type
C3    O21   S    
C43   H24   S    
C33   H6    S    
C4    O15   A    
C19   C20   A    
C47   H30   S    
C36   H10   S    
C46   H27   S    
C7    C8    A    
C41   H18   S    
C45   C46   A    
C36   O5    S    
C1    O1    A    
C12   C23   A    
O17   Zn1   S    
O15   Zn1   S    
C35   H9    S    
C22   N1    A    
C28   C29   A    
C24   N2    A    
C5    C6    A    
C25   O19   A    
C42   H21   S    
O19   Zn1   S    
C18   C19   A    
C39   O8    D    
C32   H3    S    
C26   C45   A    
C35   O4    S    
C7    O4    S    
C8    C9    A    
C8    C14   A    
C9    C10   A    
C5    O2    S    
C43   H25   S    
C40   H17   S    
C13   C14   A    
C39   H16   S    
C36   H13   S    
C32   H5    S    
C37   H14   S    
O1    Zn1   S    
C41   H19   S    
C38   H15   S    
C18   H23   S    
C41   O10   S    
C26   H28   S    
C23   C47   A    
C48   O10   S    
C31   H31   S    
C26   C49   A    
C25   O20   A    
C3    C5    A    
N2    Zn1   S    
C44   H26   S    
C2    C4    S    
C33   O3    D    
C29   C30   A    
C3    C9    A    
O12   Zn2   S    
C43   O13   S    
C44   O14   D    
C1    O12   A    
C17   C18   A    
C11   C44   S    
C34   C45   A    
C40   O9    D    
C19   C39   S    
C14   C16   S    
C4    O16   A    
C34   C48   A    
C12   C34   A    
C32   H4    S    
C41   H20   S    
O18   Zn2   S    
C15   C17   A    
O16   Zn2   S    
C46   C47   A    
C43   H22   S    
C12   C30   A    
C35   H7    S    
C42   O11   D    
C16   O17   A    
C1    C10   S    
C31   H2    S    
C36   H11   S    
C29   O13   S    
C6    C7    A    
C25   C27   S    
C38   O7    D    
C31   H32   S    
C6    C33   S    
C37   O6    D    
C35   H8    S    
C31   O21   S    
C15   C37   S    
C22   H12   S    
C21   N1    A    
C11   C13   A    
C32   O2    S    
C13   O5    S    
C28   C42   S    
C24   C40   S    
O20   Zn2   S    
C22   C24   A    
C17   C38   S    
N1    Zn2   S    
C27   C48   A    
C10   C11   A    
C30   H29   S    
C16   O18   A    
C15   C21   A    
C20   C21   A    
C49   H1    S    
C20   N2    A    
C2    C23   A    
C2    C28   A    
C27   C49   A    
