data_mof_unit_7585.cif
_audit_creation_date              2012-12-10T18:57:40-0500
_audit_creation_method            fapswitch 2.2
_symmetry_space_group_name_H-M    P1
_symmetry_Int_Tables_number       1
_space_group_crystal_system       triclinic
_cell_length_a                    10.991452
_cell_length_b                    10.922323
_cell_length_c                    9.721236
_cell_angle_alpha                 89.096385
_cell_angle_beta                  90.280583
_cell_angle_gamma                 95.489939
_cell_volume                      1161.55119169

loop_
_atom_site_label
_atom_site_type_symbol
_atom_type_description
_atom_site_fract_x
_atom_site_fract_y
_atom_site_fract_z
_atom_type_partial_charge
C1    C     C_R   0.500117 0.262593 0.501001 0.763523
C2    C     C_R   0.489806 0.127939 0.501781 -0.184521
C3    C     C_R   0.472298 0.064549 0.377622 -0.237273
C4    C     C_R   0.451333 0.936028 0.374386 0.073784
C5    C     C_R   0.474616 0.868072 0.496259 -0.127420
C6    C     C_R   0.481658 0.932354 0.619700 0.037610
C7    C     C_3   0.567446 0.926327 0.737257 -0.497569
C8    C     C_3   0.569908 0.064526 0.744161 0.338568
C9    C     C_R   0.601181 0.543397 0.072790 0.191861
C10   C     C_R   0.403865 0.441713 0.072159 0.104949
C11   C     C_R   0.411395 0.429331 0.925465 0.133869
C12   C     C_R   0.265979 0.500852 0.500406 0.811637
C13   C     C_R   0.602223 0.540564 0.927546 0.118449
C14   C     C_3   0.678188 0.659506 0.915692 -0.548438
C15   C     C_3   0.666844 0.669861 0.071285 0.330795
C16   C     C_R   0.492802 0.736425 0.498581 0.795752
C17   C     C_R   0.734000 0.499090 0.499835 0.835434
C18   C     C_2   0.934647 0.471502 0.396256 0.157878
C19   C     C_2   0.866776 0.512529 0.498172 -0.352717
C20   C     C_2   0.065745 0.509337 0.395541 -0.189363
C21   C     C_2   0.133351 0.489264 0.505444 -0.376922
C22   C     C_R   0.483764 0.059014 0.624051 0.097539
Cu1   Cu    Cu3+1 0.499990 0.499980 0.640670 0.935701
Cu2   Cu    Cu3+1 0.500010 0.500020 0.359330 0.940924
H1    H     H_    0.660408 0.115358 0.718652 0.067545
H2    H     H_    0.772263 0.647338 0.880238 0.210499
H3    H     H_    0.631625 0.727317 0.856851 0.181004
H4    H     H_    0.607435 0.740533 0.102435 0.067368
H5    H     H_    0.910976 0.568401 0.579153 0.133934
H6    H     H_    0.106665 0.546547 0.301526 0.157374
H7    H     H_    0.089248 0.455688 0.600198 0.155373
H8    H     H_    0.478398 0.114118 0.281583 0.150786
H9    H     H_    0.521006 0.878723 0.827237 0.218418
H10   H     H_    0.656837 0.895346 0.706860 0.146438
N1    N     N_R   0.500780 0.500930 0.147930 -0.235167
N2    N     N_R   0.500780 0.500890 0.852020 -0.197789
O1    O     O_R   0.500000 0.319640 0.618810 -0.593907
O2    O     O_R   0.500010 0.319680 0.381230 -0.602640
O3    O     O_R   0.321940 0.499980 0.618760 -0.585829
O4    O     O_R   0.321950 0.500020 0.381180 -0.589294
O5    O     O_R   0.499990 0.680320 0.618770 -0.568125
O6    O     O_R   0.500000 0.680360 0.381190 -0.583458
O7    O     O_R   0.678050 0.499980 0.618820 -0.579092
O8    O     O_R   0.678060 0.500020 0.381240 -0.537396
C23   C     C_3   0.888230 0.376413 0.291104 -0.336221
C24   C     C_3   0.924353 0.417918 0.143927 -0.329252
C25   C     C_3   0.851758 0.341246 0.037520 -0.896830
H11   H     H_    0.753796 0.353284 0.050767 0.258281
H12   H     H_    0.880280 0.372835 0.932374 0.251773
H13   H     H_    0.866685 0.242597 0.050667 0.246794
H14   H     H_    0.910451 0.515543 0.126535 0.280815
H15   H     H_    0.022412 0.409549 0.127608 0.192025
H16   H     H_    0.930597 0.290484 0.315826 0.163411
H17   H     H_    0.788890 0.349586 0.297572 0.214747
C26   C     C_3   0.280450 0.393475 0.133952 -0.345892
C27   C     C_3   0.282350 0.272973 0.218472 -0.247699
C28   C     C_3   0.173673 0.177601 0.194573 -0.955313
H18   H     H_    0.086723 0.220439 0.193532 0.265251
H19   H     H_    0.184442 0.128914 0.096906 0.267195
H20   H     H_    0.169713 0.107504 0.278808 0.248089
H21   H     H_    0.364323 0.230169 0.188243 0.210508
H22   H     H_    0.284635 0.290853 0.329829 0.245442
H23   H     H_    0.237860 0.467547 0.181711 0.187473
H24   H     H_    0.211530 0.377257 0.052586 0.183894
C29   C     C_3   0.342254 0.311621 0.866150 -0.321668
C30   C     C_3   0.218508 0.322442 0.793644 -0.329257
C31   C     C_3   0.118066 0.222260 0.835096 -0.936313
H25   H     H_    0.153019 0.130120 0.834982 0.269493
H26   H     H_    0.080709 0.240539 0.937249 0.271396
H27   H     H_    0.041330 0.221990 0.760254 0.245760
H28   H     H_    0.185644 0.413889 0.811799 0.224523
H29   H     H_    0.231598 0.307740 0.682418 0.233848
H30   H     H_    0.400033 0.263206 0.801785 0.256965
H31   H     H_    0.329097 0.240762 0.948631 0.208187
O9    O     O_3   0.779714 0.672877 0.140947 -0.560201
C32   C     C_3   0.828698 0.796008 0.155751 -0.344325
H32   H     H_    0.770533 0.846373 0.224343 0.163487
H33   H     H_    0.840463 0.844112 0.054175 0.162220
H34   H     H_    0.920199 0.796666 0.204531 0.187235
C33   C     C_3   0.401476 0.879664 0.241432 -0.374814
C34   C     C_3   0.271427 0.817206 0.259710 -0.319418
C35   C     C_3   0.221809 0.762987 0.124481 -0.868236
H35   H     H_    0.219648 0.836483 0.044471 0.259979
H36   H     H_    0.279956 0.692237 0.088430 0.254907
H37   H     H_    0.127343 0.719371 0.139546 0.232312
H38   H     H_    0.270357 0.742488 0.338467 0.226092
H39   H     H_    0.210312 0.885613 0.295141 0.209965
H40   H     H_    0.398352 0.951713 0.159547 0.203439
H41   H     H_    0.461796 0.814604 0.201487 0.209515
O10   O     O_3   0.511270 0.097244 0.865216 -0.581902
C36   C     C_3   0.596286 0.163466 0.950699 -0.404075
H42   H     H_    0.629901 0.251763 0.899299 0.188645
H43   H     H_    0.673185 0.108392 0.978448 0.176359
H44   H     H_    0.550046 0.185489 0.047030 0.181298

loop_
_geom_bond_atom_site_label_1
_geom_bond_atom_site_label_2
_ccdc_geom_bond_type
C15   O9    S    
C26   C27   S    
Cu2   O6    S    
C32   H34   S    
C34   C35   S    
O10   C36   S    
C29   H30   S    
C7    C8    S    
C25   H12   S    
C20   H6    S    
C23   C24   S    
C21   H7    S    
C11   N2    A    
C32   H33   S    
C4    C33   S    
C5    C6    A    
C28   H19   S    
C6    C22   A    
C24   H15   S    
Cu1   O7    S    
C27   C28   S    
C1    C2    S    
C33   H41   S    
C9    C13   A    
C5    C16   S    
Cu2   O4    S    
C30   H29   S    
C25   H11   S    
C26   H23   S    
C2    C22   A    
Cu2   O2    S    
Cu1   Cu2   S    
C10   N1    A    
C14   H3    S    
C34   H38   S    
C1    O1    A    
C30   C31   S    
C23   H16   S    
C13   C14   S    
C8    H1    S    
C7    H9    S    
C25   H13   S    
Cu2   N1    S    
C31   H25   S    
C32   H32   S    
C13   N2    A    
C36   H42   S    
C18   C19   D    
C28   H20   S    
Cu1   O1    S    
C24   H14   S    
C35   H35   S    
C29   H31   S    
C31   H26   S    
C12   O4    A    
O9    C32   S    
C17   O7    A    
C36   H43   S    
C8    C22   S    
C30   H28   S    
C26   H24   S    
C14   H2    S    
C10   C26   S    
C34   H39   S    
C1    O2    A    
C23   H17   S    
C29   C30   S    
C35   H36   S    
Cu2   O8    S    
C7    H10   S    
C27   H22   S    
C8    O10   S    
C15   H4    S    
C3    C4    A    
C19   H5    S    
C18   C23   S    
C16   O6    A    
C24   C25   S    
C27   H21   S    
C33   C34   S    
C6    C7    S    
C35   H37   S    
Cu1   O5    S    
C31   H27   S    
C12   O3    A    
C2    C3    A    
C9    C15   S    
C17   O8    A    
C33   H40   S    
C36   H44   S    
C28   H18   S    
Cu1   O3    S    
C12   C21   S    
C17   C19   S    
C18   C20   S    
C3    H8    S    
C10   C11   A    
C4    C5    A    
C20   C21   D    
Cu1   N2    S    
C9    N1    A    
C14   C15   S    
C16   O5    A    
C11   C29   S    
