data_mof_unit_52982.cif
_audit_creation_date              2013-03-05T15:57:24-0500
_audit_creation_method            fapswitch 2.2
_symmetry_space_group_name_H-M    P1
_symmetry_Int_Tables_number       1
_space_group_crystal_system       triclinic
_cell_length_a                    13.172403
_cell_length_b                    13.119364
_cell_length_c                    15.38081
_cell_angle_alpha                 116.487887
_cell_angle_beta                  63.166056
_cell_angle_gamma                 97.604158
_cell_volume                      2114.88531695

loop_
_atom_site_label
_atom_site_type_symbol
_atom_site_description
_atom_site_fract_x
_atom_site_fract_y
_atom_site_fract_z
_atom_type_partial_charge
C1    C     C_R   0.018959 0.833732 0.037320 -0.125840
H1    H     H_    0.055451 0.896254 0.087345 0.111575
N1    N     N_R   0.037320 0.720000 0.995830 -0.058054
C2    C     C_R   0.702398 0.405646 0.211200 -0.075531
H2    H     H_    0.648176 0.348579 0.179011 0.093839
N2    N     N_R   0.790770 0.446140 0.151990 -0.042940
C3    C     C_R   0.740238 0.571209 0.943015 -0.093922
H3    H     H_    0.748400 0.619766 0.900176 0.139599
N3    N     N_R   0.824900 0.517970 0.936430 -0.054377
C4    C     C_R   0.002986 0.704360 0.307382 -0.063112
H4    H     H_    0.971186 0.675053 0.369841 0.113172
N4    N     N_R   0.003190 0.648180 0.211390 -0.040756
C5    C     C_R   0.662720 0.467448 0.036052 -0.111032
H5    H     H_    0.607178 0.415019 0.072288 0.132848
N5    N     N_R   0.774330 0.457010 0.995830 -0.053914
C6    C     C_R   0.080946 0.806638 0.213069 -0.103072
H6    H     H_    0.122862 0.872242 0.188391 0.079996
N6    N     N_R   0.053760 0.709130 0.151980 -0.038386
C7    C     C_R   0.802959 0.491988 0.304647 -0.094998
H7    H     H_    0.844556 0.515065 0.355703 0.121792
N7    N     N_R   0.853840 0.498830 0.211390 -0.043480
C8    C     C_R   0.931373 0.750331 0.930244 0.213321
N8    N     N_R   0.974250 0.667320 0.936430 -0.063548
C9    C     C_R   0.949137 0.855402 0.000518 0.125603
C10   C     C_R   0.708199 0.431350 0.307479 0.073189
C11   C     C_R   0.638595 0.544540 0.009060 0.205401
C12   C     C_R   0.049841 0.804644 0.310251 0.073663
C13   C     C_R   0.321321 0.578603 0.010351 -0.108122
H8    H     H_    0.366988 0.643184 0.985652 0.079829
N9    N     N_R   0.225670 0.542990 0.004170 -0.035152
C14   C     C_R   0.914893 0.194530 0.790016 -0.155653
H9    H     H_    0.867871 0.132636 0.818019 0.142744
N10   N     N_R   0.946240 0.290870 0.848020 -0.047998
C15   C     C_R   0.217709 0.434235 0.687423 -0.111178
H10   H     H_    0.190955 0.376452 0.628407 0.099700
N11   N     N_R   0.146160 0.501170 0.788610 -0.048451
C16   C     C_R   0.098539 0.252118 0.040839 -0.064596
H11   H     H_    0.162468 0.268315 0.069550 0.183023
N12   N     N_R   0.025750 0.332680 0.063570 -0.061127
C17   C     C_R   0.997638 0.167979 0.948324 -0.169423
H12   H     H_    0.965901 0.104487 0.894444 0.132110
N13   N     N_R   0.962680 0.280000 0.004170 -0.050670
C18   C     C_R   0.319664 0.524637 0.779463 -0.023304
H13   H     H_    0.387646 0.556294 0.802811 0.089485
N14   N     N_R   0.209230 0.553860 0.848010 -0.053132
C19   C     C_R   0.242581 0.478830 0.106270 -0.152498
H14   H     H_    0.219807 0.447589 0.166440 0.154423
N15   N     N_R   0.175100 0.482030 0.063570 -0.048763
C20   C     C_R   0.990393 0.295423 0.695427 -0.055608
N16   N     N_R   0.996810 0.351820 0.788610 -0.076116
Ni1   Ni    Ni4+2 0.130310 0.630310 0.000000 0.231809
Ni2   Ni    Ni4+2 0.869690 0.369690 0.000000 0.215596
Ni3   Ni    Ni4+2 0.985660 0.509480 0.863750 0.240376
Ni4   Ni    Ni4+2 0.014340 0.490520 0.136250 0.238864
C21   C     C_R   0.335278 0.537925 0.072550 0.083262
C22   C     C_R   0.943688 0.195547 0.693736 0.039493
C23   C     C_R   0.327750 0.448435 0.676934 0.108131
C24   C     C_R   0.084139 0.146892 0.968231 0.178125
C25   C     C_R   0.390908 0.858359 0.410901 0.197609
C26   C     C_R   0.274484 0.886995 0.452403 -0.147135
H15   H     H_    0.219472 0.907735 0.536868 0.164123
C27   C     C_R   0.229131 0.894525 0.388179 0.113752
C28   C     C_R   0.302396 0.865750 0.278760 -0.208141
H16   H     H_    0.272305 0.871154 0.226424 0.110631
C29   C     C_R   0.418986 0.838422 0.236874 -0.104518
H17   H     H_    0.473486 0.820402 0.152975 0.161736
C30   C     C_R   0.465017 0.835432 0.302300 -0.052671
C31   C     C_R   0.080229 0.049235 0.535681 -0.192505
H18   H     H_    0.144352 0.090647 0.562974 0.131823
C32   C     C_R   0.967238 0.095257 0.597679 0.152330
C33   C     C_R   0.880235 0.045056 0.569859 0.040479
C34   C     C_R   0.910386 0.952502 0.469681 0.189893
C35   C     C_R   0.024995 0.904093 0.407485 -0.020587
C36   C     C_R   0.110366 0.948753 0.442099 0.010030
C37   C     C_R   0.697545 0.025597 0.716067 -0.040192
C38   C     C_R   0.583294 0.062978 0.790408 -0.206231
H19   H     H_    0.537102 0.019322 0.840742 0.159347
C39   C     C_R   0.529963 0.159413 0.805571 0.052742
C40   C     C_R   0.592796 0.217518 0.741168 -0.054732
C41   C     C_R   0.706492 0.178011 0.664410 -0.223495
H20   H     H_    0.754811 0.222104 0.614948 0.164849
C42   C     C_R   0.758992 0.082082 0.650208 0.129767
H21   H     H_    0.023454 0.571643 0.515477 0.176590
C43   C     C_R   0.932404 0.426376 0.462856 -0.017462
H22   H     H_    0.004948 0.367237 0.424051 0.203770
C44   C     C_R   0.829235 0.386539 0.460568 -0.051334
C45   C     C_R   0.736920 0.467446 0.507762 -0.024768
C46   C     C_R   0.745906 0.584153 0.564419 -0.149737
H23   H     H_    0.674914 0.646652 0.601870 0.141679
C47   C     C_R   0.849222 0.621045 0.566633 -0.085721
H24   H     H_    0.857711 0.710486 0.606754 0.200120
C48   C     C_R   0.942892 0.542554 0.514790 -0.171862
C49   C     C_R   0.536252 0.433905 0.581526 -0.204250
H25   H     H_    0.540616 0.467056 0.657618 0.131988
C50   C     C_R   0.433203 0.404658 0.574902 0.096634
C51   C     C_R   0.435832 0.349323 0.470637 0.066175
C52   C     C_R   0.536269 0.340863 0.380959 -0.187470
H26   H     H_    0.534972 0.301524 0.303054 0.133412
C53   C     C_R   0.629632 0.396762 0.392935 0.044999
C54   C     C_R   0.633581 0.432472 0.492608 0.012488
C55   C     C_R   0.324910 0.196447 0.399369 -0.166278
H27   H     H_    0.368868 0.136341 0.404190 0.145932
C56   C     C_R   0.263032 0.155277 0.338887 -0.178114
H28   H     H_    0.256097 0.065083 0.301191 0.111251
C57   C     C_R   0.216515 0.229076 0.320610 0.024051
C58   C     C_R   0.225475 0.347123 0.370507 -0.159198
H29   H     H_    0.190377 0.406147 0.357485 0.158410
C59   C     C_R   0.282128 0.389914 0.436051 0.222340
C60   C     C_R   0.337885 0.313583 0.445586 -0.019293
C61   C     C_2   0.431499 0.555092 0.096051 0.184003
C62   C     C_2   0.529422 0.569528 0.022246 -0.313415
H30   H     H_    0.532782 0.582297 0.956002 0.121306
C63   C     C_2   0.897342 0.967435 0.033205 -0.166388
H31   H     H_    0.859244 0.974635 0.986485 0.162295
C64   C     C_2   0.886347 0.058784 0.124258 -0.116284
H32   H     H_    0.918512 0.056472 0.177024 0.181408
C65   C     C_2   0.999996 0.344981 0.623689 0.433188
H33   H     H_    0.016286 0.433947 0.643374 0.055367
O1    O     O_2   0.989289 0.285712 0.541359 -0.589331
C66   C     C_2   0.589121 0.806668 0.256056 0.562769
H34   H     H_    0.623166 0.785188 0.298557 0.091491
O2    O     O_2   0.655394 0.806386 0.169166 -0.595481
I1    I     I_    0.447294 0.859297 0.520559 -0.319785
I2    I     I_    0.781850 0.891021 0.413828 -0.390688
C67   C     C_2   0.749904 0.931281 0.714737 0.445978
H35   H     H_    0.695687 0.875486 0.748342 0.029812
O3    O     O_2   0.852900 0.917774 0.681258 -0.603232
C68   C     C_2   0.412297 0.201099 0.893832 0.501150
H36   H     H_    0.373340 0.283023 0.918762 0.073152
O4    O     O_2   0.357354 0.144306 0.941977 -0.611328
C69   C     C_2   0.545033 0.319779 0.750628 0.424542
H37   H     H_    0.600990 0.384522 0.735190 0.011552
O5    O     O_2   0.445413 0.330264 0.769997 -0.609825
C70   C     C_2   0.818386 0.261690 0.409896 0.523841
H38   H     H_    0.741377 0.230048 0.401618 0.020727
O6    O     O_2   0.894569 0.192073 0.378813 -0.561860
C71   C     C_2   0.160336 0.180417 0.248278 0.631962
H39   H     H_    0.153868 0.088901 0.211714 -0.015053
O7    O     O_2   0.120510 0.241567 0.228526 -0.639790
I3    I     I_    0.281824 0.569910 0.518944 -0.352268
I4    I     I_    0.407311 0.546934 0.239288 -0.456478
I5    I     I_    0.911837 0.729599 0.794403 -0.472809

loop_
_geom_bond_atom_site_label_1
_geom_bond_atom_site_label_2
_geom_bond_distance
_ccdc_geom_bond_type
C4    C12   1.368108 A    
C25   C26   1.398309 A    
N9    Ni1   1.847546 S    
C28   C29   1.395929 A    
C49   H25   1.078088 S    
C35   C36   1.406849 A    
N1    N8    1.404496 A    
C62   H30   1.085242 S    
C18   H13   1.078046 S    
C39   C68   1.485526 S    
C68   H36   1.079928 S    
C52   H26   1.080262 S    
C3    H3    1.069523 S    
N10   Ni2   1.882041 S    
N15   Ni4   1.886921 S    
H21   C48   1.082239 S    
C71   O7    1.218109 D    
C55   H27   1.083676 S    
C3    C11   1.382786 A    
N9    N15   1.370903 A    
C13   H8    1.081642 S    
C7    N7    1.321239 A    
C38   C39   1.404502 A    
C15   H10   1.061656 S    
C65   O1    1.217345 D    
N7    Ni4   1.886791 S    
C41   H20   1.084652 S    
N12   Ni4   1.850966 S    
C58   H29   1.081764 S    
N14   Ni1   1.882034 S    
C31   C36   1.377408 A    
C64   H32   1.083918 S    
C59   C60   1.409501 A    
C26   C27   1.406374 A    
C1    H1    1.078179 S    
C61   C62   1.339210 D    
N11   Ni3   1.886790 S    
C25   C30   1.411021 A    
C63   H31   1.084356 S    
C10   C53   1.477927 S    
C20   C65   1.465725 S    
C50   C51   1.420568 A    
C6    H6    1.079875 S    
C29   C30   1.405059 A    
C44   C70   1.486805 S    
C19   C21   1.377466 A    
C15   C23   1.380583 A    
C14   N10   1.323834 A    
C32   C33   1.386298 A    
C14   C22   1.358746 A    
C30   C66   1.481493 S    
C16   C24   1.391268 A    
C33   C42   1.483845 S    
C6    C12   1.371841 A    
C17   N13   1.343746 A    
C71   H39   1.085785 S    
C9    C63   1.474824 S    
C55   C56   1.393307 A    
C5    H5    1.076876 S    
C34   I2    2.142175 S    
C52   C53   1.389073 A    
C13   C21   1.368933 A    
C66   O2    1.221194 D    
N6    Ni1   1.882040 S    
N8    Ni3   1.850966 S    
N12   N13   1.404495 A    
C25   I1    2.122861 S    
C19   N15   1.335938 A    
N16   Ni3   1.852115 S    
C17   C24   1.393762 A    
C43   H22   1.067507 S    
C41   C42   1.399501 A    
C59   I3    2.124653 S    
N1    Ni1   1.846285 S    
C39   C40   1.419082 A    
C31   H18   1.086310 S    
C70   O6    1.220534 D    
N10   N16   1.370906 A    
N2    N7    1.404511 A    
C28   H16   1.075417 S    
C26   H15   1.083445 S    
C1    N1    1.341219 A    
C61   I4    2.129375 S    
C37   C38   1.397988 A    
C16   H11   1.074232 S    
C47   C48   1.390750 A    
C53   C54   1.413259 A    
C40   C69   1.477669 S    
C51   C52   1.385639 A    
C8    I5    2.113177 S    
C27   C28   1.403418 A    
N11   N14   1.404512 A    
C56   C57   1.395414 A    
N5    Ni2   1.847546 S    
C38   H19   1.084266 S    
C18   N14   1.333062 A    
C49   C54   1.383797 A    
C4    N4    1.322629 A    
C1    C9    1.389217 A    
C2    N2    1.333221 A    
C17   H12   1.077137 S    
C46   C47   1.392960 A    
C29   H17   1.083012 S    
C22   C32   1.403729 S    
C5    N5    1.311288 A    
C21   C61   1.432929 S    
C67   H35   1.085768 S    
C8    C9    1.391798 A    
C5    C11   1.369289 A    
N3    Ni3   1.886922 S    
C69   H37   1.085046 S    
C2    C10   1.400837 A    
C66   H34   1.081802 S    
C45   C54   1.464076 S    
C57   C58   1.405192 A    
C3    N3    1.335239 A    
C19   H14   1.081498 S    
C44   C45   1.410556 A    
C14   H9    1.080058 S    
C43   C44   1.400006 A    
C34   C35   1.416188 A    
C69   O5    1.219799 D    
C68   O4    1.221845 D    
C37   C42   1.414566 A    
C70   H38   1.084222 S    
C20   C22   1.366291 A    
C51   C60   1.469849 S    
N2    Ni2   1.882032 S    
C7    H7    1.068203 S    
C13   N9    1.314357 A    
N3    N5    1.370904 A    
C33   C34   1.382934 A    
C16   N12   1.339615 A    
C65   H33   1.084978 S    
C47   H24   1.073241 S    
C49   C50   1.397251 A    
C58   C59   1.397074 A    
C15   N11   1.325609 A    
C7    C10   1.382691 A    
C4    H4    1.081557 S    
C18   C23   1.402822 A    
C57   C71   1.475664 S    
C40   C41   1.403109 A    
C2    H2    1.078354 S    
C46   H23   1.083467 S    
C45   C46   1.404526 A    
C6    N6    1.325862 A    
C20   N16   1.324992 A    
C23   C50   1.470126 S    
N4    N6    1.370905 A    
C56   H28   1.073271 S    
C67   O3    1.220125 D    
C31   C32   1.389961 A    
C8    N8    1.348261 A    
C27   C36   1.496078 S    
C43   C48   1.392169 A    
C37   C67   1.482484 S    
C12   C35   1.405905 S    
C55   C60   1.400664 A    
C11   C62   1.420846 S    
N4    Ni4   1.852114 S    
N13   Ni2   1.846285 S    
C63   C64   1.335751 D    
