data_mof_unit_55115.cif
_audit_creation_date              2012-12-11T15:23:48-0500
_audit_creation_method            fapswitch 2.2
_symmetry_space_group_name_H-M    P1
_symmetry_Int_Tables_number       1
_space_group_crystal_system       triclinic
_cell_length_a                    17.264521
_cell_length_b                    24.645371
_cell_length_c                    15.129602
_cell_angle_alpha                 89.666857
_cell_angle_beta                  127.049961
_cell_angle_gamma                 90.526117
_cell_volume                      5137.62082688

loop_
_atom_site_label
_atom_site_type_symbol
_atom_type_description
_atom_site_fract_x
_atom_site_fract_y
_atom_site_fract_z
_atom_type_partial_charge
C1    C     C_R   0.360793 0.345292 0.910222 0.475456
C2    C     C_R   0.690099 0.374172 0.094312 0.440433
C3    C     C_R   0.860793 0.845291 0.910226 0.475581
C4    C     C_R   0.190075 0.874129 0.094334 0.440576
C5    C     C_R   0.357127 0.672041 0.996028 0.106402
C6    C     C_R   0.691859 0.637663 0.008181 0.118736
C7    C     C_R   0.856998 0.171985 0.996011 0.106680
C8    C     C_R   0.191868 0.137655 0.008171 0.118559
C9    C     C_R   0.464773 0.501275 0.289122 0.024120
C10   C     C_R   0.436214 0.502703 0.636621 0.007833
C11   C     C_R   0.964811 0.001272 0.289162 0.024057
C12   C     C_R   0.936176 0.002698 0.636605 0.007789
C13   C     C_R   0.166632 0.501537 0.680399 0.064398
C14   C     C_R   0.799918 0.504221 0.377672 -0.066184
C15   C     C_R   0.666630 0.001542 0.680394 0.064445
C16   C     C_R   0.299939 0.004217 0.377667 -0.066163
C17   C     C_2   0.908252 0.499488 0.589375 0.431758
C18   C     C_2   0.997516 0.475178 0.613452 0.470187
C19   C     C_2   0.408237 0.999524 0.589393 0.431685
C20   C     C_2   0.497548 0.975218 0.613569 0.470276
C21   C     C_2   0.826458 0.513077 0.489795 -0.280534
C22   C     C_2   0.058426 0.506456 0.606117 -0.259070
C23   C     C_2   0.326447 0.013078 0.489777 -0.280358
C24   C     C_2   0.558421 0.006458 0.606117 -0.259281
C25   C     C_R   0.331948 0.768686 0.964737 -0.192869
C26   C     C_R   0.810594 0.709776 0.103524 -0.200813
C27   C     C_R   0.831190 0.268554 0.963799 -0.192773
C28   C     C_R   0.310856 0.209657 0.103645 -0.200752
C29   C     C_R   0.792769 0.315813 0.970541 -0.025589
C30   C     C_R   0.358351 0.253349 0.100637 -0.045395
C31   C     C_R   0.293448 0.815917 0.971458 -0.025864
C32   C     C_R   0.858097 0.753462 0.100520 -0.045453
C33   C     C_R   0.737234 0.312848 0.009112 0.143987
C34   C     C_R   0.361613 0.260812 0.011190 0.100583
C35   C     C_R   0.237211 0.812837 0.009107 0.144324
C36   C     C_R   0.861557 0.760849 0.011200 0.100539
C37   C     C_R   0.717496 0.263726 0.038595 -0.121001
C38   C     C_R   0.325616 0.220236 0.930453 -0.121256
C39   C     C_R   0.216888 0.763643 0.037738 -0.120993
C40   C     C_R   0.825721 0.720224 0.930590 -0.121160
C41   C     C_R   0.255357 0.716742 0.031945 0.477712
C42   C     C_R   0.776966 0.675548 0.933063 0.457183
C43   C     C_R   0.755919 0.216806 0.032824 0.477506
C44   C     C_R   0.276876 0.175554 0.932932 0.457065
C45   C     C_R   0.429638 0.645681 0.089908 -0.038563
C46   C     C_R   0.600284 0.625365 0.912526 -0.069197
C47   C     C_R   0.929573 0.145653 0.089900 -0.038242
C48   C     C_R   0.100281 0.125364 0.912521 -0.069149
C49   C     C_R   0.312971 0.719779 0.995722 -0.068114
C50   C     C_R   0.764006 0.672518 0.016431 -0.021376
C51   C     C_R   0.812866 0.219735 0.995718 -0.068025
C52   C     C_R   0.264066 0.172470 0.016420 -0.021248
C53   C     C_R   0.355191 0.516418 0.437191 0.423559
C54   C     C_R   0.362522 0.515908 0.350261 0.414696
C55   C     C_R   0.855232 0.016495 0.437219 0.423421
C56   C     C_R   0.862575 0.015975 0.350301 0.415000
C57   C     C_R   0.452070 0.502754 0.373654 -0.092426
C58   C     C_R   0.437522 0.503360 0.543735 -0.083760
C59   C     C_R   0.952090 0.002743 0.373682 -0.092575
C60   C     C_R   0.937504 0.003345 0.543735 -0.083783
C61   C     C_R   0.533400 0.490776 0.480468 -0.096531
C62   C     C_R   0.525945 0.490776 0.565458 -0.112786
C63   C     C_R   0.033364 0.990668 0.480471 -0.096403
C64   C     C_R   0.025885 0.990658 0.565443 -0.112496
C65   C     C_R   0.488872 0.455235 0.259289 0.498529
C66   C     C_R   0.444000 0.456580 0.692356 0.520582
C67   C     C_R   0.988889 0.955234 0.259306 0.498428
C68   C     C_R   0.943967 0.956578 0.692348 0.520817
C69   C     C_R   0.228767 0.545814 0.726058 -0.160509
C70   C     C_R   0.755055 0.546528 0.304180 -0.196046
C71   C     C_R   0.728768 0.045817 0.726041 -0.160631
C72   C     C_R   0.255069 0.046526 0.304174 -0.196138
C73   C     C_R   0.489632 0.546033 0.257110 -0.146946
C74   C     C_R   0.456278 0.546562 0.701183 -0.144809
C75   C     C_R   0.989660 0.046032 0.257142 -0.146689
C76   C     C_R   0.956261 0.046559 0.701172 -0.144676
C77   C     C_R   0.226076 0.455580 0.719715 0.554660
C78   C     C_R   0.748899 0.458081 0.313953 0.589827
C79   C     C_R   0.726068 0.955581 0.719722 0.554837
C80   C     C_R   0.248917 0.958075 0.313945 0.589417
C81   C     C_R   0.336898 0.645894 0.904709 -0.083716
C82   C     C_R   0.693140 0.622975 0.097379 -0.119272
C83   C     C_R   0.836833 0.145866 0.904698 -0.084310
C84   C     C_R   0.193143 0.122970 0.097371 -0.119175
C85   C     C_R   0.455231 0.345986 0.092094 0.460680
C86   C     C_R   0.597551 0.372528 0.910974 0.437942
C87   C     C_R   0.955233 0.845988 0.092098 0.460763
C88   C     C_R   0.097602 0.872555 0.911006 0.438107
C89   C     C_R   0.393385 0.314215 0.002353 -0.223173
C90   C     C_R   0.687088 0.359098 0.005313 -0.254232
C91   C     C_R   0.893403 0.814218 0.002361 -0.223321
C92   C     C_R   0.187112 0.859100 0.005353 -0.254557
N1    N     N_R   0.395440 0.396300 0.944370 -0.130498
N2    N     N_R   0.604560 0.396300 0.055630 -0.117103
N3    N     N_R   0.895440 0.896300 0.944370 -0.130494
N4    N     N_R   0.104560 0.896300 0.055630 -0.117187
N5    N     N_R   0.449890 0.602500 0.055780 -0.049952
N6    N     N_R   0.550110 0.602500 0.944220 -0.058448
N7    N     N_R   0.949890 0.102500 0.055780 -0.050019
N8    N     N_R   0.050110 0.102500 0.944220 -0.058436
N9    N     N_R   0.525090 0.470990 0.205640 -0.096593
N10   N     N_R   0.474910 0.470990 0.794360 -0.115236
N11   N     N_R   0.025090 0.970990 0.205640 -0.096562
N12   N     N_R   0.974910 0.970990 0.794360 -0.115218
N13   N     N_R   0.320240 0.527820 0.794510 -0.081034
N14   N     N_R   0.679760 0.527820 0.205490 -0.079828
N15   N     N_R   0.820240 0.027820 0.794510 -0.081027
N16   N     N_R   0.179760 0.027820 0.205490 -0.079820
N17   N     N_R   0.524580 0.527810 0.205160 -0.087779
N18   N     N_R   0.475420 0.527810 0.794840 -0.085008
N19   N     N_R   0.024580 0.027810 0.205160 -0.087806
N20   N     N_R   0.975420 0.027810 0.794840 -0.085046
N21   N     N_R   0.320750 0.470990 0.794990 -0.109601
N22   N     N_R   0.679250 0.470990 0.205010 -0.107690
N23   N     N_R   0.820750 0.970990 0.794990 -0.109609
N24   N     N_R   0.179250 0.970990 0.205010 -0.107734
N25   N     N_R   0.393580 0.602500 0.942610 -0.048779
N26   N     N_R   0.606420 0.602500 0.057390 -0.052388
N27   N     N_R   0.893580 0.102500 0.942610 -0.048756
N28   N     N_R   0.106420 0.102500 0.057390 -0.052365
N29   N     N_R   0.451750 0.396300 0.057540 -0.125276
N30   N     N_R   0.548250 0.396300 0.942460 -0.112499
N31   N     N_R   0.951750 0.896300 0.057540 -0.125311
N32   N     N_R   0.048250 0.896300 0.942460 -0.112526
Ni1   Ni    Ni4+2 0.435420 0.434250 0.870220 0.344847
Ni2   Ni    Ni4+2 0.564580 0.434250 0.129780 0.340141
Ni3   Ni    Ni4+2 0.935420 0.934250 0.870220 0.344798
Ni4   Ni    Ni4+2 0.064580 0.934250 0.129780 0.340105
Ni5   Ni    Ni4+2 0.563400 0.564580 0.128670 0.211243
Ni6   Ni    Ni4+2 0.436600 0.564580 0.871330 0.229607
Ni7   Ni    Ni4+2 0.063400 0.064580 0.128670 0.211285
Ni8   Ni    Ni4+2 0.936600 0.064580 0.871330 0.229603
Cl1   Cl    Cl    0.349847 0.316478 0.797374 -0.467833
Cl2   Cl    Cl    0.780678 0.352809 0.230234 -0.495086
Cl3   Cl    Cl    0.849840 0.816463 0.797379 -0.467997
Cl4   Cl    Cl    0.280453 0.852603 0.230190 -0.494659
H1    H     H_    0.770216 0.532478 0.490033 0.191465
H2    H     H_    0.030499 0.544887 0.562525 0.133824
H3    H     H_    0.270168 0.032469 0.489960 0.191482
H4    H     H_    0.530472 0.044856 0.562426 0.133843
H5    H     H_    0.376893 0.770089 0.936866 0.167551
H6    H     H_    0.802612 0.708842 0.169165 0.157469
H7    H     H_    0.875579 0.269873 0.935192 0.167512
H8    H     H_    0.303033 0.208678 0.169405 0.157460
H9    H     H_    0.804842 0.354083 0.944839 0.161179
H10   H     H_    0.385057 0.283767 0.164457 0.194848
H11   H     H_    0.306040 0.854259 0.946488 0.161145
H12   H     H_    0.884680 0.783927 0.164233 0.194738
H13   H     H_    0.670477 0.261958 0.063752 0.197318
H14   H     H_    0.332953 0.223062 0.864747 0.226243
H15   H     H_    0.169418 0.761815 0.062273 0.196904
H16   H     H_    0.833215 0.723011 0.864998 0.226164
Cl5   Cl    Cl    0.227456 0.654984 0.066883 -0.488837
Cl6   Cl    Cl    0.733618 0.624971 0.831181 -0.579886
Cl7   Cl    Cl    0.728690 0.155152 0.068810 -0.489140
Cl8   Cl    Cl    0.233379 0.125032 0.830916 -0.579964
Cl9   Cl    Cl    0.244428 0.532160 0.413356 -0.474664
Cl10  Cl    Cl    0.260687 0.530168 0.213497 -0.416176
Cl11  Cl    Cl    0.744519 0.032361 0.413406 -0.474825
Cl12  Cl    Cl    0.760776 0.030292 0.213556 -0.416040
H17   H     H_    0.602461 0.481209 0.497554 0.187111
H18   H     H_    0.589236 0.481183 0.648587 0.179450
H19   H     H_    0.102398 0.981028 0.497547 0.187226
H20   H     H_    0.089131 0.980987 0.648547 0.179441
H21   H     H_    0.470247 0.660010 0.174287 0.116212
H22   H     H_    0.572070 0.634172 0.828198 0.151541
H23   H     H_    0.970175 0.159989 0.174272 0.116326
H24   H     H_    0.072055 0.134168 0.828188 0.151629
Cl13  Cl    Cl    0.486469 0.389876 0.303864 -0.544738
Cl14  Cl    Cl    0.362916 0.402624 0.617138 -0.402293
Cl15  Cl    Cl    0.986449 0.889873 0.303848 -0.544840
Cl16  Cl    Cl    0.862866 0.902625 0.617164 -0.402516
H25   H     H_    0.207876 0.587885 0.708540 0.149530
H26   H     H_    0.757891 0.587894 0.329806 0.151777
H27   H     H_    0.707880 0.087889 0.708497 0.149532
H28   H     H_    0.257910 0.087891 0.329805 0.151803
H29   H     H_    0.488376 0.587804 0.277097 0.159486
H30   H     H_    0.446424 0.588671 0.676382 0.163042
H31   H     H_    0.988416 0.087802 0.277144 0.159647
H32   H     H_    0.946412 0.088667 0.676371 0.163123
Cl17  Cl    Cl    0.185537 0.393983 0.647754 -0.401464
Cl18  Cl    Cl    0.732953 0.403628 0.377642 -0.442405
Cl19  Cl    Cl    0.685482 0.893964 0.647891 -0.401809
Cl20  Cl    Cl    0.232969 0.903630 0.377643 -0.442441
H33   H     H_    0.292295 0.660221 0.820110 0.120550
H34   H     H_    0.752450 0.627362 0.184158 0.122810
H35   H     H_    0.792228 0.160195 0.820100 0.120542
H36   H     H_    0.252459 0.127341 0.184148 0.122741
Cl21  Cl    Cl    0.563384 0.317382 0.206892 -0.448355
Cl22  Cl    Cl    0.548167 0.341801 0.782823 -0.506968
Cl23  Cl    Cl    0.063355 0.817376 0.206922 -0.447985
Cl24  Cl    Cl    0.048349 0.841966 0.782789 -0.507296
Cl25  Cl    Cl    0.911330 0.513867 0.705555 -0.466022
Cl26  Cl    Cl    0.038260 0.417312 0.699515 -0.459373
Cl27  Cl    Cl    0.411233 0.013942 0.705504 -0.466192
Cl28  Cl    Cl    0.538390 0.917438 0.699842 -0.459610

loop_
_geom_bond_atom_site_label_1
_geom_bond_atom_site_label_2
_ccdc_geom_bond_type
C25   C31   A    
N14   Ni5   S    
C7    C83   A    
C55   C56   A    
C79   Cl19  S    
C26   C32   A    
C6    C82   A    
C79   N23   A    
C27   C29   A    
N28   Ni7   S    
C10   C74   A    
C66   N10   A    
C17   Cl25  S    
C19   C20   S    
C16   C72   A    
C65   N9    A    
C64   H20   S    
N10   Ni1   S    
C83   H35   S    
C11   C59   S    
N23   Ni3   S    
C39   C41   A    
C53   C54   A    
C24   H4    S    
C19   Cl27  S    
C12   C68   A    
N4    Ni4   S    
C2    Cl2   S    
C10   C66   A    
C69   H25   S    
N14   N22   A    
C61   H17   S    
C32   C36   A    
C14   C21   S    
N13   N21   A    
C10   C58   S    
N1    N29   A    
C87   C91   A    
C26   C50   A    
C29   H9    S    
N22   Ni2   S    
C1    Cl1   S    
N21   Ni1   S    
N9    N17   A    
C81   N25   A    
C14   C78   A    
C47   N7    A    
C40   H16   S    
C3    C91   A    
C83   N27   A    
C2    C90   A    
N16   Ni7   S    
C4    N4    A    
C41   C49   A    
C15   C79   A    
C88   C92   A    
C29   C33   A    
C27   C51   A    
C74   H30   S    
C47   H23   S    
C86   N30   A    
C77   Cl17  S    
C85   N29   A    
N8    N28   A    
C21   H1    S    
N5    Ni5   S    
C75   H31   S    
C8    C52   S    
C46   H22   S    
C88   N32   A    
C4    Cl4   S    
C73   H29   S    
C35   C92   S    
C44   C52   A    
C55   Cl11  S    
C46   N6    A    
N24   Ni4   S    
C34   C38   A    
C55   C60   A    
C76   N20   A    
C14   C70   A    
C5    C49   S    
C78   N22   A    
C9    C73   A    
C77   N21   A    
C81   H33   S    
C1    C89   A    
C11   C67   A    
C72   N16   A    
C30   H10   S    
C41   Cl5   S    
N2    Ni2   S    
C48   N8    A    
C13   C77   A    
C86   Cl22  S    
C3    Cl3   S    
N4    N32   A    
C67   N11   A    
C44   Cl8   S    
C20   C24   D    
C2    N2    A    
C18   Cl26  S    
C43   Cl7   S    
C86   C90   A    
N12   N20   A    
C69   N13   A    
C19   C23   D    
C67   Cl15  S    
C5    C45   A    
N20   Ni8   S    
C65   Cl13  S    
C16   C80   A    
C7    C47   A    
C37   C43   A    
C35   C39   A    
C8    C48   A    
C38   C44   A    
N11   Ni4   S    
C54   Cl10  S    
C5    C81   A    
C27   H7    S    
C48   H24   S    
C36   C40   A    
C84   N28   A    
N6    Ni6   S    
C9    C65   A    
C17   C18   S    
C23   H3    S    
C75   N19   A    
C6    C50   S    
C73   N17   A    
N25   Ni6   S    
C70   H26   S    
N15   N23   A    
C58   C62   A    
C42   C50   A    
N32   Ni3   S    
C28   H8    S    
N2    N30   A    
C36   C91   S    
N19   Ni7   S    
C15   C24   S    
N1    Ni1   S    
C82   H34   S    
C16   C23   S    
C12   C76   A    
C70   N14   A    
C31   C35   A    
C84   H36   S    
C82   N26   A    
N9    Ni2   S    
C45   H21   S    
C87   Cl23  S    
C7    C51   S    
N3    N31   A    
C88   Cl24  S    
C30   C34   A    
C72   H28   S    
C85   C89   A    
C6    C46   A    
C42   Cl6   S    
C71   N15   A    
C18   C22   D    
C59   C63   A    
C66   Cl14  S    
C80   N24   A    
C68   N12   A    
C37   H13   S    
N15   Ni8   S    
C76   H32   S    
N27   Ni8   S    
C74   N18   A    
C3    N3    A    
C53   C58   A    
N8    Ni8   S    
C57   C61   A    
N13   Ni6   S    
C32   H12   S    
N11   N19   A    
C15   C71   A    
C22   H2    S    
C53   Cl9   S    
C56   C59   A    
N7    Ni7   S    
C33   C37   A    
C60   C64   A    
N16   N24   A    
C63   H19   S    
C28   C30   A    
C34   C89   S    
C31   H11   S    
N29   Ni2   S    
C56   Cl12  S    
N26   Ni5   S    
C11   C75   A    
C33   C90   S    
C87   N31   A    
C28   C52   A    
C43   C51   A    
N31   Ni4   S    
C62   H18   S    
N12   Ni3   S    
C13   C69   A    
N30   Ni1   S    
N6    N26   A    
C40   C42   A    
C71   H27   S    
C13   C22   S    
N18   Ni6   S    
C9    C57   S    
C80   Cl20  S    
N5    N25   A    
C61   C62   A    
C39   H15   S    
C25   C49   A    
N10   N18   A    
N7    N27   A    
C63   C64   A    
C12   C60   S    
N3    Ni3   S    
C1    N1    A    
C25   H5    S    
C8    C84   A    
C38   H14   S    
C45   N5    A    
C78   Cl18  S    
C26   H6    S    
N17   Ni5   S    
C85   Cl21  S    
C20   Cl28  S    
C68   Cl16  S    
C4    C92   A    
C54   C57   A    
C17   C21   D    
