data_mof_unit_55683.cif
_audit_creation_date              2012-12-10T21:00:48-0500
_audit_creation_method            fapswitch 2.2
_symmetry_space_group_name_H-M    P1
_symmetry_Int_Tables_number       1
_space_group_crystal_system       triclinic
_cell_length_a                    18.090255
_cell_length_b                    18.276549
_cell_length_c                    18.353272
_cell_angle_alpha                 120.125274
_cell_angle_beta                  89.747305
_cell_angle_gamma                 120.008262
_cell_volume                      4291.53705878

loop_
_atom_site_label
_atom_site_type_symbol
_atom_type_description
_atom_site_fract_x
_atom_site_fract_y
_atom_site_fract_z
_atom_type_partial_charge
C1    C     C_R   0.111854 0.220146 0.609750 0.516748
C2    C     C_3   0.451001 0.897544 0.948540 0.021990
C3    C     C_3   0.584001 0.002873 0.173014 -0.056386
C4    C     C_3   0.444511 0.031692 0.010229 -0.122952
C5    C     C_3   0.555674 0.968864 0.989704 -0.140551
C6    C     C_3   0.412569 0.437683 0.448697 -0.097005
C7    C     C_3   0.587481 0.561603 0.551168 -0.077814
C8    C     C_3   0.476602 0.404224 0.443016 0.193305
C9    C     C_3   0.523558 0.595167 0.556895 0.250606
C10   C     C_3   0.550868 0.499801 0.448931 -0.010216
C11   C     C_3   0.449192 0.499658 0.551026 -0.013824
C12   C     C_3   0.488215 0.534939 0.454749 -0.115287
C13   C     C_R   0.889119 0.779956 0.390549 0.540132
C14   C     C_3   0.511827 0.464429 0.545169 -0.155328
C15   C     C_R   0.117584 0.178066 0.836926 -0.107581
C16   C     C_R   0.901827 0.842090 0.169757 -0.094148
C17   C     C_R   0.393100 0.781258 0.888734 0.539926
C18   C     C_R   0.606934 0.218870 0.111140 0.558296
C19   C     C_R   0.101694 0.128066 0.745357 -0.180312
C20   C     C_R   0.918480 0.891141 0.261348 -0.110405
C21   C     C_R   0.028575 0.104585 0.690129 0.092685
C22   C     C_R   0.980980 0.896923 0.312645 0.101585
C23   C     C_R   0.971381 0.132846 0.727518 0.307682
C24   C     C_3   0.985129 0.431836 0.412986 -0.167874
C25   C     C_R   0.028129 0.853765 0.271737 0.269425
C26   C     C_R   0.986724 0.181229 0.819875 -0.040651
C27   C     C_R   0.013187 0.807731 0.179597 -0.035381
C28   C     C_R   0.061179 0.207384 0.875511 0.278305
C29   C     C_R   0.947657 0.797614 0.127605 0.275763
C30   C     C_R   0.958185 0.945293 0.538062 0.246929
C31   C     C_R   0.052069 0.054815 0.464715 0.237562
C32   C     C_R   0.947830 0.892445 0.446344 -0.005550
C33   C     C_R   0.059357 0.107833 0.555497 -0.017664
C34   C     C_R   0.994855 0.947617 0.409633 -0.018555
C35   C     C_3   0.014449 0.567168 0.586789 -0.164755
C36   C     C_R   0.015070 0.052743 0.593048 -0.016942
C37   C     C_R   0.693811 0.718122 0.890410 0.249452
C38   C     C_R   0.306083 0.282081 0.109515 0.246295
C39   C     C_R   0.628741 0.637661 0.895879 -0.162275
C40   C     C_R   0.369063 0.361724 0.102115 -0.176024
C41   C     C_R   0.110171 0.500079 0.888861 0.489809
C42   C     C_R   0.889388 0.499468 0.110722 0.485569
C43   C     C_R   0.597405 0.658174 0.969011 0.003608
C44   C     C_R   0.402529 0.340813 0.030437 0.015467
C45   C     C_R   0.628798 0.760781 0.036639 0.240788
C46   C     C_3   0.454535 0.965822 0.921481 0.273614
C47   C     C_R   0.374858 0.239261 0.965881 0.247901
C48   C     C_R   0.694490 0.841151 0.032158 -0.135994
C49   C     C_R   0.313791 0.159730 0.974134 -0.146027
C50   C     C_R   0.728833 0.821799 0.960901 0.192411
C51   C     C_R   0.275898 0.178931 0.042774 0.202757
C52   C     C_R   0.593013 0.572721 0.037584 -0.122519
C53   C     C_R   0.407073 0.424531 0.959809 -0.145907
C54   C     C_R   0.549576 0.497672 0.054704 0.039344
C55   C     C_R   0.450508 0.499655 0.942743 0.013928
C56   C     C_R   0.455240 0.422682 0.015831 0.019650
C57   C     C_3   0.545613 0.034897 0.078428 0.277560
C58   C     C_R   0.544859 0.574762 0.981833 0.001783
C59   C     C_R   0.108542 0.770085 0.932105 -0.025624
C60   C     C_R   0.893919 0.228945 0.067196 -0.030760
C61   C     C_R   0.097083 0.714890 0.967989 -0.038668
C62   C     C_R   0.903943 0.283230 0.030695 -0.042478
C63   C     C_R   0.021822 0.611923 0.924229 0.063397
C64   C     C_R   0.977295 0.387215 0.074974 0.063721
C65   C     C_R   0.392358 0.499914 0.607896 0.550353
C66   C     C_R   0.607664 0.499933 0.392088 0.562754
C67   C     C_R   0.957121 0.565592 0.845553 -0.078049
C68   C     C_3   0.558743 0.037385 0.961478 -0.154838
C69   C     C_R   0.041252 0.435771 0.155134 -0.080925
C70   C     C_R   0.968128 0.621730 0.810704 -0.077388
C71   C     C_R   0.031648 0.380655 0.190688 -0.076135
C72   C     C_R   0.043998 0.723617 0.853594 -0.037224
C73   C     C_R   0.957861 0.277548 0.147039 -0.034988
C74   C     C_R   0.957120 0.549431 0.014398 -0.163350
C75   C     C_R   0.040202 0.447607 0.983069 -0.164410
C76   C     C_R   0.945256 0.497371 0.053585 0.009934
C77   C     C_R   0.053121 0.500893 0.944885 0.010421
C78   C     C_R   0.986939 0.445084 0.037216 -0.035664
C79   C     C_3   0.441436 0.963195 0.038420 -0.146208
C80   C     C_R   0.011124 0.552831 0.960965 -0.035532
C81   C     C_R   0.394252 0.499663 0.888000 0.488839
C82   C     C_R   0.605746 0.499416 0.111126 0.519594
C83   C     C_R   0.108771 0.499811 0.607884 0.598711
C84   C     C_R   0.891109 0.499974 0.392120 0.600231
C85   C     C_3   0.078393 0.527503 0.484781 0.206520
C86   C     C_3   0.921209 0.471502 0.514999 0.206761
C87   C     C_3   0.041642 0.594109 0.519124 0.239395
C88   C     C_3   0.958076 0.404922 0.480722 0.224807
C89   C     C_3   0.948523 0.499575 0.448634 -0.048210
C90   C     C_3   0.549012 0.102823 0.051173 0.031249
C91   C     C_3   0.051115 0.499620 0.551214 -0.051402
C92   C     C_3   0.164003 0.338250 0.017778 -0.094801
C93   C     C_3   0.842002 0.673469 0.987209 -0.097714
C94   C     C_3   0.907962 0.198306 0.694623 -0.075559
C95   C     C_3   0.074637 0.768788 0.294831 -0.084934
C96   C     C_3   0.951793 0.880197 0.619801 -0.024505
C97   C     C_3   0.183308 0.133214 0.438610 -0.038023
C98   C     C_3   0.515459 0.756868 0.093957 -0.107884
C99   C     C_3   0.342632 0.156553 0.815086 -0.136865
C100  C     C_3   0.425095 0.002162 0.826458 -0.074560
H1    H     H_    0.173161 0.192469 0.877044 0.102190
H2    H     H_    0.294141 0.081914 0.925287 0.156990
H3    H     H_    0.665511 0.631064 0.067821 0.141324
H4    H     H_    0.334500 0.366791 0.930115 0.125858
H5    H     H_    0.052703 0.766294 0.825764 0.180092
H6    H     H_    0.950285 0.235549 0.175288 0.184333
H7    H     H_    0.167692 0.848638 0.965081 0.181336
H8    H     H_    0.836419 0.149389 0.033660 0.181008
H9    H     H_    0.147404 0.751511 0.028846 0.105112
H10   H     H_    0.854133 0.244952 0.968778 0.105410
H11   H     H_    0.898483 0.486385 0.811461 0.124978
H12   H     H_    0.854072 0.840121 0.132254 0.127747
H13   H     H_    0.098345 0.515861 0.189733 0.119987
H14   H     H_    0.918041 0.586354 0.750394 0.192922
H15   H     H_    0.081272 0.417735 0.252067 0.192657
H16   H     H_    0.924202 0.588069 0.025379 0.161399
H17   H     H_    0.072303 0.408029 0.971349 0.162168
H18   H     H_    0.972580 0.375926 0.341931 0.162326
H19   H     H_    0.026938 0.623005 0.657854 0.162522
H20   H     H_    0.606536 0.068665 0.930276 0.125676
H21   H     H_    0.394012 0.932202 0.070012 0.131946
H22   H     H_    0.399460 0.057815 0.017792 0.159409
H23   H     H_    0.146053 0.106699 0.716972 0.100781
H24   H     H_    0.600693 0.942680 0.981994 0.155577
H25   H     H_    0.340040 0.386898 0.408877 0.208895
H26   H     H_    0.660011 0.612399 0.591054 0.210529
H27   H     H_    0.480884 0.565565 0.418248 0.191576
H28   H     H_    0.518853 0.433485 0.581469 0.169188
H29   H     H_    0.229471 0.864857 0.627792 0.345976
H30   H     H_    0.774163 0.131929 0.368035 0.360598
H31   H     H_    0.195508 0.386070 0.991534 0.103322
H32   H     H_    0.203342 0.309189 0.022785 0.134806
H33   H     H_    0.167293 0.389644 0.086348 0.175149
H34   H     H_    0.882330 0.924554 0.292571 0.156278
H35   H     H_    0.807436 0.708886 0.986167 0.131380
H36   H     H_    0.807714 0.624896 0.012328 0.104081
H37   H     H_    0.835203 0.621142 0.917303 0.179560
H38   H     H_    0.975289 0.254143 0.696935 0.131879
H39   H     H_    0.896310 0.235626 0.758890 0.101255
H40   H     H_    0.856151 0.177346 0.642181 0.189534
H41   H     H_    0.085950 0.732502 0.230176 0.104653
H42   H     H_    0.004850 0.715947 0.290448 0.140136
H43   H     H_    0.121668 0.780422 0.344438 0.188959
H44   H     H_    0.962041 0.928860 0.691849 0.146484
H45   H     H_    0.941120 0.199604 0.848934 0.125031
H46   H     H_    0.018498 0.898848 0.610639 0.132992
H47   H     H_    0.910258 0.798630 0.598046 0.198900
H48   H     H_    0.182793 0.063239 0.396307 0.186940
H49   H     H_    0.221957 0.175508 0.509575 0.079791
H50   H     H_    0.219636 0.185082 0.417304 0.191124
H51   H     H_    0.920801 0.906227 0.978778 0.379096
H52   H     H_    0.082594 0.088999 0.023103 0.379043
H53   H     H_    0.795316 0.758203 0.731542 0.371827
H54   H     H_    0.204315 0.245087 0.269510 0.382230
H55   H     H_    0.466991 0.675617 0.071123 0.134210
H56   H     H_    0.052275 0.779291 0.147835 0.121564
H57   H     H_    0.497570 0.768567 0.044385 0.102038
H58   H     H_    0.507523 0.805326 0.156553 0.130080
H59   H     H_    0.303898 0.188795 0.816211 0.110837
H60   H     H_    0.296304 0.076055 0.795504 0.118777
H61   H     H_    0.374641 0.153149 0.762836 0.151865
H62   H     H_    0.250024 0.620266 0.388356 0.371826
H63   H     H_    0.751042 0.383308 0.614459 0.370073
H64   H     H_    0.494877 0.039658 0.823676 0.122325
H65   H     H_    0.417431 0.060821 0.880704 0.131705
H66   H     H_    0.378268 0.967971 0.762482 0.172552
H67   H     H_    0.605448 0.558680 0.845244 0.159979
H68   H     H_    0.610461 0.961270 0.127260 0.113428
H69   H     H_    0.511649 0.947980 0.161132 0.094115
H70   H     H_    0.622540 0.039609 0.242087 0.192446
H71   H     H_    0.396629 0.225704 0.449894 0.321402
H72   H     H_    0.482407 0.794910 0.671010 0.379751
H73   H     H_    0.389539 0.440160 0.150289 0.158137
H74   H     H_    0.720774 0.919843 0.086615 0.176161
O1    O     O_3   0.251620 0.500000 0.748430 -0.468766
O2    O     O_R   0.570330 0.268390 0.136490 -0.519391
O3    O     O_R   0.134680 0.268390 0.572240 -0.472791
O4    O     O_R   0.865320 0.731610 0.427760 -0.498786
O5    O     O_R   0.306670 0.731630 0.863510 -0.520393
O6    O     O_R   0.693330 0.268370 0.136490 -0.521253
O7    O     O_R   0.135450 0.439270 0.865360 -0.570124
O8    O     O_R   0.864550 0.560730 0.134640 -0.574628
O9    O     O_R   0.429670 0.560710 0.692610 -0.488121
O10   O     O_R   0.570330 0.439290 0.307390 -0.492171
O11   O     O_R   0.308540 0.439240 0.865360 -0.565631
O12   O     O_3   0.748380 0.500000 0.251570 -0.472006
O13   O     O_R   0.691460 0.560760 0.134640 -0.564226
O14   O     O_R   0.133580 0.439310 0.571150 -0.458440
O15   O     O_R   0.866420 0.560690 0.428850 -0.476932
O16   O     O_R   0.430770 0.560690 0.864590 -0.550202
O17   O     O_R   0.569230 0.439310 0.135410 -0.537037
O18   O     O_R   0.133580 0.560760 0.692610 -0.534867
O19   O     O_R   0.866420 0.439240 0.307390 -0.534856
O20   O     O_2   0.095130 0.717611 0.463088 -0.287004
O21   O     O_2   0.048036 0.766875 0.596009 -0.326222
O22   O     O_3   0.204358 0.794881 0.612557 -0.456180
O23   O     O_R   0.134680 0.560740 0.864590 -0.544997
O24   O     O_2   0.958135 0.236448 0.414492 -0.243494
O25   O     O_2   0.897402 0.282134 0.537838 -0.272427
O26   O     O_3   0.799680 0.200769 0.380389 -0.465049
O27   O     O_3   0.072663 0.255293 0.965959 -0.549429
O28   O     O_3   0.934842 0.750252 0.037078 -0.551055
O29   O     O_3   0.898040 0.107131 0.672304 -0.529813
O30   O     O_3   0.093993 0.866082 0.324281 -0.589949
O31   O     O_3   0.903221 0.892457 0.571690 -0.512850
O32   O     O_3   0.094579 0.107529 0.426941 -0.519007
O33   O     O_2   0.779897 0.943640 0.904436 -0.190945
O34   O     O_R   0.865320 0.439260 0.135410 -0.544933
O35   O     O_2   0.858812 0.026392 0.059308 -0.325238
O36   O     O_3   0.899092 0.914421 0.935714 -0.421339
O37   O     O_2   0.149428 0.974040 0.946045 -0.339259
O38   O     O_2   0.228386 0.059822 0.101823 -0.182232
O39   O     O_3   0.105728 0.083287 0.067486 -0.411422
O40   O     O_2   0.821914 0.701809 0.826910 -0.287660
O41   O     O_2   0.667120 0.572960 0.723493 -0.310413
O42   O     O_3   0.749860 0.757988 0.761889 -0.403583
O43   O     O_2   0.329504 0.428303 0.274257 -0.303403
O44   O     O_2   0.175392 0.295388 0.169225 -0.278623
O45   O     O_R   0.306670 0.439270 0.571150 -0.536800
O46   O     O_3   0.249948 0.245182 0.239455 -0.409801
O47   O     O_3   0.605100 0.785839 0.113262 -0.563469
O48   O     O_3   0.411372 0.219927 0.897448 -0.568789
O49   O     O_2   0.259788 0.646130 0.552126 -0.196739
O50   O     O_2   0.186639 0.470650 0.415800 -0.250941
O51   O     O_3   0.194107 0.609463 0.402659 -0.501209
O52   O     O_2   0.811478 0.527402 0.580663 -0.263566
O53   O     O_2   0.739743 0.350058 0.447635 -0.190571
O54   O     O_3   0.806925 0.393772 0.600242 -0.501143
O55   O     O_3   0.402612 0.922425 0.836019 -0.523541
O56   O     O_R   0.693330 0.560730 0.428850 -0.526452
O57   O     O_3   0.596940 0.080668 0.165021 -0.502763
O58   O     O_2   0.410531 0.240618 0.272581 -0.159843
O59   O     O_2   0.530587 0.277336 0.374763 -0.221597
O60   O     O_3   0.369299 0.195424 0.386759 -0.516657
O61   O     O_2   0.587757 0.757702 0.727550 -0.203842
O62   O     O_2   0.628024 0.794979 0.616552 -0.235356
O63   O     O_3   0.463558 0.725135 0.620657 -0.475241
O64   O     O_R   0.135450 0.268370 0.694460 -0.575833
O65   O     O_R   0.864550 0.731630 0.305540 -0.572894
O66   O     O_R   0.429670 0.731610 0.863510 -0.531945
S1    S     S_3+6 0.096833 0.721566 0.546875 0.051008
S2    S     S_3+6 0.554446 0.723436 0.633942 0.072749
S3    S     S_3+6 0.903837 0.277991 0.454346 0.076835
S4    S     S_3+6 0.817560 0.930140 0.966013 0.061381
S5    S     S_3+6 0.189074 0.070605 0.038835 0.063834
S6    S     S_3+6 0.733890 0.684950 0.798431 0.053826
S7    S     S_3+6 0.264408 0.315480 0.200263 0.056638
S8    S     S_3+6 0.183733 0.563741 0.464676 0.083712
S9    S     S_3+6 0.815806 0.435256 0.534958 0.078240
S10   S     S_3+6 0.447702 0.276733 0.365978 0.074425
Zn1   Zn    Zn3+2 0.207400 0.586780 0.791530 0.975090
Zn2   Zn    Zn3+2 0.792600 0.413220 0.208470 0.978326
Zn3   Zn    Zn3+2 0.208510 0.413230 0.792630 0.885947
Zn4   Zn    Zn3+2 0.791490 0.586770 0.207370 0.903397
Zn5   Zn    Zn3+2 0.383150 0.586740 0.791530 0.982865
Zn6   Zn    Zn3+2 0.616850 0.413260 0.208470 1.018236
Zn7   Zn    Zn3+2 0.207400 0.413250 0.618010 1.050892
Zn8   Zn    Zn3+2 0.792600 0.586750 0.381990 1.037578

loop_
_geom_bond_atom_site_label_1
_geom_bond_atom_site_label_2
_ccdc_geom_bond_type
O52   S9    D    
C38   C40   A    
C52   H3    S    
C95   H43   S    
O20   S1    D    
C99   H59   S    
C82   O17   A    
C27   C29   A    
C94   H40   S    
C57   C79   S    
C13   C32   S    
C35   H19   S    
C92   H33   S    
C75   H17   S    
C54   C82   S    
C93   H36   S    
C61   H9    S    
C24   C89   S    
O60   S10   S    
C88   S3    S    
C15   C28   A    
O25   S3    D    
C13   O65   A    
C12   H27   S    
C4    C46   S    
C70   H14   S    
C21   C36   S    
C79   H21   S    
C5    H24   S    
C8    S10   S    
C10   C66   S    
C74   C76   A    
O15   Zn8   S    
C28   O27   S    
C60   C62   A    
C100  O55   S    
C92   H32   S    
O9    Zn5   S    
O12   Zn4   S    
C50   S4    S    
C41   C77   S    
C40   H73   S    
C57   O57   S    
C11   C14   S    
C86   C88   S    
C87   S1    S    
O2    Zn6   S    
O23   Zn1   S    
C53   H4    S    
O42   S6    S    
C13   O4    A    
C98   O47   S    
C60   C73   A    
C33   C36   A    
C14   H28   S    
C100  H66   S    
O34   Zn2   S    
O19   Zn2   S    
O62   S2    D    
C61   C63   A    
C62   C64   A    
C2    C79   S    
O4    Zn8   S    
C43   C58   S    
C99   H61   S    
C1    O3    A    
O50   S8    D    
C7    C14   S    
O56   Zn8   S    
O11   Zn3   S    
C49   C51   A    
C22   C25   A    
O14   Zn7   S    
O59   S10   D    
C85   S8    S    
C68   C90   S    
C97   H50   S    
C31   C33   A    
C42   O34   A    
O45   Zn7   S    
C97   O32   S    
C55   C81   S    
C24   C85   S    
O12   Zn2   S    
C42   O8    A    
C60   H8    S    
C44   C47   A    
C59   C72   A    
O53   S9    D    
C7    C10   S    
H72   O63   S    
C25   O30   S    
O51   S8    S    
C85   C87   S    
O21   S1    D    
C99   O48   S    
C74   H16   S    
C74   C80   A    
C99   H60   S    
C2    C17   S    
C39   H67   S    
C94   H39   S    
C41   O7    A    
C35   C87   S    
C5    C68   S    
H30   O26   S    
C9    S2    S    
C10   C12   S    
O35   S4    D    
C81   O11   A    
C9    C12   S    
C52   C54   A    
C3    H68   S    
O1    Zn3   S    
C4    C90   S    
C63   C80   S    
C53   C55   A    
C85   C91   S    
C22   C34   S    
C63   C67   A    
C59   C61   A    
C69   C71   A    
C57   C90   S    
O64   Zn3   S    
C71   H15   S    
C18   C90   S    
C98   H58   S    
C83   O18   A    
C92   H31   S    
C4    C79   S    
C100  H64   S    
C3    O57   S    
C49   H2    S    
C65   O45   A    
C3    H70   S    
C3    H69   S    
C1    O64   A    
C6    C8    S    
C38   C51   A    
C45   C48   A    
C95   O30   S    
C30   O31   S    
C25   C27   A    
C2    C46   S    
C37   S6    S    
C1    C33   S    
C23   O29   S    
C100  H65   S    
C32   C34   A    
C23   C26   A    
C26   H45   S    
C15   C19   A    
O61   S2    D    
C46   C68   S    
C96   H44   S    
C75   C77   A    
C44   C56   S    
C82   O13   A    
O1    Zn1   S    
C62   H10   S    
C98   H57   S    
C40   C44   A    
C84   O19   A    
C16   C20   A    
C19   H23   S    
O65   Zn4   S    
C95   H42   S    
C31   C34   A    
C4    H22   S    
C84   O15   A    
O40   S6    D    
C64   C69   A    
C15   H1    S    
O13   Zn4   S    
O39   S5    S    
C93   O28   S    
C24   C88   S    
O26   S3    S    
C52   C58   A    
O1    Zn7   S    
C48   H74   S    
O63   S2    S    
C67   H11   S    
O46   S7    S    
C20   C22   A    
C95   H41   S    
C21   C23   A    
O16   Zn5   S    
O49   S8    D    
C97   H48   S    
C83   O14   A    
C2    C5    S    
O58   S10   D    
C84   C89   S    
H54   O46   S    
H63   O54   S    
C6    C12   S    
C6    C11   S    
H29   O22   S    
C96   H46   S    
C16   H12   S    
C71   C73   A    
O54   S9    S    
C65   O9    A    
C53   C56   A    
C27   H56   S    
C7    C9    S    
C96   H47   S    
C66   O10   A    
C98   H55   S    
O7    Zn3   S    
O66   Zn5   S    
C8    C14   S    
C29   O28   S    
C51   S5    S    
C64   C78   S    
C47   O48   S    
O43   S7    D    
C6    H25   S    
C76   C78   A    
O38   S5    D    
C93   H35   S    
C86   C89   S    
C39   C43   A    
C54   C56   A    
O1    Zn5   S    
C96   O31   S    
C5    C57   S    
O24   S3    D    
C47   C49   A    
O18   Zn1   S    
C83   C91   S    
O12   Zn6   S    
C66   O56   A    
C26   C28   A    
O17   Zn6   S    
O8    Zn4   S    
C30   C36   A    
O22   S1    S    
C41   O23   A    
C67   C70   A    
C45   O47   S    
O44   S7    D    
O37   S5    D    
C87   C89   S    
C16   C29   A    
O36   S4    S    
C37   C39   A    
O33   S4    D    
C68   H20   S    
C30   C32   A    
C37   C50   A    
O6    Zn2   S    
C17   O5    A    
C73   H6    S    
H62   O51   S    
C88   C91   S    
C77   C80   A    
C86   S9    S    
C94   H38   S    
C38   S7    S    
C9    C11   S    
C48   C50   A    
C24   H18   S    
C35   C86   S    
C42   C76   S    
O10   Zn6   S    
C7    H26   S    
H52   O39   S    
C75   C78   A    
C59   H7    S    
C81   O16   A    
C93   H37   S    
O12   Zn8   S    
C18   O6    A    
C31   O32   S    
C17   O66   A    
C69   H13   S    
C72   H5    S    
O41   S6    D    
C8    C10   S    
C55   C58   A    
C97   H49   S    
H51   O36   S    
C70   C72   A    
C94   O29   S    
C20   H34   S    
O5    Zn1   S    
O3    Zn7   S    
C43   C45   A    
H53   O42   S    
C92   O27   S    
C11   C65   S    
C35   C91   S    
C46   O55   S    
C19   C21   A    
H71   O60   S    
C18   O2    A    
