data_mof_unit_19315.cif
_audit_creation_date              2012-12-10T19:00:42-0500
_audit_creation_method            fapswitch 2.2
_symmetry_space_group_name_H-M    P1
_symmetry_Int_Tables_number       1
_space_group_crystal_system       triclinic
_cell_length_a                    15.05289
_cell_length_b                    10.816522
_cell_length_c                    9.537788
_cell_angle_alpha                 90.025773
_cell_angle_beta                  89.940961
_cell_angle_gamma                 90.011059
_cell_volume                      1552.9408292

loop_
_atom_site_label
_atom_site_type_symbol
_atom_type_description
_atom_site_fract_x
_atom_site_fract_y
_atom_site_fract_z
_atom_type_partial_charge
C1    C     C_R   0.498100 0.262311 0.499947 0.798451
C2    C     C_R   0.907364 0.547352 0.385921 0.121445
C3    C     C_R   0.952534 0.396093 0.729418 -0.260938
C4    C     C_R   0.045597 0.392221 0.730410 -0.005328
C5    C     C_R   0.093368 0.445140 0.616909 0.054112
C6    C     C_R   0.046754 0.495788 0.501432 0.044585
C7    C     C_R   0.093198 0.546024 0.385732 0.108813
C8    C     C_R   0.046644 0.595943 0.271940 -0.232304
C9    C     C_R   0.954201 0.596429 0.271914 -0.222911
C10   C     C_R   0.186365 0.451056 0.616217 -0.253990
C11   C     C_R   0.232035 0.498861 0.500431 -0.070800
C12   C     C_R   0.328718 0.499999 0.500093 0.807782
C13   C     C_R   0.185583 0.545202 0.385157 -0.252069
C14   C     C_R   0.488015 0.063706 0.625712 0.114712
C15   C     C_R   0.488799 0.129268 0.499739 -0.095033
C16   C     C_R   0.476787 0.064413 0.373346 -0.222410
C17   C     C_R   0.477065 0.935520 0.373346 -0.222109
C18   C     C_R   0.489295 0.870819 0.499745 -0.095587
C19   C     C_R   0.488373 0.936497 0.625698 0.131144
C20   C     C_3   0.550228 0.930375 0.747884 -0.475716
C21   C     C_3   0.549584 0.070764 0.748187 -0.459456
C22   C     C_R   0.544845 0.589354 0.073586 0.259631
C23   C     C_R   0.498378 0.737723 0.499957 0.800038
C24   C     C_R   0.448998 0.419188 0.074507 -0.076969
C25   C     C_R   0.449036 0.419116 0.925543 -0.078542
C26   C     C_R   0.544678 0.589549 0.926104 0.257927
C27   C     C_3   0.641900 0.615126 0.919725 -0.499130
C28   C     C_3   0.642224 0.613827 0.078564 -0.520240
C29   C     C_R   0.671336 0.500042 0.500082 0.814264
C30   C     C_R   0.814871 0.548265 0.386636 -0.253198
C31   C     C_R   0.768114 0.499432 0.500723 -0.070821
C32   C     C_R   0.813920 0.449912 0.615540 -0.242042
C33   C     C_R   0.906581 0.447854 0.616313 0.090989
C34   C     C_R   0.953612 0.496807 0.501253 0.061332
Cu1   Cu    Cu3+1 0.500000 0.499980 0.640670 0.938334
Cu2   Cu    Cu3+1 0.500000 0.500020 0.359330 0.937731
H1    H     H_    0.779381 0.588927 0.299536 0.143666
H2    H     H_    0.472103 0.887303 0.274097 0.162391
H3    H     H_    0.518112 0.889421 0.842057 0.194571
H4    H     H_    0.615935 0.890354 0.719836 0.193750
H5    H     H_    0.516775 0.110841 0.842292 0.193251
H6    H     H_    0.614960 0.112267 0.720876 0.199708
H7    H     H_    0.409068 0.352207 0.130445 0.138021
H8    H     H_    0.409158 0.352058 0.869677 0.139183
H9    H     H_    0.680655 0.537662 0.873760 0.217552
H10   H     H_    0.656626 0.707613 0.874789 0.190991
H11   H     H_    0.680199 0.534445 0.121572 0.217441
H12   H     H_    0.777413 0.411244 0.703245 0.143082
H13   H     H_    0.657801 0.705282 0.125721 0.192657
H14   H     H_    0.915744 0.356181 0.816173 0.148335
H15   H     H_    0.224193 0.418169 0.705037 0.164715
H16   H     H_    0.221393 0.582840 0.296120 0.155318
H17   H     H_    0.081798 0.634257 0.182755 0.147588
H18   H     H_    0.919330 0.635151 0.182803 0.146003
H19   H     H_    0.471642 0.112539 0.274111 0.159815
N1    N     N_R   0.500570 0.500930 0.147930 -0.186064
N2    N     N_R   0.500570 0.500890 0.852020 -0.186127
O1    O     O_R   0.500000 0.319640 0.618810 -0.584188
O2    O     O_R   0.500010 0.319680 0.381230 -0.586836
O3    O     O_R   0.370250 0.499950 0.618800 -0.585515
O4    O     O_R   0.370260 0.499990 0.381220 -0.587173
O5    O     O_R   0.499990 0.680320 0.618770 -0.576794
O6    O     O_R   0.500000 0.680360 0.381190 -0.587230
O7    O     O_R   0.629740 0.500010 0.618780 -0.587953
O8    O     O_R   0.629750 0.500050 0.381200 -0.581408
C35   C     C_R   0.090195 0.328661 0.849078 0.115057
C36   C     C_R   0.146395 0.227044 0.824390 -0.160749
C37   C     C_R   0.188223 0.167290 0.936262 -0.147582
C38   C     C_R   0.173031 0.206841 0.073678 -0.120114
C39   C     C_R   0.115698 0.305853 0.099447 -0.125099
C40   C     C_R   0.074351 0.366706 0.987776 -0.153802
H20   H     H_    0.158049 0.194570 0.718501 0.129508
H21   H     H_    0.232132 0.089985 0.916435 0.128020
H22   H     H_    0.205228 0.160281 0.160254 0.124122
H23   H     H_    0.103171 0.335035 0.206074 0.147446
H24   H     H_    0.030298 0.443578 0.009157 0.132744

loop_
_geom_bond_atom_site_label_1
_geom_bond_atom_site_label_2
_ccdc_geom_bond_type
C28   H11   S    
C19   C20   S    
Cu2   O2    S    
C7    C8    A    
C26   C27   S    
Cu1   O1    S    
C5    C6    A    
C14   C21   S    
C36   H20   S    
C1    O2    A    
C30   C31   A    
C20   H4    S    
C16   C17   A    
C3    C33   A    
C15   C16   A    
C18   C19   A    
C23   O5    A    
C35   C40   A    
C8    C9    A    
Cu1   O7    S    
C1    C15   S    
Cu2   O6    S    
C27   H9    S    
C23   O6    A    
C35   C36   A    
C29   O7    A    
C22   C28   S    
C32   H12   S    
C25   N2    A    
C10   H15   S    
C25   H8    S    
C3    H14   S    
C17   C18   A    
C36   C37   A    
C24   C25   A    
C20   H3    S    
Cu2   O8    S    
C37   C38   A    
C22   N1    A    
C37   H21   S    
C18   C23   S    
C30   H1    S    
Cu1   O3    S    
Cu1   Cu2   S    
Cu2   N1    S    
C13   H16   S    
C28   H13   S    
C31   C32   A    
C33   C34   A    
C38   H22   S    
C39   C40   A    
C29   O8    A    
C27   H10   S    
C21   H5    S    
Cu2   O4    S    
C39   H23   S    
C14   C19   A    
C4    C5    A    
C8    H17   S    
C11   C12   S    
C6    C7    A    
C24   N1    A    
C2    C30   A    
Cu1   N2    S    
C32   C33   A    
C16   H19   S    
C5    C10   A    
C29   C31   S    
C1    O1    A    
C4    C35   S    
C12   O4    A    
C11   C13   A    
C2    C34   A    
C40   H24   S    
Cu1   O5    S    
C17   H2    S    
C38   C39   A    
C26   N2    A    
C10   C11   A    
C21   H6    S    
C12   O3    A    
C6    C34   A    
C7    C13   A    
C20   C21   S    
C22   C26   A    
C27   C28   S    
C24   H7    S    
C14   C15   A    
C9    H18   S    
C2    C9    A    
C3    C4    A    
