data_mof_unit_14974.cif
_audit_creation_date              2012-12-10T18:12:31-0500
_audit_creation_method            fapswitch 2.2
_symmetry_space_group_name_H-M    P1
_symmetry_Int_Tables_number       1
_space_group_crystal_system       triclinic
_cell_length_a                    9.424
_cell_length_b                    10.729216
_cell_length_c                    17.296574
_cell_angle_alpha                 89.81386
_cell_angle_beta                  87.675961
_cell_angle_gamma                 89.877149
_cell_volume                      1747.44218205

loop_
_atom_site_label
_atom_site_type_symbol
_atom_type_description
_atom_site_fract_x
_atom_site_fract_y
_atom_site_fract_z
_atom_type_partial_charge
C1    C     C_R   0.499744 0.740199 0.500047 0.753264
C2    C     C_R   0.611542 0.442640 0.767006 -0.188413
C3    C     C_R   0.403152 0.466549 0.145309 -0.171880
C4    C     C_R   0.412462 0.440903 0.223942 0.054783
C5    C     C_R   0.618822 0.577958 0.227110 -0.223374
C6    C     C_R   0.612572 0.597275 0.147808 -0.124293
C7    C     C_R   0.505143 0.541154 0.106775 0.116109
C8    C     C_2   0.512779 0.446796 0.977529 -0.078164
C9    C     C_2   0.505870 0.551628 0.022108 -0.052863
C10   C     C_R   0.518857 0.501010 0.265863 -0.052664
C11   C     C_3   0.344506 0.929135 0.500384 -0.384071
C12   C     C_R   0.483964 0.495979 0.649873 0.789729
C13   C     C_3   0.344644 0.071747 0.500198 -0.367649
C14   C     C_3   0.570973 0.927551 0.572975 -0.364912
C15   C     C_3   0.580995 0.928200 0.426916 -0.393611
C16   C     C_3   0.499039 0.878185 0.500080 0.166122
C17   C     C_3   0.499261 0.121850 0.500061 0.154018
C18   C     C_3   0.570816 0.071457 0.573055 -0.396642
C19   C     C_3   0.581513 0.072072 0.427024 -0.358049
C20   C     C_3   0.919846 0.396881 0.450228 -0.180357
C21   C     C_3   0.086627 0.390755 0.454301 -0.154760
C22   C     C_3   0.917973 0.617779 0.467420 -0.179608
C23   C     C_R   0.499869 0.259810 0.500031 0.796158
C24   C     C_3   0.909870 0.483355 0.577527 -0.206695
C25   C     C_3   0.085780 0.615542 0.465699 0.022998
C26   C     C_3   0.077097 0.485264 0.578227 -0.231312
C27   C     C_R   0.516315 0.497455 0.350235 0.849167
C28   C     C_R   0.484474 0.480371 0.733859 -0.028719
C29   C     C_R   0.362617 0.501080 0.781365 -0.188744
C30   C     C_R   0.369895 0.488112 0.861505 -0.102278
C31   C     C_R   0.498695 0.453789 0.893758 0.136511
C32   C     C_R   0.618301 0.429125 0.846247 -0.129908
Cu1   Cu    Cu3+1 0.357600 0.500140 0.499960 0.924060
Cu2   Cu    Cu3+1 0.642400 0.499860 0.500040 0.901099
H1    H     H_    0.263518 0.529156 0.756838 0.131958
H2    H     H_    0.692132 0.654835 0.118265 0.136417
H3    H     H_    0.282866 0.894938 0.552477 0.162733
H4    H     H_    0.290018 0.895771 0.448514 0.150937
H5    H     H_    0.290535 0.106076 0.448149 0.193438
H6    H     H_    0.282809 0.105919 0.552157 0.154486
H7    H     H_    0.513588 0.892426 0.626162 0.158862
H8    H     H_    0.513003 0.106037 0.626167 0.153515
H9    H     H_    0.692436 0.893360 0.425087 0.162886
H10   H     H_    0.530516 0.893948 0.373937 0.155516
H11   H     H_    0.531960 0.107391 0.373907 0.203216
H12   H     H_    0.693173 0.105905 0.425575 0.157834
H13   H     H_    0.682370 0.893111 0.574236 0.162600
H14   H     H_    0.682101 0.105667 0.574577 0.162954
H15   H     H_    0.890804 0.408468 0.388944 0.176673
H16   H     H_    0.875537 0.305821 0.469872 0.136108
H17   H     H_    0.116099 0.300812 0.481547 0.126470
H18   H     H_    0.136015 0.388333 0.395168 0.208742
H19   H     H_    0.876089 0.636787 0.409323 0.173994
H20   H     H_    0.866967 0.558616 0.615941 0.150871
H21   H     H_    0.700029 0.625178 0.258512 0.154539
H22   H     H_    0.869879 0.393813 0.602575 0.138794
H23   H     H_    0.115160 0.398878 0.606607 0.148838
H24   H     H_    0.110280 0.564607 0.614560 0.147361
H25   H     H_    0.880738 0.696998 0.504344 0.115499
H26   H     H_    0.118518 0.694591 0.502405 0.067148
H27   H     H_    0.717847 0.402099 0.870793 0.130673
H28   H     H_    0.321581 0.422075 0.112615 0.109980
H29   H     H_    0.706722 0.423686 0.731782 0.135125
H30   H     H_    0.276670 0.506583 0.898406 0.120115
N1    N     N_3   0.856560 0.499750 0.498270 -0.130847
N2    N     N_3   0.143860 0.496700 0.498910 -0.145185
O1    O     O_R   0.379740 0.682430 0.499960 -0.618965
O2    O     O_R   0.620260 0.682190 0.500020 -0.597331
O3    O     O_R   0.365800 0.500150 0.613560 -0.600455
O4    O     O_R   0.606310 0.499910 0.613620 -0.594856
O5    O     O_R   0.379740 0.317810 0.499980 -0.581152
O6    O     O_R   0.620260 0.317570 0.500040 -0.604358
O7    O     O_R   0.393690 0.500090 0.386380 -0.556866
O8    O     O_R   0.634200 0.499850 0.386440 -0.597653
C33   C     C_2   0.314616 0.345521 0.257950 0.366360
H31   H     H_    0.213827 0.327987 0.231786 0.074178
O9    O     O_2   0.348237 0.280978 0.312526 -0.595609
C34   C     C_2   0.146428 0.644411 0.385207 0.359843
H32   H     H_    0.231927 0.711251 0.377453 0.071926
O10   O     O_2   0.101758 0.593101 0.328160 -0.594742
C35   C     C_2   0.498165 0.680835 0.990298 0.331537
H33   H     H_    0.466244 0.756626 0.028672 0.071644
O11   O     O_2   0.531865 0.705300 0.923071 -0.527618
C36   C     C_2   0.545766 0.320079 0.007947 0.324763
H34   H     H_    0.515977 0.238652 0.975277 0.071487
O12   O     O_2   0.612401 0.305062 0.066361 -0.519435

loop_
_geom_bond_atom_site_label_1
_geom_bond_atom_site_label_2
_ccdc_geom_bond_type
C10   C27   S    
C12   O3    A    
C30   H30   S    
C21   N2    S    
C14   C18   S    
C35   H33   S    
C19   H12   S    
C15   C19   S    
C17   C23   S    
C12   C28   S    
C28   C29   A    
C24   C26   S    
C32   H27   S    
C3    C7    A    
C18   H8    S    
C30   C31   A    
C34   O10   D    
C24   H20   S    
C15   C16   S    
C1    O2    A    
C2    C32   A    
C11   H3    S    
C4    C33   S    
C20   H16   S    
C17   C19   S    
C8    C9    D    
C13   H6    S    
C22   C25   S    
C25   H26   S    
C27   O8    A    
Cu2   O4    S    
Cu1   O3    S    
Cu2   N1    S    
C35   O11   D    
Cu1   N2    S    
Cu1   Cu2   S    
C22   H19   S    
C25   C34   S    
C26   N2    S    
C23   O5    A    
C20   N1    S    
C36   H34   S    
Cu2   O2    S    
C22   H25   S    
C34   H32   S    
C11   H4    S    
C33   H31   S    
C22   N1    S    
C29   C30   A    
C20   H15   S    
C33   O9    D    
C11   C16   S    
C31   C32   A    
C17   C18   S    
C1    C16   S    
C26   H24   S    
C14   H13   S    
C24   N1    S    
Cu2   O8    S    
C14   H7    S    
Cu1   O7    S    
C14   C16   S    
C4    C10   A    
C3    C4    A    
Cu2   O6    S    
C21   H17   S    
C2    H29   S    
Cu1   O1    S    
C3    H28   S    
C7    C9    S    
C12   O4    A    
C8    C36   S    
C8    C31   S    
C23   O6    A    
C5    H21   S    
C25   N2    S    
C36   O12   D    
C18   H14   S    
C15   H10   S    
C19   H11   S    
C6    C7    A    
C24   H22   S    
C29   H1    S    
C13   C17   S    
C15   H9    S    
C5    C10   A    
C11   C13   S    
C5    C6    A    
C1    O1    A    
C6    H2    S    
C26   H23   S    
C13   H5    S    
Cu1   O5    S    
C20   C21   S    
C2    C28   A    
C27   O7    A    
C21   H18   S    
C9    C35   S    
