data_mof_unit_5347.cif
_audit_creation_date              2013-03-05T15:48:31-0500
_audit_creation_method            fapswitch 2.2
_symmetry_space_group_name_H-M    P1
_symmetry_Int_Tables_number       1
_space_group_crystal_system       triclinic
_cell_length_a                    20.128632
_cell_length_b                    7.107023
_cell_length_c                    13.518218
_cell_angle_alpha                 89.999975
_cell_angle_beta                  103.530888
_cell_angle_gamma                 89.99988
_cell_volume                      1880.16804309

loop_
_atom_site_label
_atom_site_type_symbol
_atom_site_description
_atom_site_fract_x
_atom_site_fract_y
_atom_site_fract_z
_atom_type_partial_charge
O1    O     O_R   0.449830 0.506740 0.599960 -0.562656
O2    O     O_R   0.550170 0.006740 0.400040 -0.562651
O3    O     O_R   0.588980 0.179860 0.596720 -0.569842
O4    O     O_R   0.411020 0.679860 0.403280 -0.569831
C1    C     C_R   0.616103 0.344788 0.619862 0.923465
C2    C     C_R   0.383897 0.844788 0.380138 0.923459
O5    O     O_R   0.452740 0.177340 0.612040 -0.599387
O6    O     O_R   0.547260 0.677340 0.387960 -0.599384
O7    O     O_R   0.412960 0.002070 0.415460 -0.604540
O8    O     O_R   0.587040 0.502070 0.584540 -0.604541
C3    C     C_R   0.436841 0.345446 0.638922 0.942556
C4    C     C_R   0.563158 0.845446 0.361078 0.942549
O9    O     O_3   0.487110 0.337570 0.435490 -0.282565
O10   O     O_3   0.512890 0.837570 0.564510 -0.282576
V1    V     V_3+5 0.502390 0.064650 0.511970 1.215286
V2    V     V_3+5 0.497610 0.564650 0.488030 1.215291
C5    C     C_R   0.608324 0.848518 0.107007 -0.127429
C6    C     C_R   0.391676 0.348567 0.892994 -0.127425
H1    H     H_    0.514701 0.858860 0.156962 0.110980
H2    H     H_    0.485300 0.358909 0.843038 0.110979
H3    H     H_    0.691435 0.834910 0.981090 0.126710
H4    H     H_    0.308566 0.334981 0.018912 0.126710
H5    H     H_    0.581921 0.849396 0.027322 0.118110
H6    H     H_    0.418080 0.349469 0.972679 0.118111
C7    C     C_R   0.602809 0.850840 0.283441 -0.097609
C8    C     C_R   0.397191 0.350843 0.716559 -0.097616
C9    C     C_R   0.931777 0.866375 0.318141 -0.170809
C10   C     C_R   0.068223 0.366343 0.681859 -0.170807
C11   C     C_R   0.896379 0.861716 0.394802 -0.091582
C12   C     C_R   0.103620 0.361671 0.605198 -0.091586
C13   C     C_R   0.825273 0.851880 0.370867 -0.126400
C14   C     C_R   0.174727 0.351847 0.629133 -0.126382
C15   C     C_R   0.787409 0.845435 0.268308 0.091130
C16   C     C_R   0.212591 0.345429 0.731693 0.091133
C17   C     C_R   0.824185 0.846911 0.190086 0.107963
C18   C     C_R   0.175816 0.346920 0.809916 0.107954
C19   C     C_R   0.714395 0.842347 0.240715 0.066363
C20   C     C_R   0.285606 0.342351 0.759286 0.066366
C21   C     C_R   0.680013 0.842566 0.136024 0.179743
C22   C     C_R   0.319987 0.342600 0.863978 0.179738
C23   C     C_R   0.717282 0.837313 0.061040 -0.134255
C24   C     C_R   0.282719 0.337362 0.938962 -0.134251
C25   C     C_R   0.788187 0.839254 0.087488 -0.119094
C26   C     C_R   0.211814 0.339289 0.912514 -0.119091
C27   C     C_R   0.674033 0.840801 0.313331 -0.128477
C28   C     C_R   0.325968 0.340788 0.686670 -0.128467
C29   C     C_R   0.569968 0.854361 0.180410 -0.192211
C30   C     C_R   0.430032 0.354396 0.819590 -0.192214
C31   C     C_R   0.896453 0.859008 0.216151 -0.147897
C32   C     C_R   0.103548 0.359005 0.783849 -0.147895
H7    H     H_    0.696085 0.829901 0.393746 0.154556
H8    H     H_    0.303916 0.329866 0.606256 0.154544
H9    H     H_    0.987054 0.875806 0.338369 0.104324
H10   H     H_    0.012946 0.375762 0.661631 0.104325
H11   H     H_    0.801710 0.851477 0.434600 0.155607
H12   H     H_    0.198290 0.351431 0.565401 0.155591
H13   H     H_    0.924256 0.867325 0.473644 0.122710
H14   H     H_    0.075744 0.367258 0.526355 0.122707
H15   H     H_    0.814601 0.838688 0.026367 0.113223
H16   H     H_    0.185400 0.338732 0.973636 0.113218
C33   C     C_3   0.235803 0.723113 0.143935 0.209608
C34   C     C_3   0.764201 0.223089 0.856058 0.209603
H17   H     H_    0.212749 0.579950 0.135374 0.095177
H18   H     H_    0.787257 0.079928 0.864608 0.095188
C35   C     C_3   0.307054 0.710388 0.219451 -0.404294
C36   C     C_3   0.692949 0.210369 0.780543 -0.404287
H19   H     H_    0.348334 0.739290 0.179356 0.171964
H20   H     H_    0.651669 0.239257 0.820642 0.171967
H21   H     H_    0.315536 0.564048 0.248401 0.188468
H22   H     H_    0.684468 0.064033 0.751586 0.188465
H23   H     H_    0.166718 0.643567 0.288699 0.202516
H24   H     H_    0.833293 0.143607 0.711286 0.202516
C37   C     C_3   0.184877 0.791888 0.293175 -0.576292
C38   C     C_3   0.815125 0.291921 0.706819 -0.576288
C39   C     C_3   0.222282 0.059797 0.197209 -0.302056
C40   C     C_3   0.777712 0.559793 0.802805 -0.302054
C41   C     C_3   0.188261 0.860410 0.185423 -0.012868
C42   C     C_3   0.811739 0.360411 0.814577 -0.012860
H25   H     H_    0.192854 0.156091 0.236016 0.173775
H26   H     H_    0.807139 0.656111 0.764006 0.173781
H27   H     H_    0.221266 0.122761 0.121665 0.182845
H28   H     H_    0.778726 0.622733 0.878354 0.182838
C43   C     C_3   0.312914 0.851954 0.309287 -0.086950
C44   C     C_3   0.687086 0.351953 0.690714 -0.086954
C45   C     C_3   0.256118 0.811140 0.368381 0.314061
C46   C     C_3   0.743881 0.311160 0.631617 0.314065
C47   C     C_3   0.297141 0.050068 0.260243 -0.429322
C48   C     C_3   0.702854 0.550061 0.739767 -0.429324
H29   H     H_    0.332625 0.081254 0.210361 0.183860
H30   H     H_    0.667369 0.581231 0.789649 0.183850
H31   H     H_    0.305040 0.161127 0.319724 0.214089
H32   H     H_    0.694955 0.661131 0.680291 0.214072
H33   H     H_    0.146828 0.876708 0.321873 0.146297
H34   H     H_    0.853168 0.376772 0.678124 0.146300
H35   H     H_    0.253623 0.936433 0.417124 0.074695
H36   H     H_    0.746370 0.436458 0.582874 0.074701
O11   O     O_R   0.912980 0.203550 0.915410 -0.594796
O12   O     O_R   0.087020 0.703550 0.084590 -0.594800
O13   O     O_R   0.047270 0.535570 0.887960 -0.577168
O14   O     O_R   0.952730 0.035570 0.112040 -0.577164
C49   C     C_R   0.063906 0.368041 0.861813 0.919098
C50   C     C_R   0.936094 0.868042 0.138187 0.919101
O15   O     O_R   0.911030 0.532970 0.903270 -0.606072
O16   O     O_R   0.088970 0.032970 0.096730 -0.606072
O17   O     O_R   0.949820 0.708150 0.099970 -0.585763
O18   O     O_R   0.050180 0.208150 0.900030 -0.585758
C51   C     C_R   0.883339 0.365483 0.883454 0.945636
C52   C     C_R   0.116660 0.865483 0.116547 0.945640
O19   O     O_3   0.012900 0.375230 0.064480 -0.281256
O20   O     O_3   0.987100 0.875230 0.935520 -0.281255
V3    V     V_3+5 0.997610 0.648190 0.988040 1.180860
V4    V     V_3+5 0.002390 0.148190 0.011960 1.180864
Br1   Br    Br    0.245288 0.797715 0.008513 -0.626794
Br2   Br    Br    0.754716 0.297652 0.991486 -0.626796
N1    N     N_R   0.271373 0.647568 0.435865 0.226526
O21   O     O_R   0.271122 0.477953 0.399625 -0.482600
O22   O     O_R   0.282893 0.671656 0.533786 -0.441216
N2    N     N_R   0.728630 0.147590 0.564132 0.226520
O23   O     O_R   0.728903 0.977962 0.600371 -0.482606
O24   O     O_R   0.717090 0.171690 0.466210 -0.441214

loop_
_geom_bond_atom_site_label_1
_geom_bond_atom_site_label_2
_geom_bond_distance
_ccdc_geom_bond_type
C36   H20   1.112277 S    
C47   H31   1.111306 S    
C9    C11   1.388605 A    
C5    C29   1.393160 A    
C38   H34   1.113327 S    
C43   C47   1.557024 S    
O1    C3    1.313103 A    
C37   H33   1.113316 S    
O2    C4    1.313105 A    
C2    O7    1.299617 A    
O3    V1    2.021494 S    
C21   C23   1.395510 A    
O18   V4    2.019278 S    
O5    C3    1.310069 A    
C5    H5    1.083947 S    
C6    H6    1.083951 S    
C40   C42   1.565677 S    
C44   C46   1.567351 S    
C34   Br2   1.957667 S    
O19   V3    2.185638 S    
H1    C29   1.083548 S    
C35   C43   1.560114 S    
C27   H7    1.076539 S    
N1    O21   1.300770 A    
C28   H8    1.076540 S    
O12   C52   1.321536 A    
C50   O17   1.304348 A    
O15   V3    2.021474 S    
C5    C21   1.404654 A    
C33   H17   1.113027 S    
C6    C22   1.404653 A    
O20   V3    1.755612 S    
C34   H18   1.113032 S    
N2    O23   1.300810 A    
C10   C32   1.396591 A    
C48   H32   1.111312 S    
C33   C41   1.559995 S    
C35   H19   1.112270 S    
C17   C31   1.416943 A    
C13   C15   1.417985 A    
O12   V3    1.999516 S    
C12   C14   1.393344 A    
C17   C25   1.407600 A    
C40   C48   1.549359 S    
C8    C30   1.395226 A    
O5    V1    2.025536 S    
O17   V3    2.019278 S    
O6    V2    2.025539 S    
C23   C25   1.387870 A    
C24   C26   1.387871 A    
O20   V4    2.185640 S    
C34   C36   1.556305 S    
C40   H26   1.113504 S    
C45   N1    1.465214 S    
H24   C38   1.112708 S    
O19   V4    1.755613 S    
C40   H28   1.110758 S    
C31   C50   1.464621 S    
O16   V4    2.021472 S    
C1    C44   1.523491 S    
C10   H10   1.083920 S    
C39   H27   1.110746 S    
C3    C8    1.460101 S    
N1    O22   1.300643 A    
C15   C19   1.429349 A    
C42   C51   1.522302 S    
C14   C16   1.417992 A    
O4    V2    2.021490 S    
O6    C4    1.310068 A    
O13   V3    2.025577 S    
O14   C50   1.307687 A    
C46   N2    1.465215 S    
O1    V2    2.016122 S    
C38   C46   1.557708 S    
O2    V1    2.016122 S    
C39   C41   1.565669 S    
C37   C45   1.557701 S    
H2    C30   1.083549 S    
C46   H36   1.115844 S    
H3    C23   1.084402 S    
O4    C2    1.299975 A    
O13   C49   1.307689 A    
C11   H13   1.082839 S    
O14   V4    2.025580 S    
C47   H29   1.113255 S    
C33   Br1   1.957660 S    
C18   C26   1.407601 A    
C19   C27   1.413145 A    
C7    C27   1.397345 A    
O16   C52   1.315087 A    
C18   C32   1.416945 A    
H23   C37   1.112695 S    
C39   C47   1.549359 S    
C49   O18   1.304347 A    
O11   V4    1.999516 S    
C7    C29   1.395224 A    
C2    C43   1.523490 S    
C43   C45   1.567352 S    
C16   C20   1.429348 A    
C34   C42   1.560007 S    
C41   C52   1.522302 S    
C44   C48   1.557028 S    
C48   H30   1.113254 S    
O3    C1    1.299975 A    
C6    C30   1.393163 A    
C9    H9    1.083918 S    
C25   H15   1.082099 S    
C36   H22   1.110289 S    
C4    C7    1.460101 S    
C10   C12   1.388606 A    
O7    V1    2.010305 S    
C1    O8    1.299616 A    
C11   C13   1.393343 A    
O8    V2    2.010306 S    
C20   C22   1.422519 A    
C45   H35   1.115841 S    
H4    C24   1.084406 S    
C26   H16   1.082103 S    
C35   H21   1.110289 S    
C12   H14   1.082842 S    
C22   C24   1.395511 A    
C15   C17   1.425653 A    
C16   C18   1.425653 A    
N2    O24   1.300647 A    
C20   C28   1.413147 A    
C8    C28   1.397345 A    
C36   C44   1.560119 S    
O11   C51   1.321535 A    
C33   C35   1.556308 S    
C32   C49   1.464619 S    
C19   C21   1.422516 A    
C38   C42   1.552408 S    
O9    V2    1.755970 S    
C37   C41   1.552398 S    
O10   V1    1.755969 S    
O15   C51   1.315088 A    
C13   H11   1.076315 S    
C39   H25   1.113486 S    
C14   H12   1.076316 S    
C9    C31   1.396587 A    
