data_mof_unit_41186.cif
_audit_creation_date              2013-03-05T16:16:43-0500
_audit_creation_method            fapswitch 2.2
_symmetry_space_group_name_H-M    P1
_symmetry_Int_Tables_number       1
_space_group_crystal_system       triclinic
_cell_length_a                    13.059456
_cell_length_b                    13.613244
_cell_length_c                    15.766212
_cell_angle_alpha                 89.944176
_cell_angle_beta                  92.473438
_cell_angle_gamma                 85.497631
_cell_volume                      2791.66203548

loop_
_atom_site_label
_atom_site_type_symbol
_atom_site_description
_atom_site_fract_x
_atom_site_fract_y
_atom_site_fract_z
_atom_type_partial_charge
O1    O     O_R   0.402510 0.634760 0.495110 -0.599201
O2    O     O_R   0.572960 0.644530 0.503690 -0.615788
C1    C     C_R   0.481051 0.685129 0.499192 0.896294
O3    O     O_R   0.414740 0.495110 0.618560 -0.575568
O4    O     O_R   0.585180 0.504880 0.627150 -0.630619
C2    C     C_R   0.499249 0.499804 0.661753 0.901935
Zn1   Zn    Zn3+2 0.386190 0.493480 0.494270 1.023206
Zn2   Zn    Zn3+2 0.613810 0.506520 0.505730 0.964668
O5    O     O_R   0.427040 0.355470 0.496310 -0.602090
O6    O     O_R   0.597490 0.365240 0.504890 -0.605808
O7    O     O_R   0.414820 0.495120 0.372850 -0.590327
O8    O     O_R   0.585260 0.504890 0.381440 -0.626936
C3    C     C_R   0.519060 0.314814 0.500618 0.922019
C4    C     C_R   0.500784 0.500265 0.338193 0.911754
C5    C     C_3   0.387668 0.574565 0.942007 0.336226
C6    C     C_3   0.604710 0.569357 0.952639 0.112911
C7    C     C_3   0.589870 0.586540 0.055721 0.108392
C8    C     C_1   0.501177 0.506701 0.249922 -0.124599
C9    C     C_3   0.499239 0.520787 0.916255 -0.174473
C10   C     C_3   0.382208 0.564865 0.047488 0.126658
C11   C     C_3   0.496478 0.520833 0.083134 -0.081077
C12   C     C_3   0.520225 0.411995 0.048870 -0.025736
C13   C     C_3   0.499516 0.410772 0.951657 -0.018084
C14   C     C_1   0.499393 0.513637 0.174891 0.098254
C15   C     C_1   0.498508 0.513445 0.824763 0.171339
C16   C     C_1   0.497439 0.505966 0.749877 -0.082777
H1    H     H_    0.423233 0.385474 0.940561 0.232314
H2    H     H_    0.601780 0.392471 0.060462 0.170409
C17   C     C_1   0.535167 0.211705 0.497152 -0.158597
C18   C     C_2   0.550735 0.020296 0.488545 0.113767
C19   C     C_2   0.461450 0.979383 0.494603 -0.166685
C20   C     C_1   0.459180 0.875740 0.496112 0.015568
C21   C     C_1   0.546137 0.124388 0.493198 -0.012422
C22   C     C_1   0.466117 0.788284 0.497604 -0.163656
H3    H     H_    0.389493 0.024261 0.500700 0.156418
N1    N     N_1   0.234540 0.484780 0.486630 -0.087246
C23   C     C_2   0.033154 0.475716 0.475273 0.019686
C24   C     C_2   0.966108 0.528667 0.525972 0.027505
C25   C     C_1   0.854231 0.520484 0.518225 0.075013
C26   C     C_1   0.145427 0.481422 0.482557 0.101683
N2    N     N_1   0.765460 0.515220 0.513370 -0.098163
N3    N     N_R   0.352791 0.657835 0.095417 0.209977
O9    O     O_R   0.338115 0.652358 0.176518 -0.438384
O10   O     O_R   0.320893 0.741191 0.060017 -0.354576
N4    N     N_R   0.304525 0.526205 0.890761 0.194531
O11   O     O_R   0.263569 0.446103 0.911374 -0.444200
O12   O     O_R   0.278532 0.559848 0.814732 -0.336649
C27   C     C_3   0.298888 0.494198 0.075758 -0.318924
C28   C     C_3   0.186015 0.538335 0.064067 -0.234647
C29   C     C_3   0.110222 0.459943 0.075465 -0.873733
H4    H     H_    0.121083 0.401097 0.027231 0.306475
H5    H     H_    0.121079 0.426784 0.139948 0.263903
H6    H     H_    0.030425 0.494229 0.067633 0.243918
H7    H     H_    0.169882 0.596523 0.112038 0.253604
H8    H     H_    0.170716 0.573524 0.000905 0.268277
H9    H     H_    0.307663 0.420889 0.047508 0.254333
H10   H     H_    0.310591 0.477195 0.144568 0.222280
C30   C     C_3   0.654006 0.962484 0.481101 -0.385592
C31   C     C_3   0.700558 0.930904 0.568804 -0.314373
C32   C     C_3   0.802460 0.869119 0.561335 -0.889584
H11   H     H_    0.790207 0.800026 0.526169 0.263791
H12   H     H_    0.857948 0.911288 0.527693 0.268337
H13   H     H_    0.835806 0.849554 0.625676 0.253682
H14   H     H_    0.713862 0.997375 0.607419 0.236302
H15   H     H_    0.646591 0.886706 0.602294 0.235049
H16   H     H_    0.645751 0.896731 0.440317 0.206070
H17   H     H_    0.707428 0.008935 0.449236 0.200824
C33   C     C_3   0.002106 0.600965 0.591869 -0.421020
C34   C     C_3   0.989043 0.562934 0.682147 -0.355075
C35   C     C_3   0.018756 0.638360 0.748513 -0.743830
H18   H     H_    0.099853 0.655412 0.742139 0.306923
H19   H     H_    0.967807 0.707355 0.740755 0.238760
H20   H     H_    0.010438 0.608264 0.813118 0.253194
H21   H     H_    0.907688 0.547519 0.690493 0.222220
H22   H     H_    0.038393 0.493324 0.692938 0.251157
H23   H     H_    0.083653 0.616071 0.584899 0.217835
H24   H     H_    0.955737 0.672475 0.582141 0.204502
C36   C     C_3   0.994565 0.404993 0.409338 -0.425101
C37   C     C_3   0.983007 0.303771 0.448819 -0.327178
C38   C     C_3   0.940217 0.233471 0.383378 -0.843408
H25   H     H_    0.862978 0.262964 0.358481 0.267048
H26   H     H_    0.992555 0.223155 0.329850 0.266688
H27   H     H_    0.932994 0.160742 0.413551 0.251711
H28   H     H_    0.059162 0.271787 0.474220 0.230769
H29   H     H_    0.929979 0.311474 0.502133 0.230664
H30   H     H_    0.919818 0.434964 0.379938 0.207937
H31   H     H_    0.049231 0.396821 0.357117 0.208162
N5    N     N_R   0.372110 0.678830 0.912362 0.231316
O13   O     O_R   0.278716 0.720506 0.913408 -0.289201
O14   O     O_R   0.423794 0.707802 0.849942 -0.428708
C39   C     C_3   0.700847 0.493814 0.931253 -0.303192
C40   C     C_3   0.812877 0.525845 0.933309 -0.442809
C41   C     C_3   0.888815 0.439626 0.910605 -0.833736
H32   H     H_    0.887743 0.378966 0.957640 0.276503
H33   H     H_    0.869225 0.411598 0.846250 0.271004
H34   H     H_    0.967807 0.464449 0.910747 0.266101
H35   H     H_    0.822278 0.584855 0.886745 0.242738
H36   H     H_    0.838039 0.552580 0.995978 0.235829
H37   H     H_    0.703171 0.427580 0.969289 0.219110
H38   H     H_    0.687983 0.465514 0.866107 0.212391
C42   C     C_3   0.630506 0.668690 0.905497 -0.324807
C43   C     C_3   0.649419 0.667878 0.808594 -0.320279
C44   C     C_3   0.711537 0.753033 0.783322 -0.896073
H39   H     H_    0.670701 0.824674 0.799806 0.286017
H40   H     H_    0.788843 0.746645 0.815946 0.256160
H41   H     H_    0.721489 0.751178 0.713752 0.258599
H42   H     H_    0.690389 0.598735 0.787272 0.215792
H43   H     H_    0.575877 0.677522 0.771073 0.262018
H44   H     H_    0.575231 0.732012 0.915733 0.231379
H45   H     H_    0.701566 0.692732 0.937574 0.182213
C45   C     C_3   0.563448 0.702182 0.072857 -0.388255
C46   C     C_3   0.554403 0.743422 0.164577 -0.362458
C47   C     C_3   0.509366 0.850554 0.164373 -0.710593
H46   H     H_    0.556379 0.897096 0.126135 0.254855
H47   H     H_    0.429135 0.857081 0.138102 0.314817
H48   H     H_    0.509470 0.878832 0.230447 0.232778
H49   H     H_    0.508455 0.699701 0.204862 0.267734
H50   H     H_    0.631868 0.744616 0.196414 0.191277
H51   H     H_    0.627519 0.743015 0.050943 0.173082
H52   H     H_    0.496817 0.730697 0.033027 0.254478
C48   C     C_3   0.693248 0.565803 0.114876 -0.379306
C49   C     C_3   0.746231 0.463193 0.139981 -0.382781
C50   C     C_3   0.838032 0.474015 0.201969 -0.902883
H53   H     H_    0.895042 0.518683 0.173005 0.264565
H54   H     H_    0.812245 0.510120 0.261366 0.262036
H55   H     H_    0.876000 0.400123 0.218288 0.264991
H56   H     H_    0.692785 0.418751 0.173517 0.252183
H57   H     H_    0.777407 0.421031 0.086331 0.244799
H58   H     H_    0.751484 0.614609 0.094332 0.191308
H59   H     H_    0.675755 0.593548 0.178716 0.213894
N6    N     N_R   0.565496 0.334004 0.908707 0.215977
O15   O     O_R   0.542377 0.310925 0.830510 -0.377712
O16   O     O_R   0.627117 0.271358 0.952652 -0.362046
N7    N     N_R   0.471239 0.332963 0.093328 0.216461
O17   O     O_R   0.501987 0.309748 0.170894 -0.401264
O18   O     O_R   0.419850 0.269394 0.051031 -0.335112

loop_
_geom_bond_atom_site_label_1
_geom_bond_atom_site_label_2
_geom_bond_distance
_ccdc_geom_bond_type
C36   H31   1.112815 S    
C41   H32   1.110646 S    
C27   H10   1.110648 S    
Zn1   N1    1.991746 S    
C4    C8    1.394627 S    
C9    C13   1.597471 S    
C45   C46   1.557627 S    
C48   H59   1.102262 S    
C40   H36   1.099148 S    
C50   H53   1.110169 S    
C25   N2    1.166348 T    
C2    C16   1.393094 S    
N4    O11   1.298717 A    
C5    C9    1.645599 S    
C31   H14   1.111872 S    
C42   C43   1.558030 S    
C12   N7    1.484387 S    
C32   H13   1.110292 S    
C8    C14   1.185712 T    
O4    C2    1.275426 A    
C45   H51   1.107277 S    
C23   C26   1.473899 S    
C38   H27   1.110443 S    
C37   H28   1.111922 S    
O7    C4    1.276327 A    
C50   H54   1.110884 S    
C24   C33   1.517097 S    
C42   H44   1.096744 S    
C28   H7    1.110235 S    
C17   C21   1.188077 T    
C32   H12   1.110800 S    
C49   H56   1.109184 S    
O5    C3    1.282012 A    
C30   H16   1.112030 S    
C33   C34   1.535072 S    
C29   H5    1.110893 S    
C43   H43   1.104808 S    
C35   H18   1.110579 S    
C13   H1    1.086545 S    
C39   H38   1.107980 S    
C47   H48   1.110909 S    
C36   H30   1.110074 S    
C31   C32   1.526527 S    
C41   H33   1.110938 S    
C12   H2    1.084919 S    
C11   C12   1.589693 S    
C43   C44   1.528180 S    
N3    O10   1.295051 A    
O3    Zn1   1.979341 S    
C7    C45   1.610579 S    
C46   C47   1.529083 S    
C40   H35   1.105204 S    
N4    O12   1.304328 A    
C5    C10   1.673161 S    
C29   H6    1.109727 S    
N1    C26   1.167254 T    
C24   C25   1.473836 S    
Zn2   N2    1.991745 S    
C38   H26   1.110894 S    
C39   C40   1.558136 S    
C36   C37   1.532344 S    
C6    C7    1.659635 S    
C50   H55   1.110888 S    
N7    O18   1.302930 A    
C1    C22   1.402549 S    
C15   C16   1.184732 T    
C28   H8    1.108110 S    
C7    C11   1.640261 S    
C45   H52   1.096144 S    
O1    C1    1.277174 A    
C20   C22   1.187026 T    
Zn1   O7    1.966718 S    
C23   C24   1.373904 D    
C30   H17   1.112610 S    
C19   C20   1.413751 S    
Zn2   O8    1.979341 S    
C35   H20   1.110341 S    
C29   H4    1.110329 S    
C13   N6    1.484423 S    
C34   H21   1.112291 S    
C44   H40   1.110262 S    
C10   C11   1.639705 S    
C42   H45   1.109761 S    
C48   C49   1.552481 S    
C10   C27   1.585393 S    
C7    C48   1.613433 S    
C27   C28   1.550841 S    
O8    C4    1.277501 A    
C41   H34   1.110369 S    
C19   H3    1.087810 S    
O3    C2    1.277559 A    
N3    O9    1.304016 A    
C5    N4    1.517464 S    
N6    O15   1.301293 A    
C43   H42   1.105599 S    
C37   H29   1.111817 S    
C47   H46   1.110917 S    
C3    C17   1.404360 S    
C33   H24   1.112220 S    
C27   H9    1.093058 S    
N5    O14   1.295381 A    
C18   C21   1.415688 S    
O1    Zn1   1.951605 S    
O2    Zn2   1.912179 S    
C48   H58   1.106756 S    
C38   H25   1.111168 S    
N6    O16   1.303041 A    
O6    C3    1.276474 A    
O4    Zn2   1.966715 S    
C10   N3    1.506979 S    
N7    O17   1.301390 A    
C33   H23   1.110371 S    
C23   C36   1.514744 S    
C46   H49   1.098152 S    
O2    C1    1.280470 A    
C30   C31   1.533502 S    
C31   H15   1.111586 S    
C46   H50   1.111046 S    
C18   C19   1.338065 D    
C6    C9    1.654986 S    
C18   C30   1.516318 S    
C40   C41   1.529041 S    
C34   H22   1.112027 S    
C44   H41   1.110149 S    
C49   H57   1.097570 S    
C34   C35   1.526209 S    
C9    C15   1.445705 S    
C37   C38   1.526041 S    
Zn1   O5    1.912179 S    
C6    C42   1.607989 S    
N5    O13   1.304942 A    
C6    C39   1.606886 S    
Zn2   O6    1.951606 S    
C28   C29   1.526984 S    
C11   C14   1.448531 S    
C44   H39   1.110811 S    
C12   C13   1.545151 S    
C32   H11   1.111155 S    
C35   H19   1.111084 S    
C39   H37   1.080096 S    
C49   C50   1.530039 S    
C5    N5    1.489840 S    
C47   H47   1.106861 S    
