data_mof_unit_37286.cif
_audit_creation_date              2012-12-10T20:42:38-0500
_audit_creation_method            fapswitch 2.2
_symmetry_space_group_name_H-M    P1
_symmetry_Int_Tables_number       1
_space_group_crystal_system       triclinic
_cell_length_a                    8.900588
_cell_length_b                    10.727499
_cell_length_c                    9.980999
_cell_angle_alpha                 90.798631
_cell_angle_beta                  89.325022
_cell_angle_gamma                 91.882961
_cell_volume                      952.328013184

loop_
_atom_site_label
_atom_site_type_symbol
_atom_type_description
_atom_site_fract_x
_atom_site_fract_y
_atom_site_fract_z
_atom_type_partial_charge
C1    C     C_R   0.503425 0.260207 0.498235 0.878674
C2    C     C_R   0.416530 0.930781 0.391001 -0.069235
C3    C     C_R   0.470179 0.869527 0.503849 -0.197963
C4    C     C_R   0.516343 0.938092 0.615916 0.089433
C5    C     C_3   0.653538 0.927551 0.700600 -0.060220
C6    C     C_3   0.668767 0.069643 0.694585 -0.068481
C7    C     C_R   0.368115 0.484106 0.071845 0.106358
C8    C     C_R   0.624188 0.541872 0.067670 0.202959
C9    C     C_R   0.623839 0.535252 0.924918 -0.186707
C10   C     C_R   0.370911 0.478522 0.931124 0.113856
C11   C     C_3   0.256320 0.373566 0.923409 -0.085727
C12   C     C_R   0.219080 0.499716 0.500584 0.918239
C13   C     C_3   0.249543 0.380757 0.077535 -0.115776
C14   C     C_R   0.491723 0.738772 0.501003 0.874121
C15   C     C_R   0.780893 0.500108 0.499574 0.919700
C16   C     C_1   0.065436 0.499778 0.501246 -0.225354
C17   C     C_1   0.934469 0.499874 0.499606 -0.220631
C18   C     C_R   0.528765 0.065292 0.611081 0.066482
C19   C     C_R   0.497343 0.126877 0.493997 -0.149849
C20   C     C_R   0.448457 0.058080 0.379389 -0.071326
H1    H     H_    0.289756 0.299595 0.132216 0.192983
H2    H     H_    0.744977 0.877843 0.647580 0.138062
H3    H     H_    0.648865 0.116685 0.792917 0.147597
H4    H     H_    0.722953 0.562281 0.867222 0.147674
H5    H     H_    0.153387 0.405604 0.873466 0.185063
N1    N     N_R   0.499010 0.499140 0.142800 -0.112720
N2    N     N_R   0.499010 0.499180 0.857150 -0.116397
O1    O     O_R   0.500020 0.316790 0.614690 -0.617880
O2    O     O_R   0.500000 0.316760 0.385350 -0.615643
O3    O     O_R   0.285350 0.500020 0.614650 -0.615073
O4    O     O_R   0.285340 0.499980 0.385310 -0.622107
O5    O     O_R   0.500000 0.683240 0.614650 -0.613593
O6    O     O_R   0.499980 0.683210 0.385310 -0.608526
O7    O     O_R   0.714660 0.500020 0.614690 -0.627541
O8    O     O_R   0.714650 0.499980 0.385350 -0.624090
Zn1   Zn    Zn3+2 0.500010 0.500020 0.653130 0.929348
Zn2   Zn    Zn3+2 0.499990 0.499980 0.346870 0.947704
C21   C     C_1   0.467795 0.106743 0.245569 0.202320
N3    N     N_1   0.488937 0.143581 0.138481 -0.270319
C22   C     C_3   0.309653 0.246422 0.870612 -0.329773
C23   C     C_3   0.212411 0.198816 0.754772 -0.875450
H6    H     H_    0.093585 0.192763 0.788956 0.237154
H7    H     H_    0.221481 0.262377 0.668356 0.279106
H8    H     H_    0.246400 0.104347 0.722619 0.246913
H9    H     H_    0.430048 0.250875 0.841352 0.233770
H10   H     H_    0.296252 0.175190 0.949626 0.208779
C24   C     C_3   0.093024 0.419028 0.126409 -0.392270
C25   C     C_3   0.980586 0.308246 0.117629 -0.882909
H11   H     H_    0.965648 0.277342 0.011814 0.262015
H12   H     H_    0.020581 0.229109 0.176852 0.262491
H13   H     H_    0.869600 0.334621 0.158817 0.257274
H14   H     H_    0.096070 0.451440 0.231134 0.253327
H15   H     H_    0.053319 0.497179 0.065970 0.192833
C26   C     C_1   0.333816 0.864321 0.285963 0.190400
N4    N     N_1   0.266885 0.811150 0.203123 -0.229422
C27   C     C_3   0.625354 0.875929 0.842669 -0.394932
C28   C     C_3   0.470228 0.900635 0.902918 -0.801258
H16   H     H_    0.448595 0.001597 0.903554 0.251551
H17   H     H_    0.381108 0.849516 0.845366 0.262590
H18   H     H_    0.465699 0.867511 0.007473 0.251714
H19   H     H_    0.639167 0.773846 0.838475 0.229618
H20   H     H_    0.713221 0.915444 0.910723 0.202111
C29   C     C_3   0.817080 0.118689 0.628102 -0.412759
C30   C     C_3   0.843671 0.082929 0.480349 -0.834154
H21   H     H_    0.811450 0.984049 0.458743 0.250547
H22   H     H_    0.781104 0.143974 0.413547 0.255696
H23   H     H_    0.964951 0.097099 0.455460 0.242653
H24   H     H_    0.823945 0.222018 0.638177 0.215998
H25   H     H_    0.910201 0.081315 0.686540 0.206550
C31   C     C_3   0.764059 0.605917 0.126029 -0.365663
C32   C     C_3   0.735827 0.733757 0.189794 -0.751253
H26   H     H_    0.620326 0.764376 0.170539 0.262386
H27   H     H_    0.756665 0.731877 0.299027 0.253884
H28   H     H_    0.815186 0.805386 0.147319 0.213491
H29   H     H_    0.825682 0.544893 0.191261 0.229100
H30   H     H_    0.848274 0.624092 0.044924 0.152476

loop_
_geom_bond_atom_site_label_1
_geom_bond_atom_site_label_2
_ccdc_geom_bond_type
C10   N2    A    
C6    C29   S    
C7    C10   A    
N1    Zn2   S    
C15   C17   S    
C24   H14   S    
N2    Zn1   S    
C32   H28   S    
C8    N1    A    
C23   H6    S    
C29   H24   S    
C15   O7    A    
C8    C31   S    
C19   C20   A    
O3    Zn1   S    
C24   H15   S    
O1    Zn1   S    
C4    C18   A    
C30   H21   S    
C14   O6    A    
C25   H12   S    
C2    C3    A    
C8    C9    A    
C13   H1    S    
C32   H26   S    
C9    H4    S    
C1    O1    A    
C22   H10   S    
C23   H7    S    
C11   C22   S    
C28   H16   S    
C5    C6    S    
C3    C14   S    
C7    N1    A    
C12   C16   S    
C6    H3    S    
O5    Zn1   S    
C1    O2    A    
C22   C23   S    
O8    Zn2   S    
O6    Zn2   S    
O7    Zn1   S    
C12   O4    A    
C31   H30   S    
C21   N3    T    
C6    C18   S    
C23   H8    S    
C27   H20   S    
C28   H17   S    
C1    C19   S    
C10   C11   S    
C11   H5    S    
C2    C20   A    
C3    C4    A    
C30   H23   S    
C29   H25   S    
C11   C13   S    
C31   C32   S    
C20   C21   S    
C27   C28   S    
C9    N2    A    
C13   C24   S    
C18   C19   A    
C2    C26   S    
C15   O8    A    
C31   H29   S    
C32   H27   S    
C26   N4    T    
C25   H11   S    
C28   H18   S    
C7    C13   S    
C5    C27   S    
C22   H9    S    
C12   O3    A    
C27   H19   S    
C14   O5    A    
C25   H13   S    
O2    Zn2   S    
C5    H2    S    
C29   C30   S    
C16   C17   T    
O4    Zn2   S    
C4    C5    S    
C24   C25   S    
C30   H22   S    
