data_mof_unit_11548.cif
_audit_creation_date              2012-10-26T18:50:43-0400
_audit_creation_method            fapswitch 2.2
_symmetry_space_group_name_H-M    P1
_symmetry_Int_Tables_number       1
_space_group_crystal_system       triclinic
_cell_length_a                    12.341634
_cell_length_b                    13.202522
_cell_length_c                    17.302438
_cell_angle_alpha                 105.168943
_cell_angle_beta                  74.583036
_cell_angle_gamma                 116.604553
_cell_volume                      2396.56459928

loop_
_atom_site_label
_atom_site_type_symbol
_atom_type_description
_atom_site_fract_x
_atom_site_fract_y
_atom_site_fract_z
_atom_type_partial_charge
C1    C     C_R   0.144754 0.713381 0.505887 0.585826
C2    C     C_R   0.006300 0.475379 0.261884 -0.043436
C3    C     C_R   0.740665 0.971423 0.403385 -0.087349
C4    C     C_R   0.989899 0.507217 0.652414 0.559959
C5    C     C_R   0.775163 0.164197 0.473418 -0.003758
C6    C     C_R   0.179881 0.918050 0.546627 -0.097417
C7    C     C_R   0.257055 0.033834 0.557635 -0.124342
C8    C     C_R   0.383386 0.069154 0.532587 -0.102629
C9    C     C_R   0.435610 0.988581 0.492945 0.031421
C10   C     C_R   0.355071 0.872555 0.472292 0.009908
C11   C     C_R   0.564872 0.019838 0.472189 0.017749
C12   C     C_R   0.955791 0.596701 0.800285 0.063843
C13   C     C_R   0.612186 0.937446 0.425374 0.032933
C14   C     C_R   0.530118 0.825138 0.398503 0.035656
C15   C     C_R   0.404116 0.796681 0.418537 -0.108362
C16   C     C_R   0.855949 0.286253 0.488885 0.521318
C17   C     C_R   0.648722 0.130968 0.498106 -0.113652
C18   C     C_R   0.821113 0.083677 0.427051 -0.137699
C19   C     C_R   0.227386 0.835912 0.505893 0.034059
C20   C     C_R   0.642994 0.676828 0.629387 -0.131502
C21   C     C_R   0.257967 0.355258 0.386015 0.166805
C22   C     C_R   0.358280 0.324978 0.365530 -0.090899
C23   C     C_R   0.901570 0.363377 0.146000 0.042825
C24   C     C_R   0.452381 0.378263 0.409798 -0.155173
C25   C     C_R   0.450880 0.465628 0.475855 -0.001853
C26   C     C_R   0.346241 0.494637 0.497278 0.173851
C27   C     C_R   0.550797 0.525679 0.520577 0.010926
C28   C     C_R   0.010469 0.493351 0.348035 0.556498
C29   C     C_R   0.545681 0.615077 0.585577 0.052700
C30   C     C_R   0.443848 0.642525 0.606243 -0.156643
C31   C     C_R   0.346341 0.583431 0.563501 -0.091354
C32   C     C_R   0.657033 0.501555 0.503189 0.049387
C33   C     C_R   0.744804 0.649494 0.608880 0.057320
C34   C     C_R   0.906394 0.380905 0.229533 -0.005810
C35   C     C_R   0.989757 0.516092 0.738674 -0.030224
C36   C     C_R   0.028481 0.443154 0.758697 -0.152077
C37   C     C_R   0.032783 0.447503 0.838363 -0.114616
C38   C     C_R   0.997252 0.524311 0.900776 -0.009241
C39   C     C_R   0.959095 0.600545 0.882412 0.009161
C40   C     C_2   0.570963 0.732665 0.352491 0.561422
C41   C     C_2   0.806836 0.303615 0.284486 0.288598
C42   C     C_2   0.165658 0.295393 0.330727 0.264704
C43   C     C_2   0.204277 0.654557 0.243562 0.589212
C44   C     C_2   0.923950 0.683344 0.949464 0.273874
C45   C     C_R   0.100860 0.551469 0.211903 0.048383
C46   C     C_2   0.801841 0.262711 0.108213 0.299856
C47   C     C_2   0.919484 0.677625 0.779047 0.630248
C48   C     C_R   0.094049 0.533452 0.130214 -0.103135
C49   C     C_R   0.993851 0.443430 0.097731 -0.036119
C50   C     C_2   0.008802 0.529543 0.984458 -0.139933
C51   C     C_2   0.986279 0.435574 0.012841 -0.142083
Cu1   Cu    Cu3+1 0.900140 0.524980 0.518800 0.992733
Cu2   Cu    Cu3+1 0.099860 0.475020 0.481200 0.942332
H1    H     H_    0.056013 0.382025 0.712171 0.141466
H2    H     H_    0.820556 0.697835 0.641867 0.155510
H3    H     H_    0.439360 0.710860 0.656224 0.124093
H4    H     H_    0.640559 0.746101 0.679011 0.105698
H5    H     H_    0.668986 0.434938 0.455080 0.129700
H6    H     H_    0.525917 0.349659 0.389641 0.148569
H7    H     H_    0.364425 0.258816 0.314192 0.183880
H8    H     H_    0.273365 0.611397 0.584403 0.185940
H9    H     H_    0.953558 0.351436 0.975326 0.131594
H10   H     H_    0.032309 0.611804 0.024835 0.133227
H11   H     H_    0.067032 0.391870 0.850726 0.135006
H12   H     H_    0.166044 0.592332 0.091680 0.169305
H13   H     H_    0.673770 0.645720 0.344454 0.349534
H14   H     H_    0.829500 0.280480 0.331845 0.093589
H15   H     H_    0.072462 0.286591 0.348732 0.148901
H16   H     H_    0.382768 0.763878 0.222265 0.362603
H17   H     H_    0.878150 0.658961 0.008762 0.116583
H18   H     H_    0.763329 0.272020 0.062278 0.103744
H19   H     H_    0.791058 0.739978 0.796106 0.332885
H20   H     H_    0.919018 0.108164 0.406672 0.130069
H21   H     H_    0.780587 0.913488 0.365007 0.177358
H22   H     H_    0.618188 0.194334 0.537761 0.125769
H23   H     H_    0.082836 0.892740 0.571411 0.147835
H24   H     H_    0.436885 0.160483 0.543611 0.106996
H25   H     H_    0.219093 0.096634 0.588093 0.125511
H26   H     H_    0.345389 0.713394 0.390645 0.207705
N1    N     N_R   0.749710 0.562810 0.547300 -0.239432
N2    N     N_R   0.249640 0.437820 0.453210 -0.265905
O1    O     O_R   0.025490 0.682370 0.523640 -0.480307
O2    O     O_R   0.656251 0.713232 0.379417 -0.707288
O3    O     O_2   0.698771 0.269087 0.279454 -0.483116
O4    O     O_2   0.193854 0.252375 0.261028 -0.498977
O5    O     O_2   0.187681 0.708530 0.311439 -0.532182
O6    O     O_R   0.320066 0.692568 0.194240 -0.656121
O7    O     O_2   0.949143 0.780455 0.940176 -0.435493
O8    O     O_2   0.765177 0.167575 0.125685 -0.428643
O9    O     O_2   0.990544 0.742594 0.731421 -0.528263
O10   O     O_R   0.804582 0.680088 0.814252 -0.658685
O11   O     O_R   0.194150 0.640180 0.491890 -0.536346
O12   O     O_R   0.905900 0.523560 0.631310 -0.475772
O13   O     O_R   0.074570 0.481370 0.599560 -0.528626
O14   O     O_R   0.805850 0.359820 0.508110 -0.517373
O15   O     O_R   0.974510 0.317630 0.476360 -0.543585
O16   O     O_R   0.925430 0.518630 0.400440 -0.493688
O17   O     O_R   0.094100 0.476440 0.368690 -0.508621
O18   O     O_2   0.525278 0.669757 0.293388 -0.478845

loop_
_geom_bond_atom_site_label_1
_geom_bond_atom_site_label_2
_ccdc_geom_bond_type
C28   O16   A    
C33   H2    S    
C27   C29   A    
C31   H8    S    
C35   C36   A    
C32   H5    S    
C40   O18   D    
C7    C8    A    
C41   H14   S    
C46   O8    D    
C6    C19   A    
C51   H9    S    
C29   C30   A    
C3    C18   A    
C21   C22   A    
C36   C37   A    
C10   C15   A    
C22   H7    S    
C30   C31   A    
C23   C49   A    
C5    C17   A    
Cu1   O16   S    
Cu1   O14   S    
Cu2   N2    S    
C3    H21   S    
C5    C16   S    
H13   O2    S    
C15   H26   S    
C8    C9    A    
C49   C51   S    
C44   H17   S    
C48   H12   S    
C9    C10   A    
H16   O6    S    
C2    C34   A    
C27   C32   A    
C4    C35   S    
C26   C31   A    
C23   C46   S    
C13   C14   A    
Cu2   O15   S    
C42   H15   S    
C50   H10   S    
C40   O2    S    
C34   C41   S    
C12   C47   S    
C20   C29   A    
C2    C45   A    
C1    C19   S    
C16   O15   A    
C24   C25   A    
H19   O10   S    
C5    C18   A    
C1    O1    A    
C41   O3    D    
C30   H3    S    
C4    O12   A    
C37   C38   A    
C32   N1    A    
C9    C11   A    
C10   C19   A    
C23   C34   A    
Cu2   O11   S    
C50   C51   D    
Cu1   O12   S    
C42   O4    D    
C12   C35   A    
Cu1   O1    S    
C43   C45   S    
C46   H18   S    
C6    C7    A    
C7    H25   S    
C4    O13   A    
C20   C33   A    
C48   C49   A    
C21   N2    A    
C1    O11   A    
C8    H24   S    
C47   O9    D    
C22   C24   A    
C26   N2    A    
C37   H11   S    
Cu1   Cu2   S    
C45   C48   A    
C28   O17   A    
C11   C17   A    
C16   O14   A    
Cu2   O13   S    
C43   O5    D    
C47   O10   S    
C3    C13   A    
C33   N1    A    
C6    H23   S    
C39   C44   S    
C38   C50   S    
Cu2   O17   S    
C25   C27   A    
C43   O6    S    
C18   H20   S    
C12   C39   A    
C25   C26   A    
C44   O7    D    
C11   C13   A    
C38   C39   A    
C24   H6    S    
C36   H1    S    
C14   C40   S    
C21   C42   S    
C17   H22   S    
C14   C15   A    
C2    C28   S    
C20   H4    S    
Cu1   N1    S    
