data_mof_unit_49574.cif
_audit_creation_date              2013-03-05T15:45:11-0500
_audit_creation_method            fapswitch 2.2
_symmetry_space_group_name_H-M    P1
_symmetry_Int_Tables_number       1
_space_group_crystal_system       triclinic
_cell_length_a                    24.848094
_cell_length_b                    17.228432
_cell_length_c                    15.66572
_cell_angle_alpha                 90.104653
_cell_angle_beta                  50.170856
_cell_angle_gamma                 89.988604
_cell_volume                      5150.21252859

loop_
_atom_site_label
_atom_site_type_symbol
_atom_site_description
_atom_site_fract_x
_atom_site_fract_y
_atom_site_fract_z
_atom_type_partial_charge
C1    C     C_R   0.352836 0.143816 0.753488 -0.069700
C2    C     C_R   0.667448 0.895553 0.195975 -0.052250
C3    C     C_R   0.664269 0.114433 0.203041 -0.114375
C4    C     C_R   0.332822 0.894660 0.803288 -0.045225
C5    C     C_R   0.854459 0.645221 0.750367 -0.049691
C6    C     C_R   0.167183 0.394621 0.196440 -0.045511
C7    C     C_R   0.146403 0.644288 0.248056 -0.063122
C8    C     C_R   0.842042 0.370681 0.780563 -0.105561
H1    H     H_    0.307609 0.161075 0.763280 0.128248
H2    H     H_    0.720059 0.902745 0.165873 0.163138
H3    H     H_    0.716287 0.117979 0.175755 0.161779
H4    H     H_    0.280173 0.901003 0.833281 0.170197
H5    H     H_    0.810380 0.663841 0.757848 0.122448
H6    H     H_    0.219867 0.401030 0.166189 0.170573
H7    H     H_    0.191299 0.661836 0.239037 0.124980
H8    H     H_    0.789672 0.363934 0.810142 0.172699
N1    N     N_R   0.388930 0.078160 0.705470 -0.042540
N2    N     N_R   0.611070 0.921840 0.294530 -0.065927
N3    N     N_R   0.611070 0.078160 0.294530 -0.054272
N4    N     N_R   0.388930 0.921840 0.705470 -0.064901
N5    N     N_R   0.888930 0.578160 0.705470 -0.038726
N6    N     N_R   0.111070 0.421840 0.294530 -0.065309
N7    N     N_R   0.111070 0.578160 0.294530 -0.041617
N8    N     N_R   0.888930 0.421840 0.705470 -0.052363
C9    C     C_R   0.607825 0.118363 0.593003 -0.190410
C10   C     C_R   0.415432 0.855278 0.405719 -0.187150
C11   C     C_R   0.389748 0.110805 0.406156 -0.179373
C12   C     C_R   0.584331 0.855197 0.594176 -0.190430
C13   C     C_R   0.112303 0.608312 0.592455 -0.196263
C14   C     C_R   0.914802 0.356348 0.404819 -0.186603
C15   C     C_R   0.887939 0.608611 0.407398 -0.196778
C16   C     C_R   0.089831 0.358403 0.592961 -0.191294
N9    N     N_R   0.580500 0.077840 0.556650 -0.060537
N10   N     N_R   0.419500 0.922160 0.443350 -0.063445
N11   N     N_R   0.419500 0.077840 0.443350 -0.060675
N12   N     N_R   0.580500 0.922160 0.556650 -0.063128
N13   N     N_R   0.080500 0.577840 0.556650 -0.061473
N14   N     N_R   0.919500 0.422160 0.443350 -0.062070
N15   N     N_R   0.919500 0.577840 0.443350 -0.061534
N16   N     N_R   0.080500 0.422160 0.556650 -0.062204
C17   C     C_R   0.682329 0.118750 0.407359 0.323644
C18   C     C_R   0.337789 0.855781 0.590690 0.341067
C19   C     C_R   0.313367 0.107218 0.591398 0.283507
C20   C     C_R   0.661367 0.854941 0.409459 0.350999
C21   C     C_R   0.187421 0.605364 0.407701 0.277550
C22   C     C_R   0.834670 0.358123 0.589622 0.308069
C23   C     C_R   0.812717 0.606188 0.592156 0.277417
C24   C     C_R   0.164112 0.357220 0.408121 0.341045
N17   N     N_R   0.626210 0.077590 0.443410 -0.086407
N18   N     N_R   0.373790 0.922410 0.556590 -0.082904
N19   N     N_R   0.373790 0.077590 0.556590 -0.088525
N20   N     N_R   0.626210 0.922410 0.443410 -0.083039
N21   N     N_R   0.126210 0.577590 0.443410 -0.088664
N22   N     N_R   0.873790 0.422410 0.556590 -0.079503
N23   N     N_R   0.873790 0.577590 0.556590 -0.089349
N24   N     N_R   0.126210 0.422410 0.443410 -0.084825
C25   C     C_R   0.574745 0.112590 0.202188 -0.116476
C26   C     C_R   0.422077 0.893720 0.803499 -0.134285
C27   C     C_R   0.440918 0.141672 0.758188 -0.122037
C28   C     C_R   0.578171 0.894188 0.195959 -0.136408
C29   C     C_R   0.057941 0.642256 0.244132 -0.126219
C30   C     C_R   0.931512 0.370700 0.780965 -0.110937
C31   C     C_R   0.942474 0.642692 0.755083 -0.124199
C32   C     C_R   0.077824 0.393602 0.196500 -0.133712
H9    H     H_    0.545471 0.111757 0.172816 0.105062
H10   H     H_    0.450506 0.896905 0.834244 0.103396
H11   H     H_    0.475554 0.156806 0.774760 0.114569
H12   H     H_    0.549671 0.897466 0.165348 0.101500
H13   H     H_    0.022154 0.657742 0.229927 0.116074
H14   H     H_    0.961052 0.361959 0.808715 0.102014
H15   H     H_    0.978321 0.658134 0.769186 0.116508
H16   H     H_    0.049335 0.396858 0.165873 0.105413
N25   N     N_R   0.554800 0.077270 0.294580 -0.048920
N26   N     N_R   0.445200 0.922730 0.705420 -0.050581
N27   N     N_R   0.445200 0.077270 0.705420 -0.051089
N28   N     N_R   0.554800 0.922730 0.294580 -0.049322
N29   N     N_R   0.054800 0.577270 0.294580 -0.051507
N30   N     N_R   0.945200 0.422730 0.705420 -0.049562
N31   N     N_R   0.945200 0.577270 0.705420 -0.052072
N32   N     N_R   0.054800 0.422730 0.294580 -0.051551
C33   C     C_R   0.384598 0.185315 0.786342 0.095987
C34   C     C_R   0.648675 0.876980 0.132525 0.117077
C35   C     C_R   0.643595 0.135130 0.142564 0.111944
C36   C     C_R   0.351791 0.875858 0.866395 0.111041
C37   C     C_R   0.886693 0.686975 0.782240 0.088286
C38   C     C_R   0.148139 0.375858 0.133356 0.109800
C39   C     C_R   0.114195 0.685978 0.216102 0.094571
C40   C     C_R   0.870090 0.333460 0.821925 0.104917
C41   C     C_R   0.670446 0.146609 0.500299 -0.113569
C42   C     C_R   0.363551 0.812286 0.496798 -0.106543
C43   C     C_R   0.323118 0.129535 0.498343 -0.100323
C44   C     C_R   0.635821 0.811695 0.503145 -0.106520
C45   C     C_R   0.179140 0.626751 0.499896 -0.089733
C46   C     C_R   0.861589 0.314611 0.495202 -0.109035
C47   C     C_R   0.821198 0.627612 0.499840 -0.091032
C48   C     C_R   0.141107 0.315686 0.501213 -0.109559
Ni1   Ni    Ni4+2 0.382710 0.000000 0.629850 0.307097
Ni2   Ni    Ni4+2 0.617290 1.000000 0.370150 0.291095
Ni3   Ni    Ni4+2 0.882710 0.500000 0.629850 0.318055
Ni4   Ni    Ni4+2 0.117290 0.500000 0.370150 0.304956
Ni5   Ni    Ni4+2 0.513020 0.000000 0.629850 0.201089
Ni6   Ni    Ni4+2 0.486980 1.000000 0.370150 0.196355
Ni7   Ni    Ni4+2 0.013020 0.500000 0.629850 0.204408
Ni8   Ni    Ni4+2 0.986980 0.500000 0.370150 0.199377
C49   C     C_R   0.247661 0.145384 0.451240 -0.141678
C50   C     C_R   0.702841 0.785291 0.561890 -0.148395
C51   C     C_R   0.752691 0.150885 0.534959 -0.133656
C52   C     C_R   0.300588 0.688498 0.547912 -0.072166
C53   C     C_R   0.747382 0.643439 0.447946 -0.144121
C54   C     C_R   0.213366 0.292547 0.550089 -0.146508
C55   C     C_R   0.250948 0.739674 0.439782 -0.101474
C56   C     C_R   0.785796 0.302296 0.451269 -0.137418
C57   C     C_R   0.699033 0.687841 0.452640 -0.073846
C58   C     C_R   0.259231 0.247026 0.547568 -0.108726
C59   C     C_R   0.297912 0.784190 0.436029 -0.149285
C60   C     C_R   0.735750 0.262269 0.458030 -0.078309
C61   C     C_R   0.200541 0.191062 0.454994 -0.077074
C62   C     C_R   0.750009 0.741130 0.558122 -0.103300
C63   C     C_R   0.803260 0.191289 0.528196 -0.077204
C64   C     C_R   0.252426 0.643755 0.552620 -0.144044
H17   H     H_    0.679373 0.667959 0.411529 0.149108
H18   H     H_    0.282272 0.268584 0.582884 0.109318
H19   H     H_    0.313352 0.839650 0.393786 0.124011
H20   H     H_    0.709545 0.289389 0.430968 0.120988
H21   H     H_    0.177710 0.170345 0.419084 0.140368
H22   H     H_    0.770074 0.762100 0.598305 0.105449
H23   H     H_    0.828494 0.165273 0.557497 0.122908
H24   H     H_    0.234332 0.589310 0.597480 0.123831
C65   C     C_R   0.677774 0.758948 0.508662 0.159471
C66   C     C_R   0.275933 0.174160 0.498262 0.198393
C67   C     C_R   0.322173 0.758982 0.490791 0.160456
C68   C     C_R   0.719591 0.187285 0.499958 0.184177
C69   C     C_R   0.184240 0.264329 0.504051 0.168121
C70   C     C_R   0.772190 0.670841 0.501028 0.194563
C71   C     C_R   0.818824 0.266805 0.487051 0.175497
C72   C     C_R   0.228227 0.670128 0.498301 0.193216
H25   H     H_    0.211001 0.874354 0.009571 0.152119
H26   H     H_    0.782813 0.126656 0.995251 0.152546
H27   H     H_    0.789558 0.875680 0.989539 0.148497
H28   H     H_    0.289252 0.283019 0.818162 0.129667
H29   H     H_    0.791438 0.228617 0.825804 0.172660
H30   H     H_    0.211573 0.782298 0.180300 0.128231
H31   H     H_    0.288826 0.376590 0.989129 0.153259
H32   H     H_    0.789454 0.783862 0.817785 0.127621
C73   C     C_2   0.689610 0.164751 0.029348 -0.185168
C74   C     C_2   0.304463 0.850558 0.982697 -0.198504
C75   C     C_2   0.359691 0.258859 0.847539 -0.166627
C76   C     C_2   0.696284 0.852286 0.015707 -0.198800
C77   C     C_2   0.139097 0.759343 0.154792 -0.169167
C78   C     C_2   0.842122 0.263287 0.888475 -0.184950
C79   C     C_2   0.861992 0.760803 0.843148 -0.166300
C80   C     C_2   0.195411 0.350842 0.016827 -0.198234
C81   C     C_2   0.759026 0.159804 0.968202 -0.116400
C82   C     C_2   0.234888 0.849267 0.041665 -0.077638
C83   C     C_2   0.308076 0.298743 0.862082 -0.116985
C84   C     C_2   0.765872 0.850866 0.956921 -0.084770
C85   C     C_2   0.191951 0.798228 0.137672 -0.117257
C86   C     C_2   0.801969 0.216494 0.881919 -0.113144
C87   C     C_2   0.809061 0.799814 0.860459 -0.114778
C88   C     C_2   0.265008 0.350560 0.957384 -0.078313
H33   H     H_    0.327487 0.824660 0.016014 0.147146
H34   H     H_    0.666722 0.198571 0.001064 0.169601
H35   H     H_    0.673464 0.826640 0.981873 0.148026
H36   H     H_    0.377666 0.275063 0.892710 0.160807
H37   H     H_    0.852301 0.251138 0.945088 0.159676
H38   H     H_    0.120286 0.775818 0.110962 0.159465
H39   H     H_    0.172465 0.324010 0.983851 0.148697
H40   H     H_    0.880772 0.777357 0.887039 0.159363
H41   H     H_    0.588313 0.119876 0.677597 0.133928
H42   H     H_    0.442870 0.841605 0.319382 0.139756
H43   H     H_    0.412361 0.114502 0.320006 0.133528
H44   H     H_    0.557156 0.841844 0.680423 0.139962
H45   H     H_    0.091226 0.609982 0.677924 0.132992
H46   H     H_    0.941750 0.343653 0.318385 0.140633
H47   H     H_    0.909106 0.610109 0.321888 0.133191
H48   H     H_    0.069392 0.348335 0.676757 0.132516
N33   N     N_R   0.749660 0.109915 0.299621 0.220492
O1    O     O_R   0.797840 0.162508 0.260196 -0.407896
O2    O     O_R   0.764908 0.046220 0.243643 -0.381100
N34   N     N_R   0.270162 0.845554 0.696910 0.214268
O3    O     O_R   0.223388 0.900160 0.738274 -0.339047
O4    O     O_R   0.252552 0.778959 0.747223 -0.434643
N35   N     N_R   0.246997 0.093240 0.699302 0.233632
O5    O     O_R   0.189136 0.119337 0.724800 -0.379765
O6    O     O_R   0.243519 0.049623 0.770340 -0.384045
N36   N     N_R   0.727734 0.842231 0.302096 0.213605
O7    O     O_R   0.777371 0.893146 0.260251 -0.343569
O8    O     O_R   0.741914 0.775492 0.252777 -0.432968
N37   N     N_R   0.253149 0.589491 0.299407 0.234997
O9    O     O_R   0.312163 0.609414 0.274721 -0.370266
O10   O     O_R   0.254726 0.548741 0.227892 -0.386407
N38   N     N_R   0.763285 0.352989 0.689915 0.214656
O11   O     O_R   0.724043 0.414577 0.731540 -0.317835
O12   O     O_R   0.734965 0.285661 0.733136 -0.446532
N39   N     N_R   0.746784 0.592424 0.701024 0.236967
O13   O     O_R   0.687999 0.612127 0.724681 -0.368915
O14   O     O_R   0.744675 0.554427 0.774751 -0.369160
N40   N     N_R   0.231184 0.347475 0.300801 0.214164
O15   O     O_R   0.277880 0.401950 0.259895 -0.332451
O16   O     O_R   0.249510 0.280169 0.251721 -0.431682
H49   H     H_    0.261584 0.088312 0.413298 0.123816
H50   H     H_    0.687729 0.841265 0.603138 0.123897
H51   H     H_    0.739501 0.092049 0.566577 0.122284
H52   H     H_    0.319691 0.669495 0.590144 0.146437
H53   H     H_    0.765077 0.588401 0.404188 0.124907
H54   H     H_    0.201635 0.350270 0.585794 0.125910
H55   H     H_    0.231362 0.759884 0.398621 0.105766
H56   H     H_    0.797142 0.361755 0.421908 0.125876

loop_
_geom_bond_atom_site_label_1
_geom_bond_atom_site_label_2
_geom_bond_distance
_ccdc_geom_bond_type
N1    N27   1.397784 A    
N19   Ni1   1.866688 S    
C50   C65   1.397611 A    
C17   C41   1.372606 A    
C80   C88   1.339744 D    
C55   H55   1.084721 S    
C2    N2    1.333368 A    
N8    Ni3   1.865693 S    
C58   C66   1.389396 A    
C62   C70   1.390870 A    
C52   C64   1.385410 A    
C45   C72   1.417115 S    
C60   C68   1.388162 A    
C3    H3    1.072169 S    
N11   Ni6   1.858850 S    
C61   C69   1.394818 A    
N15   Ni8   1.858850 S    
C43   C66   1.402592 S    
C59   C67   1.397061 A    
C16   H48   1.076157 S    
C14   N14   1.323386 A    
N10   Ni6   1.862352 S    
C41   C68   1.405124 S    
C57   C65   1.397130 A    
N32   Ni8   1.857775 S    
N9    Ni5   1.862352 S    
H27   C84   1.083888 S    
C17   N33   1.432693 S    
C26   C36   1.382987 A    
C75   H36   1.087392 S    
N35   O6    1.300194 A    
N5    Ni3   1.862611 S    
C15   C47   1.369733 A    
C55   C72   1.391403 A    
C50   H50   1.084094 S    
C73   H34   1.087607 S    
C53   C70   1.396308 A    
C1    C33   1.384991 A    
C79   H40   1.087303 S    
C6    N6    1.333323 A    
C30   H14   1.076748 S    
C3    C35   1.383194 A    
C25   N25   1.339886 A    
C81   C86   1.441251 S    
N37   O10   1.300174 A    
C52   C67   1.397293 A    
N14   Ni8   1.862352 S    
C29   C39   1.389041 A    
C27   H11   1.078012 S    
N17   Ni2   1.863745 S    
C35   C73   1.455758 S    
C28   C34   1.383167 A    
C12   H44   1.080228 S    
N15   N23   1.362363 A    
N4    Ni1   1.865693 S    
N34   O4    1.300301 A    
C33   C75   1.463808 S    
C4    C36   1.379308 A    
C49   C61   1.380166 A    
C25   C35   1.380082 A    
C11   C43   1.366031 A    
N40   O15   1.299205 A    
C4    H4    1.075397 S    
C75   C83   1.339297 D    
C54   C58   1.362851 A    
C5    H5    1.073126 S    
N12   N20   1.362363 A    
C53   C57   1.385711 A    
N13   N21   1.362341 A    
C20   N20   1.341387 A    
C7    H7    1.074366 S    
N7    Ni4   1.865695 S    
C83   C88   1.455766 S    
C21   C45   1.371657 A    
N14   N22   1.362341 A    
C8    H8    1.072105 S    
C31   C37   1.388236 A    
C32   N32   1.345721 A    
N23   Ni3   1.866688 S    
N31   Ni7   1.857771 S    
C27   N27   1.345244 A    
C32   C38   1.381785 A    
N3    Ni2   1.865695 S    
C26   H10   1.081543 S    
C8    C40   1.377189 A    
C19   N35   1.437266 S    
N21   Ni4   1.863745 S    
N28   Ni6   1.857775 S    
C74   H33   1.087213 S    
C7    C39   1.386093 A    
N10   N18   1.362341 A    
C59   H19   1.084108 S    
N4    N26   1.397790 A    
H31   C88   1.083990 S    
N6    Ni4   1.862614 S    
C56   H56   1.084498 S    
C82   C85   1.457120 S    
C54   H54   1.084350 S    
C18   N34   1.429328 S    
N13   Ni7   1.862352 S    
C15   H47   1.081369 S    
N16   N24   1.362363 A    
C78   H37   1.087363 S    
C30   C40   1.378443 A    
C28   N28   1.346763 A    
C47   C70   1.417218 S    
C19   C43   1.371583 A    
C24   N40   1.428945 S    
N12   Ni5   1.858853 S    
C64   C72   1.396025 A    
C5    N5    1.337191 A    
C79   C87   1.340588 D    
C53   H53   1.083377 S    
N35   O5    1.300839 A    
C37   C79   1.466299 S    
C51   H51   1.083636 S    
C38   C80   1.465631 S    
C6    H6    1.075195 S    
C55   C59   1.366058 A    
C76   C84   1.341122 D    
C49   H49   1.083552 S    
C22   C46   1.387667 A    
N3    N25   1.397785 A    
C22   N38   1.432907 S    
C25   H9    1.081555 S    
C22   N22   1.340717 A    
C21   N37   1.438435 S    
C46   C71   1.413370 S    
C1    H1    1.074096 S    
C12   C44   1.375051 A    
N7    N29   1.397785 A    
H32   C87   1.084619 S    
C3    N3    1.329938 A    
C10   H42   1.080363 S    
C48   C69   1.412205 S    
C18   N18   1.339317 A    
N26   Ni5   1.861348 S    
C42   C67   1.425942 S    
H26   C81   1.084729 S    
N8    N30   1.397790 A    
N25   Ni6   1.861350 S    
C16   C48   1.371379 A    
C31   H15   1.079351 S    
C29   N29   1.344784 A    
C20   N36   1.428904 S    
N11   N19   1.362363 A    
C74   C82   1.340494 D    
N22   Ni3   1.863747 S    
C2    C34   1.378697 A    
N24   Ni4   1.866688 S    
H30   C85   1.084762 S    
N36   O8    1.300375 A    
C2    H2    1.075789 S    
C11   H43   1.081724 S    
C6    C38   1.379501 A    
C56   C60   1.365677 A    
C80   H39   1.087278 S    
N34   O3    1.299354 A    
C26   N26   1.346376 A    
C23   N23   1.331048 A    
C29   H13   1.079378 S    
C73   C81   1.335316 D    
C24   N24   1.335797 A    
N18   Ni1   1.863747 S    
N2    N28   1.397779 A    
C24   C48   1.379013 A    
C10   N10   1.326409 A    
N30   Ni7   1.861348 S    
C76   H35   1.087177 S    
C40   C78   1.451998 S    
C30   N30   1.344677 A    
C84   C87   1.458150 S    
C77   H38   1.087328 S    
C27   C33   1.387814 A    
C13   H45   1.081398 S    
C51   C68   1.396125 A    
N29   Ni8   1.861350 S    
C20   C44   1.386666 A    
C34   C76   1.467376 S    
C64   H24   1.083375 S    
C49   C66   1.394158 A    
C31   N31   1.345190 A    
C4    N4    1.333175 A    
C36   C74   1.466598 S    
C10   C42   1.376343 A    
C17   N17   1.326413 A    
C62   H22   1.084736 S    
C78   C86   1.336859 D    
C9    C41   1.369381 A    
C51   C63   1.380133 A    
C28   H12   1.081553 S    
C11   N11   1.327188 A    
N38   O11   1.297859 A    
C44   C65   1.426661 S    
C9    H41   1.081107 S    
C5    C37   1.385477 A    
C52   H52   1.083147 S    
N16   Ni7   1.858853 S    
C13   C45   1.370647 A    
C19   N19   1.327422 A    
C23   N39   1.439213 S    
N1    Ni1   1.862611 S    
N5    N31   1.397784 A    
C15   N15   1.334167 A    
C7    N7    1.335450 A    
C21   N21   1.329136 A    
N20   Ni2   1.866688 S    
C8    N8    1.329142 A    
N33   O2    1.299033 A    
H25   C82   1.083923 S    
C16   N16   1.324776 A    
N37   O9    1.300732 A    
N2    Ni2   1.862614 S    
C63   C71   1.393413 A    
C9    N9    1.329218 A    
H28   C83   1.084974 S    
N6    N32   1.397779 A    
N39   O13   1.300812 A    
C58   H18   1.084860 S    
H29   C86   1.086369 S    
C57   H17   1.083062 S    
C1    N1    1.334912 A    
C12   N12   1.326552 A    
C14   C46   1.369684 A    
N33   O1    1.300391 A    
C39   C77   1.465061 S    
N9    N17   1.362341 A    
C13   N13   1.334778 A    
N27   Ni5   1.857771 S    
C23   C47   1.372493 A    
C54   C69   1.395629 A    
N40   O16   1.300463 A    
C56   C71   1.397132 A    
C18   C42   1.387251 A    
N36   O7    1.298941 A    
C60   H20   1.084559 S    
C61   H21   1.083456 S    
C77   C85   1.339911 D    
C14   H46   1.080318 S    
C50   C62   1.366321 A    
C32   H16   1.081504 S    
N38   O12   1.300765 A    
N39   O14   1.300210 A    
C63   H23   1.083556 S    
