data_mof_unit_57480.cif
_audit_creation_date              2012-12-10T17:22:40-0500
_audit_creation_method            fapswitch 2.2
_symmetry_space_group_name_H-M    P1
_symmetry_Int_Tables_number       1
_space_group_crystal_system       triclinic
_cell_length_a                    10.641875
_cell_length_b                    10.858135
_cell_length_c                    9.582513
_cell_angle_alpha                 89.380906
_cell_angle_beta                  89.463588
_cell_angle_gamma                 91.661579
_cell_volume                      1106.68611125

loop_
_atom_site_label
_atom_site_type_symbol
_atom_type_description
_atom_site_fract_x
_atom_site_fract_y
_atom_site_fract_z
_atom_type_partial_charge
C1    C     C_R   0.505754 0.262128 0.501964 0.819767
C2    C     C_3   0.961651 0.508139 0.366405 -0.137592
C3    C     C_3   0.040417 0.404754 0.429426 0.256945
C4    C     C_3   0.122598 0.501612 0.502682 -0.082303
C5    C     C_R   0.511165 0.109815 0.771098 -0.176969
C6    C     C_R   0.469000 0.046597 0.890774 -0.170658
C7    C     C_R   0.410223 0.931541 0.879351 -0.112480
C8    C     C_R   0.404036 0.875053 0.749816 -0.140961
C9    C     C_R   0.457363 0.933470 0.629154 0.090838
C10   C     C_R   0.493333 0.059137 0.636267 0.106223
C11   C     C_R   0.509067 0.127147 0.508356 -0.122315
C12   C     C_R   0.259486 0.500982 0.500810 0.856824
C13   C     C_R   0.512785 0.064404 0.381475 -0.177550
C14   C     C_R   0.502880 0.937411 0.379134 -0.187173
C15   C     C_R   0.477693 0.870603 0.502210 -0.116007
C16   C     C_R   0.657041 0.669490 0.140594 -0.210042
C17   C     C_R   0.722864 0.763977 0.069070 0.012840
C18   C     C_R   0.726021 0.761342 0.924323 -0.227243
C19   C     C_R   0.659499 0.669802 0.853410 -0.140423
C20   C     C_R   0.578419 0.583127 0.923539 0.207409
C21   C     C_R   0.578218 0.582790 0.072820 0.186093
C22   C     C_R   0.425867 0.420668 0.075694 -0.033029
C23   C     C_R   0.489824 0.736904 0.500044 0.766284
C24   C     C_R   0.425910 0.420701 0.927680 -0.034764
C25   C     C_R   0.740530 0.500002 0.499247 0.789717
C26   C     C_3   0.036924 0.493605 0.632143 0.316804
C27   C     C_3   0.953774 0.395309 0.559526 -0.231030
C28   C     C_3   0.877273 0.500070 0.497587 -0.079492
C29   C     C_3   0.958413 0.598117 0.571250 -0.194861
C30   C     C_3   0.045435 0.605870 0.440584 -0.263560
Cu1   Cu    Cu3+1 0.499990 0.499990 0.640660 0.948305
Cu2   Cu    Cu3+1 0.500010 0.500010 0.359340 0.951840
H1    H     H_    0.913921 0.309040 0.607517 0.154982
H2    H     H_    0.372691 0.884388 0.971443 0.148793
H3    H     H_    0.355216 0.786525 0.745401 0.173486
H4    H     H_    0.515344 0.891597 0.280313 0.168834
H5    H     H_    0.365038 0.355725 0.132373 0.181566
H6    H     H_    0.667296 0.669772 0.249669 0.204970
H7    H     H_    0.780792 0.830026 0.865408 0.149091
H8    H     H_    0.674231 0.673050 0.743784 0.200540
H9    H     H_    0.365206 0.355731 0.873711 0.175545
H10   H     H_    0.921916 0.677520 0.629658 0.145654
H11   H     H_    0.085502 0.691983 0.392450 0.167570
H12   H     H_    0.928078 0.513532 0.257199 0.180469
H13   H     H_    0.526078 0.113414 0.283136 0.160789
H14   H     H_    0.562529 0.195086 0.788515 0.166742
H15   H     H_    0.480806 0.087740 0.992442 0.133522
N1    N     N_R   0.501210 0.501210 0.147910 -0.204055
N2    N     N_R   0.501250 0.501290 0.852040 -0.207419
O1    O     O_R   0.499990 0.319640 0.618810 -0.596930
O2    O     O_R   0.500000 0.319660 0.381240 -0.576753
O3    O     O_R   0.316850 0.499960 0.618770 -0.555911
O4    O     O_R   0.316860 0.499980 0.381190 -0.550483
O5    O     O_R   0.500000 0.680340 0.618760 -0.613395
O6    O     O_R   0.500010 0.680360 0.381190 -0.603718
O7    O     O_R   0.683140 0.500020 0.618810 -0.593540
O8    O     O_R   0.683150 0.500040 0.381230 -0.608327
C31   C     C_R   0.777558 0.870328 0.147087 0.128881
C32   C     C_R   0.833159 0.853125 0.278557 -0.169660
C33   C     C_R   0.864116 0.954157 0.361863 -0.115908
C34   C     C_R   0.841127 0.073376 0.314690 -0.038730
C35   C     C_R   0.791761 0.092209 0.181949 -0.116127
C36   C     C_R   0.760178 0.991426 0.098369 -0.170147
H16   H     H_    0.849928 0.761602 0.318525 0.122815
H17   H     H_    0.903771 0.939786 0.464168 0.130995
H18   H     H_    0.860821 0.151143 0.381385 0.147146
H19   H     H_    0.774575 0.184827 0.145368 0.145575
H20   H     H_    0.716879 0.008127 0.998512 0.134856
Br1   Br    Br    0.085188 0.484245 0.826471 -0.522316
Br2   Br    Br    0.107707 0.268669 0.325952 -0.550843

loop_
_geom_bond_atom_site_label_1
_geom_bond_atom_site_label_2
_ccdc_geom_bond_type
C22   N1    A    
C16   C21   A    
C29   H10   S    
C19   C20   A    
C1    C11   S    
C25   O7    A    
Cu1   O3    S    
C7    C8    A    
C27   H1    S    
C25   C28   S    
C32   H16   S    
C35   C36   A    
C35   H19   S    
C28   C29   S    
C14   H4    S    
C5    C6    A    
C31   C36   A    
C18   C19   A    
C34   H18   S    
C2    H12   S    
C8    C9    A    
Cu1   O7    S    
C4    C12   S    
C1    O1    A    
Cu2   O6    S    
C12   O4    A    
C17   C31   S    
C21   N1    A    
C15   C23   S    
C32   C33   A    
C13   C14   A    
C24   H9    S    
Cu2   N1    S    
C25   O8    A    
Cu2   O8    S    
Cu1   N2    S    
C12   O3    A    
C6    H15   S    
C3    Br2   S    
C10   C11   A    
C16   C17   A    
C31   C32   A    
C22   H5    S    
C33   C34   A    
C8    H3    S    
C18   H7    S    
Cu2   O2    S    
C29   C30   S    
C20   N2    A    
Cu1   Cu2   S    
C17   C18   A    
C26   C27   S    
C1    O2    A    
C33   H17   S    
C7    H2    S    
C22   C24   A    
C30   H11   S    
Cu1   O1    S    
C3    C4    S    
Cu2   O4    S    
C23   O5    A    
C9    C10   A    
C24   N2    A    
C36   H20   S    
C4    C26   S    
C23   O6    A    
C6    C7    A    
C5    H14   S    
C2    C30   S    
C3    C27   S    
C2    C3    S    
C9    C15   A    
C5    C10   A    
C13   H13   S    
C11   C13   A    
Cu1   O5    S    
C34   C35   A    
C19   H8    S    
C20   C21   A    
C26   C29   S    
C27   C28   S    
C26   Br1   S    
C14   C15   A    
C2    C28   S    
C4    C30   S    
C16   H6    S    
