data_mof_unit_31578.cif
_audit_creation_date              2012-12-10T21:24:29-0500
_audit_creation_method            fapswitch 2.2
_symmetry_space_group_name_H-M    P1
_symmetry_Int_Tables_number       1
_space_group_crystal_system       triclinic
_cell_length_a                    16.799886
_cell_length_b                    16.119257
_cell_length_c                    17.602576
_cell_angle_alpha                 88.845301
_cell_angle_beta                  89.362146
_cell_angle_gamma                 95.579625
_cell_volume                      4742.84824333

loop_
_atom_site_label
_atom_site_type_symbol
_atom_type_description
_atom_site_fract_x
_atom_site_fract_y
_atom_site_fract_z
_atom_type_partial_charge
C1    C     C_R   0.499762 0.502343 0.647067 0.932715
C2    C     C_R   0.425426 0.493596 0.850461 0.418172
C3    C     C_R   0.492830 0.471076 0.114394 -0.258535
C4    C     C_R   0.497333 0.484007 0.887711 -0.283183
C5    C     C_1   0.494045 0.464806 0.034464 0.114032
C6    C     C_1   0.495866 0.469083 0.967074 0.113663
C7    C     C_R   0.160681 0.434372 0.534538 0.280821
C8    C     C_R   0.837866 0.540220 0.442574 0.273601
C9    C     C_R   0.245937 0.435741 0.535277 0.379657
C10   C     C_R   0.753872 0.548977 0.448780 0.378364
C11   C     C_R   0.258687 0.566243 0.467652 0.447979
C12   C     C_R   0.500026 0.498092 0.353280 1.023007
C13   C     C_R   0.743300 0.452232 0.552562 0.437097
C14   C     C_R   0.174060 0.569808 0.470975 0.234254
C15   C     C_R   0.828285 0.460762 0.559864 0.208018
C16   C     C_R   0.488456 0.344485 0.502895 0.985315
C17   C     C_R   0.510903 0.655312 0.500495 0.932300
C18   C     C_R   0.124610 0.502414 0.503747 -0.224081
C19   C     C_R   0.876011 0.500112 0.501511 -0.200559
C20   C     C_1   0.036626 0.500701 0.502841 0.113141
C21   C     C_1   0.963729 0.500161 0.502404 0.140479
C22   C     C_R   0.477551 0.257189 0.527279 -0.257491
C23   C     C_R   0.436607 0.434078 0.239090 0.350281
C24   C     C_R   0.517729 0.742570 0.520591 -0.298163
C25   C     C_R   0.517785 0.234445 0.592211 -0.455299
C26   C     C_R   0.478785 0.762877 0.587272 -0.429887
C27   C     C_R   0.507485 0.153392 0.621408 0.464710
C28   C     C_R   0.489374 0.843043 0.615274 0.479540
C29   C     C_R   0.455674 0.093832 0.584441 0.051539
C30   C     C_R   0.536343 0.905471 0.573235 0.007963
C31   C     C_R   0.407558 0.118290 0.524660 0.258771
C32   C     C_R   0.577651 0.884935 0.507191 0.317709
C33   C     C_R   0.417911 0.201259 0.496061 0.394112
C34   C     C_R   0.572114 0.509500 0.770372 0.371554
C35   C     C_R   0.566464 0.803891 0.479273 0.404213
C36   C     C_R   0.436022 0.422412 0.159983 0.389669
C37   C     C_R   0.570939 0.494683 0.848820 0.387348
C38   C     C_3   0.260340 0.345885 0.638318 0.165125
C39   C     C_3   0.328156 0.304489 0.676332 -0.329661
C40   C     C_3   0.307541 0.280668 0.759019 -0.936547
C41   C     C_3   0.756635 0.685115 0.398628 0.166574
C42   C     C_3   0.766246 0.725842 0.476758 -0.383358
C43   C     C_3   0.800809 0.816743 0.468958 -0.884826
C44   C     C_3   0.307420 0.704786 0.452168 -0.206510
C45   C     C_R   0.498192 0.488315 0.271040 -0.415789
C46   C     C_3   0.711129 0.316101 0.588272 -0.251841
C47   C     C_3   0.110633 0.688501 0.484601 0.095359
C48   C     C_3   0.077710 0.760045 0.440520 -0.309711
C49   C     C_3   0.043690 0.821529 0.493940 -0.986760
C50   C     C_3   0.852415 0.472321 0.686203 0.119139
C51   C     C_3   0.900669 0.440311 0.751685 -0.312118
C52   C     C_3   0.886440 0.486682 0.824614 -0.978306
C53   C     C_3   0.498965 0.854123 0.744362 0.135487
C54   C     C_3   0.484572 0.766519 0.780783 -0.384955
C55   C     C_3   0.529180 0.760106 0.855383 -1.010430
C56   C     C_R   0.499191 0.505413 0.730488 -0.451296
C57   C     C_3   0.515927 0.141708 0.750861 0.091238
C58   C     C_3   0.540543 0.229024 0.781308 -0.376637
C59   C     C_3   0.519990 0.234429 0.865644 -0.900285
C60   C     C_3   0.379152 0.020489 0.433963 0.107791
C61   C     C_3   0.309872 0.970466 0.394884 -0.319836
C62   C     C_3   0.339434 0.921267 0.328888 -1.005184
C63   C     C_3   0.588731 0.989328 0.416694 0.118748
C64   C     C_3   0.648580 0.034915 0.360651 -0.320826
C65   C     C_3   0.606631 0.087860 0.303635 -0.972757
C66   C     C_3   0.293363 0.216645 0.446912 -0.115148
C67   C     C_R   0.556532 0.533025 0.224523 0.327099
C68   C     C_3   0.549305 0.767278 0.354644 -0.282461
C69   C     C_3   0.330593 0.387719 0.079369 -0.295607
C70   C     C_3   0.669180 0.552009 0.927382 -0.265338
C71   C     C_3   0.301994 0.398524 0.273834 0.170899
C72   C     C_3   0.284045 0.490369 0.266231 -0.436762
C73   C     C_3   0.194193 0.497920 0.267839 -0.901550
C74   C     C_3   0.677242 0.606949 0.740541 0.087096
C75   C     C_3   0.664273 0.657986 0.668330 -0.322573
C76   C     C_3   0.701224 0.747858 0.674760 -1.006128
C77   C     C_3   0.690213 0.546972 0.245116 -0.131578
C78   C     C_R   0.425794 0.501908 0.771466 0.374686
C79   C     C_3   0.329592 0.578607 0.724174 -0.240398
C80   C     C_3   0.565625 0.658330 0.089024 -0.323780
C81   C     C_3   0.343743 0.562474 0.926200 -0.354545
C82   C     C_3   0.092636 0.309762 0.508625 -0.296332
C83   C     C_3   0.890635 0.509922 0.328482 -0.309407
C84   C     C_R   0.548394 0.530441 0.145846 0.391001
H1    H     H_    0.440917 0.715646 0.618506 0.180671
H2    H     H_    0.720490 0.723335 0.362199 0.212148
H3    H     H_    0.365516 0.618679 0.891161 0.146496
H4    H     H_    0.374435 0.564623 0.981672 0.158400
H5    H     H_    0.279146 0.565872 0.937877 0.192534
H6    H     H_    0.146592 0.282777 0.487208 0.141832
H7    H     H_    0.061007 0.337847 0.460752 0.155590
H8    H     H_    0.051684 0.257861 0.533400 0.192129
H9    H     H_    0.831603 0.478142 0.312546 0.133685
H10   H     H_    0.929626 0.463425 0.350928 0.169159
H11   H     H_    0.919483 0.538344 0.275931 0.187966
H12   H     H_    0.814501 0.688274 0.367816 0.165860
H13   H     H_    0.707168 0.722610 0.505663 0.265244
H14   H     H_    0.806913 0.692129 0.512856 0.187847
H15   H     H_    0.861150 0.820850 0.441917 0.252338
H16   H     H_    0.806098 0.844549 0.526096 0.267474
H17   H     H_    0.761294 0.853039 0.433966 0.309742
H18   H     H_    0.301322 0.705830 0.515278 0.122727
H19   H     H_    0.261221 0.738651 0.423989 0.185024
H20   H     H_    0.365581 0.739944 0.436846 0.165795
H21   H     H_    0.556150 0.280725 0.621214 0.217587
H22   H     H_    0.775342 0.306052 0.582397 0.182009
H23   H     H_    0.679560 0.293278 0.536485 0.168535
H24   H     H_    0.688431 0.276726 0.637693 0.192749
H25   H     H_    0.158736 0.714628 0.522747 0.107949
H26   H     H_    0.061460 0.657351 0.520601 0.144011
H27   H     H_    0.126233 0.793591 0.405071 0.212529
H28   H     H_    0.029588 0.734347 0.402277 0.248224
H29   H     H_    0.993685 0.789718 0.528675 0.269866
H30   H     H_    0.020587 0.872703 0.460132 0.266698
H31   H     H_    0.091008 0.848878 0.532138 0.269083
H32   H     H_    0.207413 0.298957 0.638435 0.174836
H33   H     H_    0.788175 0.465273 0.703330 0.220990
H34   H     H_    0.872337 0.539717 0.675698 0.108354
H35   H     H_    0.882965 0.372665 0.761603 0.236795
H36   H     H_    0.965407 0.448846 0.736514 0.232972
H37   H     H_    0.904316 0.554458 0.816253 0.255195
H38   H     H_    0.922627 0.462523 0.871015 0.270163
H39   H     H_    0.822284 0.477180 0.841703 0.297039
H40   H     H_    0.482765 0.900181 0.786572 0.161035
H41   H     H_    0.563880 0.869945 0.730944 0.125478
H42   H     H_    0.419519 0.751146 0.791962 0.223679
H43   H     H_    0.246170 0.400498 0.672021 0.181860
H44   H     H_    0.505202 0.719931 0.741452 0.206184
H45   H     H_    0.594474 0.775131 0.845874 0.263419
H46   H     H_    0.518460 0.695504 0.879009 0.252644
H47   H     H_    0.507570 0.803590 0.897358 0.269834
H48   H     H_    0.535575 0.094428 0.791538 0.169413
H49   H     H_    0.449370 0.130031 0.748355 0.120022
H50   H     H_    0.606051 0.244569 0.773182 0.252924
H51   H     H_    0.509142 0.276008 0.749446 0.210833
H52   H     H_    0.455158 0.217193 0.876070 0.255849
H53   H     H_    0.535438 0.299188 0.884699 0.286903
H54   H     H_    0.339153 0.247296 0.645228 0.199482
H55   H     H_    0.554673 0.191981 0.899592 0.262824
H56   H     H_    0.421222 0.976119 0.454290 0.127322
H57   H     H_    0.410058 0.065505 0.391736 0.155492
H58   H     H_    0.277677 0.926291 0.436717 0.225087
H59   H     H_    0.267203 0.013529 0.373126 0.219624
H60   H     H_    0.371825 0.964012 0.286145 0.273786
H61   H     H_    0.287641 0.886593 0.301199 0.272400
H62   H     H_    0.379909 0.875749 0.349929 0.249771
H63   H     H_    0.556813 0.036688 0.446441 0.132953
H64   H     H_    0.545067 0.948175 0.383806 0.123100
H65   H     H_    0.384013 0.347362 0.673934 0.249593
H66   H     H_    0.693171 0.075962 0.392247 0.227031
H67   H     H_    0.680669 0.988596 0.329545 0.228333
H68   H     H_    0.562502 0.047892 0.270610 0.265753
H69   H     H_    0.651500 0.120126 0.263592 0.269505
H70   H     H_    0.575319 0.135566 0.333593 0.271171
H71   H     H_    0.275865 0.214376 0.508282 0.155972
H72   H     H_    0.266676 0.159695 0.418945 0.159372
H73   H     H_    0.267110 0.270366 0.420488 0.151205
H74   H     H_    0.579239 0.782695 0.298960 0.190177
H75   H     H_    0.496394 0.803638 0.357828 0.110831
H76   H     H_    0.299080 0.337101 0.792179 0.313057
H77   H     H_    0.529732 0.699523 0.355304 0.190030
H78   H     H_    0.349957 0.378668 0.019937 0.221828
H79   H     H_    0.319978 0.454180 0.087609 0.130924
H80   H     H_    0.272265 0.349902 0.087645 0.173902
H81   H     H_    0.687521 0.530385 0.984175 0.226316
H82   H     H_    0.624649 0.598127 0.935949 0.150115
H83   H     H_    0.723107 0.584227 0.898871 0.148489
H84   H     H_    0.266983 0.370558 0.323326 0.141875
H85   H     H_    0.279210 0.362364 0.224577 0.166472
H86   H     H_    0.311813 0.526288 0.313468 0.291198
H87   H     H_    0.356983 0.249162 0.784305 0.258674
H88   H     H_    0.309346 0.518533 0.212051 0.191979
H89   H     H_    0.165001 0.463691 0.219853 0.245040
H90   H     H_    0.183246 0.564614 0.262518 0.291995
H91   H     H_    0.167203 0.472250 0.322324 0.260239
H92   H     H_    0.742579 0.607142 0.749686 0.144665
H93   H     H_    0.652610 0.638571 0.790208 0.117438
H94   H     H_    0.691557 0.628858 0.619008 0.228281
H95   H     H_    0.599215 0.658483 0.658559 0.209601
H96   H     H_    0.678598 0.776476 0.726540 0.266847
H97   H     H_    0.684820 0.785259 0.624738 0.274010
H98   H     H_    0.252062 0.237196 0.762628 0.257235
H99   H     H_    0.767413 0.749794 0.677127 0.266394
H100  H     H_    0.700976 0.529217 0.185431 0.150373
H101  H     H_    0.691106 0.491216 0.283210 0.152752
H102  H     H_    0.741065 0.592669 0.259543 0.185519
H103  H     H_    0.380264 0.625841 0.709228 0.117486
H104  H     H_    0.297742 0.597443 0.775547 0.171614
H105  H     H_    0.286956 0.577720 0.676433 0.156714
H106  H     H_    0.559509 0.690413 0.143907 0.185011
H107  H     H_    0.506697 0.648933 0.060498 0.143349
H108  H     H_    0.606123 0.699940 0.051591 0.183469
N1    N     N_2   0.461642 0.007866 0.594906 -0.092636
N2    N     N_2   0.532005 0.990753 0.586855 -0.103997
N3    N     N_R   0.292770 0.500020 0.499970 -0.190866
N4    N     N_R   0.707230 0.499980 0.500030 -0.200567
O1    O     O_R   0.433430 0.500000 0.610870 -0.581506
O2    O     O_3   0.716243 0.603358 0.402343 -0.579378
O3    O     O_3   0.306958 0.623503 0.423546 -0.574671
O4    O     O_3   0.696434 0.399663 0.601652 -0.547953
O5    O     O_3   0.140183 0.633011 0.432170 -0.600947
O6    O     O_3   0.864853 0.425403 0.620967 -0.613168
O7    O     O_3   0.448976 0.861491 0.680766 -0.622244
O8    O     O_3   0.554718 0.130359 0.680553 -0.618204
O9    O     O_3   0.348588 0.061637 0.496302 -0.629959
O10   O     O_3   0.630495 0.943899 0.469998 -0.605803
O11   O     O_3   0.376753 0.226821 0.433238 -0.588518
O12   O     O_R   0.566570 0.500000 0.389130 -0.562957
O13   O     O_3   0.605263 0.786466 0.412570 -0.602936
O14   O     O_3   0.386256 0.357457 0.130279 -0.580835
O15   O     O_3   0.641520 0.481473 0.885180 -0.577466
O16   O     O_3   0.383419 0.386873 0.287816 -0.580658
O17   O     O_3   0.645091 0.522877 0.732484 -0.572414
O18   O     O_3   0.618133 0.584150 0.255552 -0.574524
O19   O     O_3   0.353329 0.497638 0.734530 -0.572344
O20   O     O_3   0.599345 0.582221 0.099407 -0.605353
O21   O     O_3   0.352993 0.486677 0.889561 -0.578831
O22   O     O_3   0.112414 0.367766 0.565922 -0.595590
O23   O     O_R   0.566520 0.499990 0.610900 -0.543686
O24   O     O_3   0.882698 0.573582 0.381026 -0.603277
O25   O     O_R   0.433480 0.500010 0.389100 -0.583592
O26   O     O_R   0.426030 0.383870 0.500690 -0.529915
O27   O     O_R   0.573970 0.616130 0.499310 -0.587344
O28   O     O_R   0.559120 0.383870 0.500710 -0.614358
O29   O     O_R   0.440880 0.616130 0.499290 -0.593664
O30   O     O_3   0.283355 0.368345 0.562623 -0.615881
Zn1   Zn    Zn3+2 0.411140 0.500000 0.499980 1.018869
Zn2   Zn    Zn3+2 0.588860 0.500000 0.500020 1.011339

loop_
_geom_bond_atom_site_label_1
_geom_bond_atom_site_label_2
_ccdc_geom_bond_type
C49   H29   S    
N4    Zn2   S    
C34   C56   A    
C23   C45   A    
C13   O4    S    
C27   C29   A    
C50   H33   S    
C77   H101  S    
C41   C42   S    
C14   C18   A    
C57   H48   S    
C16   O26   A    
C69   H80   S    
C38   H43   S    
C44   H20   S    
C25   H21   S    
C80   O20   S    
C30   N2    S    
C53   C54   S    
C58   H50   S    
C15   C19   A    
C41   H2    S    
C54   H42   S    
C34   O17   S    
C53   O7    S    
C79   H103  S    
C17   O27   A    
C81   H4    S    
C72   H88   S    
C19   C21   S    
C1    C56   S    
C43   H15   S    
C31   O9    S    
C42   H14   S    
C5    C6    T    
C52   H39   S    
C60   O9    S    
C41   H12   S    
C23   O16   S    
C59   H53   S    
C83   H9    S    
C14   O5    S    
O28   Zn2   S    
C59   H52   S    
C77   H100  S    
C56   C78   A    
C47   O5    S    
C83   O24   S    
C73   H90   S    
C75   H94   S    
C37   O15   S    
C65   H69   S    
O29   Zn1   S    
C24   C35   A    
C7    O22   S    
C17   O29   A    
C61   H59   S    
C4    C37   A    
C55   H45   S    
C63   O10   S    
C46   H24   S    
C45   C67   A    
C2    O21   S    
C51   H35   S    
C31   C33   A    
C9    O30   S    
O23   Zn2   S    
C68   H75   S    
C75   H95   S    
C38   O30   S    
C81   H5    S    
C55   H46   S    
C79   O19   S    
C49   H30   S    
C39   H54   S    
C83   H11   S    
C67   C84   A    
C70   O15   S    
C80   H108  S    
C57   H49   S    
C52   H38   S    
C68   H74   S    
C68   O13   S    
C10   O2    S    
C63   H63   S    
C44   H19   S    
C77   O18   S    
C50   C51   S    
C40   H98   S    
C50   O6    S    
C38   C39   S    
C8    C19   A    
C74   C75   S    
C64   H67   S    
C51   C52   S    
C17   C24   S    
C32   C35   A    
C71   O16   S    
C43   H16   S    
C13   N4    A    
C4    C6    S    
C79   H104  S    
C70   H81   S    
C62   H60   S    
C39   C40   S    
C44   H18   S    
O27   Zn2   S    
C72   C73   S    
C3    C5    S    
C58   C59   S    
C68   H77   S    
C83   H10   S    
C54   H44   S    
C62   H61   S    
C82   H7    S    
C27   O8    S    
C64   H66   S    
C60   C61   S    
C72   H86   S    
C73   H91   S    
C2    C4    A    
C75   C76   S    
C43   H17   S    
C74   H92   S    
C65   H70   S    
C8    O24   S    
C10   N4    A    
C60   H57   S    
C38   H32   S    
C52   H37   S    
C46   O4    S    
C47   C48   S    
C82   O22   S    
C59   H55   S    
C77   H102  S    
C7    C18   A    
C81   O21   S    
C46   H23   S    
C71   H85   S    
C51   H36   S    
C1    O23   A    
C69   H78   S    
C81   H3    S    
C53   H41   S    
C60   H56   S    
O1    Zn1   S    
C48   C49   S    
C49   H31   S    
C22   C25   A    
C23   C36   A    
C55   H47   S    
C71   H84   S    
C13   C15   A    
C74   O17   S    
C79   H105  S    
C80   H107  S    
C42   H13   S    
C42   C43   S    
C32   O10   S    
C76   H97   S    
C76   H99   S    
C12   O12   A    
C63   H64   S    
C15   O6    S    
C2    C78   A    
C7    C9    A    
C22   C33   A    
C39   H65   S    
C54   C55   S    
C33   O11   S    
C16   C22   S    
C48   H28   S    
C50   H34   S    
C28   O7    S    
C80   H106  S    
C40   H76   S    
C1    O1    A    
C69   H79   S    
C11   N3    A    
C41   O2    S    
C76   H96   S    
C53   H40   S    
C78   O19   S    
C9    N3    A    
C12   C45   S    
C34   C37   A    
C58   H51   S    
C25   C27   A    
C47   H26   S    
O25   Zn1   S    
C26   C28   A    
C82   H6    S    
N3    Zn1   S    
C3    C36   A    
C64   C65   S    
C65   H68   S    
C70   H82   S    
C35   O13   S    
C71   C72   S    
C29   C31   A    
C47   H25   S    
C70   H83   S    
O12   Zn2   S    
C30   C32   A    
C66   O11   S    
C24   C26   A    
C57   C58   S    
C66   H71   S    
C74   H93   S    
O26   Zn1   S    
C26   H1    S    
C29   N1    S    
C46   H22   S    
C57   O8    S    
C28   C30   A    
C11   C14   A    
C18   C20   S    
C40   H87   S    
C73   H89   S    
C61   C62   S    
C11   O3    S    
C12   O25   A    
C82   H8    S    
C16   O28   A    
C63   C64   S    
C61   H58   S    
C48   H27   S    
C20   C21   T    
C44   O3    S    
C8    C10   A    
N1    N2    D    
C62   H62   S    
C3    C84   A    
C67   O18   S    
C69   O14   S    
C66   H72   S    
C66   H73   S    
C84   O20   S    
C36   O14   S    
