data_mof_unit_54169.cif
_audit_creation_date              2013-03-05T15:48:56-0500
_audit_creation_method            fapswitch 2.2
_symmetry_space_group_name_H-M    P1
_symmetry_Int_Tables_number       1
_space_group_crystal_system       triclinic
_cell_length_a                    6.944139
_cell_length_b                    13.502227
_cell_length_c                    20.1509
_cell_angle_alpha                 104.276067
_cell_angle_beta                  89.616984
_cell_angle_gamma                 90.941398
_cell_volume                      1830.77535914

loop_
_atom_site_label
_atom_site_type_symbol
_atom_site_description
_atom_site_fract_x
_atom_site_fract_y
_atom_site_fract_z
_atom_type_partial_charge
O1    O     O_R   0.506780 0.600060 0.449950 -0.589214
O2    O     O_R   0.179840 0.597110 0.589410 -0.597867
O3    O     O_R   0.004570 0.399940 0.550050 -0.592789
C1    C     C_R   0.348203 0.619061 0.616905 0.998706
O4    O     O_R   0.177380 0.612160 0.452890 -0.594426
O5    O     O_R   0.002100 0.415100 0.412560 -0.597464
C2    C     C_R   0.347928 0.639580 0.437133 1.069645
O6    O     O_R   0.509250 0.584900 0.587440 -0.601130
O7    O     O_3   0.337570 0.435330 0.486930 -0.265646
V1    V     V_3+5 0.064650 0.512000 0.502430 1.227131
O8    O     O_R   0.672090 0.402890 0.410590 -0.597440
C3    C     C_R   0.840408 0.381603 0.382922 0.990801
O9    O     O_R   0.674540 0.387840 0.547110 -0.579470
C4    C     C_R   0.842219 0.360374 0.563300 1.068247
V2    V     V_3+5 0.564040 0.488000 0.497570 1.237766
O10   O     O_3   0.840990 0.564670 0.513070 -0.271065
C5    C     C_R   0.855941 0.103540 0.606708 -0.207356
H1    H     H_    0.862139 0.978195 0.689126 0.145985
H2    H     H_    0.859471 0.022988 0.581027 0.197179
C6    C     C_R   0.847854 0.280653 0.601436 -0.302555
C7    C     C_R   0.864153 0.318383 0.931542 -0.175456
C8    C     C_R   0.859203 0.394820 0.896422 -0.094633
C9    C     C_R   0.855127 0.370106 0.825086 -0.189364
C10   C     C_R   0.855967 0.266929 0.786601 0.115256
C11   C     C_R   0.860581 0.188785 0.823097 0.103818
C12   C     C_R   0.853369 0.238717 0.713296 0.109975
C13   C     C_R   0.856239 0.133555 0.678503 0.094523
C14   C     C_R   0.860159 0.058591 0.715431 -0.146365
C15   C     C_R   0.862146 0.085542 0.786484 -0.253709
C16   C     C_R   0.848522 0.311103 0.673127 -0.320306
C17   C     C_R   0.852136 0.176095 0.567782 0.571311
C18   C     C_R   0.864588 0.215676 0.895735 -0.151897
H3    H     H_    0.845011 0.392142 0.695802 0.122138
H4    H     H_    0.867491 0.339383 0.987025 0.097977
H5    H     H_    0.851902 0.433811 0.801862 0.107334
H6    H     H_    0.858766 0.474182 0.924753 0.114860
H7    H     H_    0.865637 0.024365 0.812514 0.126608
C19   C     C_3   0.798070 0.157653 0.250965 -0.021797
C20   C     C_3   0.972027 0.216391 0.290747 -0.058016
H8    H     H_    0.069793 0.186514 0.324253 0.180637
H9    H     H_    0.750806 0.079202 0.252247 0.147304
C21   C     C_3   0.848361 0.312598 0.311978 -0.150123
C22   C     C_3   0.674227 0.254713 0.272857 -0.088449
C23   C     C_3   0.739769 0.288173 0.207886 -0.137669
C24   C     C_3   0.913576 0.347070 0.247906 -0.215765
C25   C     C_3   0.037390 0.250016 0.225896 -0.076318
C26   C     C_3   0.863445 0.191814 0.186788 -0.077499
H10   H     H_    0.524283 0.256707 0.292590 0.141374
H11   H     H_    0.643952 0.317349 0.173345 0.111448
H12   H     H_    0.961493 0.425643 0.247162 0.122140
H13   H     H_    0.187286 0.248987 0.206327 0.154709
C27   C     C_3   0.463241 0.792464 0.708087 -0.037680
C28   C     C_3   0.283709 0.841263 0.748605 -0.105841
H14   H     H_    0.223188 0.916558 0.747800 0.126968
H15   H     H_    0.553116 0.827718 0.674185 0.177185
C29   C     C_3   0.358457 0.811134 0.812471 -0.092493
C30   C     C_3   0.538296 0.763127 0.772740 -0.154707
C31   C     C_3   0.429124 0.659250 0.751451 -0.169135
C32   C     C_3   0.249595 0.708063 0.792021 -0.149333
C33   C     C_3   0.174477 0.737382 0.727311 -0.084338
C34   C     C_3   0.354417 0.689331 0.687535 -0.084432
H16   H     H_    0.688921 0.773923 0.791636 0.121231
H17   H     H_    0.489774 0.583951 0.752168 0.110878
H18   H     H_    0.161184 0.673823 0.826979 0.105765
H19   H     H_    0.023911 0.726818 0.708342 0.118671
C35   C     C_R   0.412847 0.894904 0.395495 -0.152694
H20   H     H_    0.399143 0.021573 0.315950 0.165885
H21   H     H_    0.432966 0.974794 0.421480 0.209515
C36   C     C_R   0.363882 0.719184 0.399769 -0.297010
C37   C     C_R   0.349973 0.683876 0.070825 -0.168578
C38   C     C_R   0.356254 0.607320 0.105706 -0.086231
C39   C     C_R   0.367763 0.631828 0.176820 -0.156043
C40   C     C_R   0.369802 0.734842 0.215447 0.098277
C41   C     C_R   0.362973 0.813834 0.179626 -0.058599
C42   C     C_R   0.377060 0.761840 0.288599 0.111756
C43   C     C_R   0.399745 0.865974 0.323916 0.046532
C44   C     C_R   0.396931 0.941695 0.288206 -0.267594
C45   C     C_R   0.364656 0.917128 0.218079 0.293323
C46   C     C_R   0.356485 0.689468 0.328217 -0.295755
C47   C     C_R   0.396493 0.822206 0.433865 0.479162
C48   C     C_R   0.354664 0.786701 0.106520 -0.159366
H22   H     H_    0.330142 0.609466 0.305189 0.117151
H23   H     H_    0.345100 0.662796 0.015349 0.092522
H24   H     H_    0.378890 0.568210 0.199926 0.099607
H25   H     H_    0.355231 0.528001 0.077268 0.109026
O11   O     O_R   0.203580 0.914920 0.912610 -0.604919
O12   O     O_R   0.535710 0.887810 0.047120 -0.595000
O13   O     O_R   0.710730 0.084950 0.087430 -0.574603
C49   C     C_R   0.366121 0.862808 0.065380 0.990560
O14   O     O_R   0.533010 0.902850 0.910600 -0.606433
O15   O     O_R   0.708010 0.100090 0.949930 -0.598941
C50   C     C_R   0.364673 0.881036 0.883112 0.902963
O16   O     O_R   0.206300 0.899780 0.050100 -0.559296
O17   O     O_3   0.375170 0.064580 0.013100 -0.263083
V3    V     V_3+5 0.648200 0.988020 0.997570 1.192030
O18   O     O_R   0.038030 0.112330 0.952840 -0.605563
C51   C     C_R   0.870439 0.138081 0.935450 0.903369
O19   O     O_R   0.040730 0.097300 0.089360 -0.550145
C52   C     C_R   0.871974 0.121048 0.116241 0.991205
V4    V     V_3+5 0.148780 0.012220 0.002360 1.214290
O20   O     O_3   0.871930 0.935430 0.986900 -0.283850
S1    S     S_3+6 0.857237 0.134681 0.477370 -0.055171
O21   O     O_2   0.035332 0.177726 0.451482 -0.329417
O22   O     O_2   0.859485 0.019931 0.454563 -0.294725
O23   O     O_3   0.661700 0.177869 0.445228 -0.545836
H26   H     H_    0.667299 0.146758 0.395317 0.346413
S2    S     S_3+6 0.418889 0.861602 0.524011 -0.058293
O24   O     O_2   0.598025 0.815874 0.544491 -0.313221
O25   O     O_2   0.433725 0.976078 0.548099 -0.279230
O26   O     O_3   0.227392 0.819796 0.561411 -0.563440
H27   H     H_    0.114948 0.851842 0.545576 0.356782
N1    N     N_R   0.288537 0.995527 0.190665 0.221830
O27   O     O_R   0.102483 0.999196 0.186434 -0.443217
O28   O     O_R   0.392490 0.076113 0.189755 -0.461763

loop_
_geom_bond_atom_site_label_1
_geom_bond_atom_site_label_2
_geom_bond_distance
_ccdc_geom_bond_type
C23   H11   1.110128 S    
C35   H21   1.083847 S    
C42   C43   1.417379 A    
C40   C42   1.429583 A    
C40   C41   1.429206 A    
H20   C44   1.085454 S    
C1    O6    1.299599 A    
N1    O28   1.299697 A    
O14   V3    2.007034 S    
C1    C34   1.503733 S    
C6    C16   1.401125 A    
C44   C45   1.388463 A    
C23   C24   1.550682 S    
C47   S2    1.769581 S    
C32   H18   1.110139 S    
C14   C15   1.387706 A    
C10   C12   1.431806 A    
C27   C34   1.538474 S    
O5    C3    1.296533 A    
C19   C20   1.548794 S    
V2    O10   2.156614 S    
C26   C52   1.506047 S    
C18   C51   1.468053 S    
S1    O23   1.681468 S    
C37   C48   1.397241 A    
O26   H27   0.990588 S    
C3    C21   1.502869 S    
C38   H25   1.082857 S    
O8    V2    1.993239 S    
O12   V3    2.014707 S    
S2    O24   1.502229 D    
C37   C38   1.387328 A    
O1    V2    2.027115 S    
O11   V4    1.994249 S    
C22   H10   1.110457 S    
C23   C26   1.539517 S    
C48   C49   1.471778 S    
C31   C34   1.538436 S    
O13   V3    2.000831 S    
C32   C33   1.549065 S    
O9    C4    1.295645 A    
S2    O25   1.503583 D    
S1    O21   1.502233 D    
N1    O27   1.297921 A    
C28   C33   1.549010 S    
C20   C21   1.538038 S    
C11   C15   1.407423 A    
C7    C18   1.396565 A    
C5    C13   1.402906 A    
C17   S1    1.769319 S    
C4    C6    1.469866 S    
C30   H16   1.110499 S    
H1    C14   1.084506 S    
C10   C11   1.428030 A    
C19   H9    1.110125 S    
C20   H8    1.108581 S    
O4    C2    1.295774 A    
C7    H4    1.083852 S    
C31   C32   1.550669 S    
C24   C25   1.548703 S    
C25   H13   1.109708 S    
O15   C51   1.292631 A    
C33   C34   1.543203 S    
C21   C24   1.539590 S    
O2    C1    1.295374 A    
C22   C23   1.549929 S    
C2    C36   1.458937 S    
O14   C50   1.294953 A    
O17   V4    1.706069 S    
C9    C10   1.417606 A    
C35   C43   1.401449 A    
O18   C51   1.294949 A    
C12   C13   1.420520 A    
C43   C44   1.388214 A    
S1    O22   1.503846 D    
C37   H23   1.084028 S    
O16   V4    2.033535 S    
C19   C26   1.539727 S    
C39   H24   1.077276 S    
O3    C4    1.293918 A    
C20   C25   1.548483 S    
C33   H19   1.110482 S    
C12   C16   1.415341 A    
O6    V2    1.993674 S    
C9    H5    1.076415 S    
O12   C49   1.295614 A    
C5    C17   1.398511 A    
S2    O26   1.681274 S    
C36   C46   1.399110 A    
C21   C22   1.540236 S    
C41   C48   1.429002 A    
O2    V1    2.006898 S    
C8    H6    1.082847 S    
C27   C28   1.550186 S    
O7    V1    2.158258 S    
C28   C29   1.537929 S    
C31   H17   1.110261 S    
C29   C30   1.542067 S    
C25   C26   1.540692 S    
C16   H3    1.077415 S    
O1    C2    1.288171 A    
C39   C40   1.416426 A    
O5    V1    2.000839 S    
C46   H22   1.078452 S    
C45   N1    1.419789 S    
O8    C3    1.297266 A    
C27   H15   1.108025 S    
C28   H14   1.110289 S    
C35   C47   1.394165 A    
O23   H26   0.990539 S    
O19   V4    1.993386 S    
C29   C32   1.537797 S    
O9    V2    2.030876 S    
O7    V2    1.708061 S    
C19   C22   1.548704 S    
O3    V1    2.018462 S    
V1    O10   1.708965 S    
C30   C31   1.548755 S    
C24   H12   1.110248 S    
C11   C18   1.418879 A    
O18   V4    2.030757 S    
V4    O20   2.156671 S    
C5    H2    1.083729 S    
C49   O16   1.293945 A    
O17   V3    2.158266 S    
O13   C52   1.295984 A    
C27   C30   1.547985 S    
O15   V3    2.018485 S    
O4    V1    2.014667 S    
C38   C39   1.391467 A    
O19   C52   1.299116 A    
C41   C45   1.418561 A    
C15   H7    1.082844 S    
C13   C14   1.397008 A    
C8    C9    1.393616 A    
C36   C47   1.406652 A    
O11   C50   1.299162 A    
C7    C8    1.388836 A    
C29   C50   1.501956 S    
C42   C46   1.411124 A    
V3    O20   1.708989 S    
C6    C17   1.408115 A    
