data_mof_unit_5679.cif
_audit_creation_date              2012-10-26T19:45:33-0400
_audit_creation_method            fapswitch 2.2
_symmetry_space_group_name_H-M    P1
_symmetry_Int_Tables_number       1
_space_group_crystal_system       triclinic
_cell_length_a                    10.853539
_cell_length_b                    9.576918
_cell_length_c                    10.799055
_cell_angle_alpha                 89.853464
_cell_angle_beta                  91.658555
_cell_angle_gamma                 89.874776
_cell_volume                      1122.01427067

loop_
_atom_site_label
_atom_site_type_symbol
_atom_type_description
_atom_site_fract_x
_atom_site_fract_y
_atom_site_fract_z
_atom_type_partial_charge
C1    C     C_R   0.262081 0.500165 0.500358 0.626668
C2    C     C_R   0.414433 0.926088 0.431467 0.003524
C3    C     C_R   0.586197 0.927500 0.568940 0.212059
C4    C     C_R   0.582669 0.075239 0.571964 0.253852
C5    C     C_R   0.490693 0.500182 0.260632 0.568945
C6    C     C_R   0.737361 0.499895 0.500347 0.585844
C7    C     C_R   0.500435 0.499873 0.740025 0.585383
C8    C     C_3   0.421980 0.634379 0.066345 -0.040139
C9    C     C_3   0.433907 0.357660 0.069195 -0.007208
C10   C     C_3   0.418900 0.628637 0.922318 -0.038012
C11   C     C_3   0.430805 0.360978 0.924806 -0.032694
C12   C     C_3   0.633026 0.504721 0.938426 0.014227
C13   C     C_3   0.623238 0.506382 0.083517 -0.298768
C14   C     C_3   0.486568 0.499610 0.123021 -0.067367
C15   C     C_3   0.495704 0.499157 0.878320 -0.001827
C16   C     C_2   0.303450 0.686573 0.121491 0.584561
C17   C     C_2   0.318483 0.297209 0.126197 0.621573
C18   C     C_2   0.705471 0.636372 0.901091 0.547459
C19   C     C_2   0.706709 0.375662 0.898194 0.571355
C20   C     C_R   0.063766 0.381630 0.543569 0.062376
C21   C     C_R   0.060425 0.619452 0.459872 0.088984
C22   C     C_R   0.935877 0.382395 0.541791 -0.088125
C23   C     C_R   0.932634 0.618059 0.460676 -0.137469
C24   C     C_R   0.870551 0.499968 0.500887 0.007509
C25   C     C_R   0.127475 0.500481 0.501311 0.121807
C26   C     C_R   0.415431 0.074442 0.430062 -0.005236
Cu1   Cu    Cu3+1 0.500020 0.640660 0.500000 0.997724
Cu2   Cu    Cu3+1 0.500020 0.359340 0.500000 1.031715
H1    H     H_    0.486437 0.721522 0.089793 0.158593
H2    H     H_    0.345482 0.870881 0.377083 0.179473
H3    H     H_    0.656423 0.776680 0.685098 0.309494
H4    H     H_    0.754252 0.834804 0.573778 0.237365
H5    H     H_    0.755994 0.119786 0.630515 0.217036
H6    H     H_    0.650732 0.116989 0.742584 0.244328
H7    H     H_    0.207213 0.856202 0.173852 0.325552
H8    H     H_    0.207188 0.129731 0.140465 0.336828
H9    H     H_    0.261753 0.736648 0.866911 0.245431
H10   H     H_    0.231771 0.573742 0.913116 0.310323
H11   H     H_    0.283016 0.235852 0.875117 0.267613
H12   H     H_    0.504077 0.276834 0.095415 0.134964
H13   H     H_    0.299059 0.368975 0.779606 0.266991
H14   H     H_    0.852992 0.719490 0.817337 0.341031
H15   H     H_    0.775734 0.184156 0.938998 0.348641
H16   H     H_    0.100828 0.174804 0.537175 0.226023
H17   H     H_    0.100321 0.242975 0.681469 0.239990
H18   H     H_    0.085001 0.761420 0.324873 0.242723
H19   H     H_    0.097843 0.825571 0.470028 0.215064
H20   H     H_    0.464538 0.724818 0.889261 0.196642
H21   H     H_    0.485549 0.269734 0.893288 0.159615
H22   H     H_    0.667270 0.601198 0.124703 0.151467
H23   H     H_    0.676713 0.421023 0.129736 0.176873
H24   H     H_    0.888108 0.291311 0.574468 0.153220
H25   H     H_    0.882144 0.708898 0.426985 0.124392
H26   H     H_    0.347458 0.130110 0.373718 0.154044
N1    N     N_R   0.500030 0.852070 0.500030 -0.239090
N2    N     N_R   0.500030 0.147930 0.500030 -0.226454
N3    N     N_3   0.686267 0.862020 0.635614 -0.641321
N4    N     N_3   0.666378 0.149224 0.651826 -0.507155
N5    N     N_3   0.294193 0.633738 0.864536 -0.605754
N6    N     N_3   0.304632 0.342134 0.873219 -0.594368
N7    N     N_3   0.127904 0.260796 0.590808 -0.619017
N8    N     N_3   0.120778 0.741076 0.413954 -0.601791
O1    O     O_R   0.319660 0.618740 0.499990 -0.474860
O2    O     O_R   0.292612 0.829004 0.147161 -0.704372
O3    O     O_2   0.261510 0.360795 0.203931 -0.465507
O4    O     O_R   0.283122 0.161008 0.095524 -0.695175
O5    O     O_2   0.674153 0.751771 0.937141 -0.565241
O6    O     O_R   0.812389 0.625859 0.831927 -0.647767
O7    O     O_2   0.747218 0.370528 0.793839 -0.470807
O8    O     O_R   0.726027 0.261505 0.977759 -0.731115
O9    O     O_R   0.319660 0.381260 0.499990 -0.477047
O10   O     O_R   0.499990 0.618790 0.317690 -0.502355
O11   O     O_R   0.499990 0.381210 0.317690 -0.504131
O12   O     O_R   0.680370 0.618830 0.500010 -0.529505
O13   O     O_R   0.680370 0.381170 0.500010 -0.468987
O14   O     O_R   0.500030 0.618780 0.682310 -0.512472
O15   O     O_R   0.500030 0.381220 0.682310 -0.482849
O16   O     O_2   0.215683 0.609558 0.135906 -0.465296

loop_
_geom_bond_atom_site_label_1
_geom_bond_atom_site_label_2
_ccdc_geom_bond_type
C1    C25   S    
H5    N4    S    
H19   N8    S    
Cu2   N2    S    
C6    O13   A    
C17   O4    S    
C1    O9    A    
H18   N8    S    
C8    H1    S    
C5    O10   A    
C2    N1    A    
Cu1   N1    S    
C11   N6    S    
C20   C25   A    
C18   O6    S    
C26   H26   S    
C20   N7    S    
C13   H23   S    
C3    N1    A    
C23   C24   A    
C6    O12   A    
H7    O2    S    
Cu1   O12   S    
C7    O15   A    
C7    C15   S    
C8    C16   S    
C13   C14   S    
C4    N2    A    
H14   O6    S    
C11   C15   S    
H4    N3    S    
Cu2   O11   S    
C1    O1    A    
C23   H25   S    
C18   O5    D    
C9    H12   S    
H10   N5    S    
C9    C14   S    
C11   H21   S    
H8    O4    S    
C12   C15   S    
C6    C24   S    
C21   N8    S    
C2    C26   A    
Cu2   O15   S    
C9    C11   S    
C5    C14   S    
H9    N5    S    
Cu1   O1    S    
C3    N3    S    
C9    C17   S    
C20   C22   A    
H15   O8    S    
C21   C23   A    
C10   H20   S    
C22   C24   A    
C19   O7    D    
Cu2   O9    S    
C12   C18   S    
Cu1   O14   S    
C22   H24   S    
C21   C25   A    
C8    C14   S    
C10   C15   S    
H13   N6    S    
C26   N2    A    
C7    O14   A    
H16   N7    S    
C17   O3    D    
C2    H2    S    
H3    N3    S    
C10   N5    S    
H11   N6    S    
C12   C19   S    
H17   N7    S    
C16   O16   D    
C5    O11   A    
C13   H22   S    
C12   C13   S    
C8    C10   S    
C4    N4    S    
Cu1   Cu2   S    
H6    N4    S    
C19   O8    S    
C16   O2    S    
Cu2   O13   S    
Cu1   O10   S    
C3    C4    A    
