data_mof_unit_34247.cif
_audit_creation_date              2012-12-10T18:18:21-0500
_audit_creation_method            fapswitch 2.2
_symmetry_space_group_name_H-M    P1
_symmetry_Int_Tables_number       1
_space_group_crystal_system       triclinic
_cell_length_a                    14.070495
_cell_length_b                    14.941766
_cell_length_c                    15.509578
_cell_angle_alpha                 90.183902
_cell_angle_beta                  66.880811
_cell_angle_gamma                 91.292324
_cell_volume                      2998.0171041

loop_
_atom_site_label
_atom_site_type_symbol
_atom_type_description
_atom_site_fract_x
_atom_site_fract_y
_atom_site_fract_z
_atom_type_partial_charge
C1    C     C_R   0.500138 0.672930 0.502094 0.898868
C2    C     C_R   0.499966 0.327141 0.497729 0.900710
C3    C     C_R   0.401852 0.587545 0.090747 -0.226839
C4    C     C_R   0.626415 0.497034 0.891266 -0.224515
C5    C     C_R   0.329801 0.597215 0.050874 -0.238456
C6    C     C_R   0.697330 0.483818 0.931414 -0.245416
C7    C     C_R   0.512264 0.188467 0.569274 -0.302366
C8    C     C_R   0.487361 0.811710 0.430523 -0.298145
C9    C     C_R   0.498297 0.231864 0.496395 -0.118209
C10   C     C_R   0.502124 0.768325 0.503079 -0.116312
C11   C     C_R   0.486301 0.185088 0.422682 0.150652
C12   C     C_R   0.515640 0.815304 0.576019 0.153966
C13   C     C_R   0.486334 0.091521 0.424314 0.057100
C14   C     C_R   0.515254 0.908842 0.574450 0.056373
C15   C     C_R   0.499729 0.046842 0.499087 -0.009399
C16   C     C_R   0.501186 0.953455 0.499998 -0.010232
C17   C     C_R   0.512141 0.095718 0.572647 0.058722
C18   C     C_R   0.488194 0.904526 0.426753 0.059178
C19   C     C_R   0.473707 0.042284 0.352253 -0.240611
C20   C     C_R   0.528136 0.958088 0.646388 -0.241630
C21   C     C_R   0.474836 0.948757 0.352094 0.208101
C22   C     C_R   0.525774 0.051526 0.647181 0.208879
C23   C     C_R   0.435098 0.499432 0.676395 0.866434
C24   C     C_R   0.564789 0.500615 0.323626 0.866607
C25   C     C_R   0.175069 0.443202 0.559444 0.294382
C26   C     C_R   0.823927 0.558932 0.442949 0.298267
C27   C     C_R   0.227977 0.558171 0.443385 -0.107834
C28   C     C_R   0.770541 0.445203 0.560223 -0.113648
C29   C     C_R   0.127296 0.562125 0.444159 -0.007854
C30   C     C_R   0.869580 0.445058 0.563554 -0.008374
C31   C     C_R   0.048967 0.503763 0.504131 0.016261
C32   C     C_R   0.947797 0.503678 0.503849 0.016309
C33   C     C_R   0.071778 0.445466 0.564394 -0.042314
C34   C     C_R   0.924743 0.562488 0.444149 -0.045916
C35   C     C_R   0.102961 0.623064 0.386905 0.229059
C36   C     C_R   0.891693 0.389256 0.626263 0.223067
C37   C     C_R   0.002656 0.622900 0.387678 -0.276136
C38   C     C_R   0.991194 0.391237 0.627368 -0.282725
C39   C     C_R   0.394965 0.508661 0.778003 -0.063065
C40   C     C_R   0.606016 0.503840 0.221446 -0.062385
C41   C     C_R   0.276566 0.574107 0.921437 -0.205415
C42   C     C_R   0.735896 0.469712 0.069181 -0.199012
C43   C     C_R   0.299641 0.547229 0.829238 -0.216627
C44   C     C_R   0.703951 0.472430 0.166198 -0.223490
C45   C     C_R   0.463202 0.492106 0.820726 -0.253507
C46   C     C_R   0.541213 0.533891 0.179429 -0.261218
C47   C     C_R   0.446955 0.526835 0.908794 0.090806
C48   C     C_R   0.569199 0.527957 0.082677 0.092802
C49   C     C_R   0.350486 0.565867 0.960891 0.171179
C50   C     C_R   0.668280 0.494761 0.027333 0.176677
C51   C     C_R   0.524012 0.522936 0.946116 0.067099
C52   C     C_R   0.498288 0.547107 0.040872 0.066412
H1    H     H_    0.257089 0.628656 0.091114 0.138986
H2    H     H_    0.774030 0.461521 0.887651 0.141419
N1    N     N_R   0.249980 0.499930 0.499960 -0.120624
N2    N     N_R   0.750020 0.500070 0.500040 -0.119491
O1    O     O_R   0.419720 0.632140 0.499980 -0.620873
O2    O     O_R   0.580280 0.367860 0.500020 -0.619025
O3    O     O_R   0.580270 0.632160 0.499970 -0.611304
O4    O     O_R   0.419730 0.367840 0.500030 -0.603515
O5    O     O_R   0.373870 0.499980 0.632250 -0.602856
O6    O     O_R   0.626130 0.500020 0.367750 -0.591901
O7    O     O_R   0.534420 0.500000 0.632240 -0.623772
O8    O     O_R   0.465580 0.500000 0.367760 -0.623288
Zn1   Zn    Zn3+2 0.392800 0.499980 0.500010 0.947167
Zn2   Zn    Zn3+2 0.607200 0.500020 0.499990 0.948813
N3    N     N_2   0.203065 0.381968 0.614977 -0.264038
H3    H     H_    0.161117 0.387908 0.686073 0.195120
C53   C     C_3   0.212802 0.289967 0.583063 -0.738966
H4    H     H_    0.135938 0.257138 0.600953 0.211603
H5    H     H_    0.255183 0.251944 0.617566 0.235664
H6    H     H_    0.256190 0.286619 0.505918 0.247983
N4    N     N_2   0.797323 0.616544 0.383585 -0.262381
H7    H     H_    0.807870 0.683799 0.393085 0.203361
C54   C     C_3   0.835631 0.590653 0.286011 -0.753366
H8    H     H_    0.914474 0.618879 0.246750 0.205341
H9    H     H_    0.783971 0.617011 0.253854 0.245818
H10   H     H_    0.838076 0.516666 0.279167 0.238404
H11   H     H_    0.289701 0.601450 0.397595 0.176505
H12   H     H_    0.708756 0.402006 0.606038 0.178175
N5    N     N_2   0.179119 0.684627 0.327578 -0.332266
H13   H     H_    0.171293 0.698250 0.265547 0.218334
C55   C     C_3   0.191286 0.765530 0.374092 -0.802443
H14   H     H_    0.119418 0.804769 0.397259 0.241038
H15   H     H_    0.256018 0.807016 0.324700 0.261703
H16   H     H_    0.209454 0.749509 0.435766 0.254478
N6    N     N_2   0.813887 0.331487 0.689571 -0.331488
H17   H     H_    0.818770 0.324977 0.753910 0.220751
C56   C     C_3   0.804148 0.245515 0.650291 -0.792336
H18   H     H_    0.875782 0.206970 0.633795 0.239297
H19   H     H_    0.789417 0.254066 0.585512 0.254004
H20   H     H_    0.738101 0.206947 0.701849 0.257447
H21   H     H_    0.986626 0.671695 0.344245 0.147425
H22   H     H_    0.004322 0.349101 0.677917 0.145706
H23   H     H_    0.466174 0.556599 0.224825 0.153848
H24   H     H_    0.530813 0.454085 0.781974 0.150234
H25   H     H_    0.753706 0.446420 0.197905 0.151285
H26   H     H_    0.245619 0.560253 0.796942 0.154769
H27   H     H_    0.202979 0.604670 0.960447 0.136214
H28   H     H_    0.811376 0.443827 0.027287 0.133939
H29   H     H_    0.380384 0.614691 0.160107 0.155080
H30   H     H_    0.654817 0.487590 0.816473 0.157016
H31   H     H_    0.523533 0.228483 0.623077 0.161121
H32   H     H_    0.475281 0.771680 0.377116 0.160800
N7    N     N_2   0.478911 0.231365 0.345176 -0.329450
H33   H     H_    0.428371 0.283562 0.362547 0.245758
C57   C     C_3   0.577437 0.254000 0.270813 -0.799770
H34   H     H_    0.621890 0.301903 0.296417 0.235570
H35   H     H_    0.564515 0.285546 0.211703 0.249114
H36   H     H_    0.623120 0.192779 0.244556 0.250163
N8    N     N_2   0.524692 0.769314 0.652935 -0.329245
H37   H     H_    0.574415 0.716521 0.635310 0.251074
C58   C     C_3   0.427081 0.748622 0.729298 -0.797695
H38   H     H_    0.380165 0.701614 0.705532 0.239058
H39   H     H_    0.383207 0.810672 0.755865 0.248214
H40   H     H_    0.441407 0.717073 0.787674 0.253509
H41   H     H_    0.464368 0.077099 0.295251 0.195155
H42   H     H_    0.538327 0.923304 0.702976 0.195564
N9    N     N_2   0.466071 0.898194 0.276724 -0.310504
H43   H     H_    0.527440 0.857233 0.242502 0.223920
C59   C     C_3   0.422067 0.938272 0.216305 -0.825252
H44   H     H_    0.405585 0.885270 0.173418 0.244080
H45   H     H_    0.477590 0.987683 0.168065 0.241154
H46   H     H_    0.348137 0.970779 0.258788 0.251660
N10   N     N_2   0.533738 0.102011 0.722963 -0.308443
H47   H     H_    0.472090 0.142789 0.756868 0.222330
C60   C     C_3   0.576613 0.061769 0.784169 -0.821880
H48   H     H_    0.591259 0.114474 0.828362 0.241943
H49   H     H_    0.651341 0.030169 0.742281 0.252827
H50   H     H_    0.521118 0.011623 0.831257 0.239967

loop_
_geom_bond_atom_site_label_1
_geom_bond_atom_site_label_2
_ccdc_geom_bond_type
N6    H17   S    
C27   C29   A    
C34   C37   A    
N4    C54   S    
N4    H7    S    
N8    H37   S    
C25   N3    S    
C43   H26   S    
C20   H42   S    
N5    H13   S    
C35   N5    S    
C47   C49   A    
C40   C46   A    
N7    C57   S    
C5    H1    S    
C35   C37   A    
C42   H28   S    
C1    O3    A    
O3    Zn2   S    
C2    O4    A    
C8    H32   S    
C15   C16   A    
C18   C21   A    
C26   N4    S    
C7    C9    A    
C45   C47   A    
C53   H5    S    
C59   H46   S    
N1    Zn1   S    
O2    Zn2   S    
C46   H23   S    
C31   C32   A    
C7    C17   A    
C4    H30   S    
C11   N7    S    
C57   H34   S    
C41   H27   S    
C56   H19   S    
C39   C45   A    
C58   H40   S    
C3    H29   S    
C23   O7    A    
O7    Zn2   S    
C24   O8    A    
C7    H31   S    
C41   C43   A    
C5    C49   A    
C42   C44   A    
C6    H2    S    
C41   C49   A    
N5    C55   S    
C26   C34   A    
N9    C59   S    
C36   N6    S    
C28   N2    A    
C46   C48   A    
O6    Zn2   S    
C4    C51   A    
C51   C52   A    
C14   C20   A    
C4    C6    A    
C13   C19   A    
C22   N10   S    
C39   C43   A    
C8    C18   A    
N3    H3    S    
N3    C53   S    
C32   C34   A    
C2    C9    S    
C53   H6    S    
C54   H8    S    
C60   H49   S    
C1    O1    A    
C54   H9    S    
C44   H25   S    
C55   H14   S    
C48   C52   A    
C3    C52   A    
C38   H22   S    
C31   C33   A    
C37   H21   S    
N8    C58   S    
C6    C50   A    
C56   H20   S    
C48   C50   A    
C9    C11   A    
C59   H44   S    
C10   C12   A    
C42   C50   A    
C8    C10   A    
C55   H15   S    
C12   C14   A    
O4    Zn1   S    
C13   C15   A    
N10   H47   S    
C57   H36   S    
C14   C16   A    
C20   C22   A    
C60   H48   S    
C58   H38   S    
C23   O5    A    
C15   C17   A    
C21   N9    S    
C24   O6    A    
C19   C21   A    
C1    C10   S    
C25   N1    A    
O1    Zn1   S    
C3    C5    A    
C26   N2    A    
C47   C51   A    
N9    H43   S    
C2    O2    A    
N7    H33   S    
C29   C35   A    
C27   H11   S    
C17   C22   A    
C30   C36   A    
O8    Zn1   S    
C28   C30   A    
C60   H50   S    
C29   C31   A    
C30   C32   A    
C11   C13   A    
C57   H35   S    
N2    Zn2   S    
C36   C38   A    
C24   C40   S    
C27   N1    A    
C53   H4    S    
C28   H12   S    
C54   H10   S    
C59   H45   S    
O5    Zn1   S    
C40   C44   A    
C55   H16   S    
C19   H41   S    
C16   C18   A    
N10   C60   S    
N6    C56   S    
C33   C38   A    
C56   H18   S    
C45   H24   S    
C23   C39   S    
C12   N8    S    
C25   C33   A    
C58   H39   S    
