data_mof_unit_18493.cif
_audit_creation_date              2012-12-10T18:47:06-0500
_audit_creation_method            fapswitch 2.2
_symmetry_space_group_name_H-M    P1
_symmetry_Int_Tables_number       1
_space_group_crystal_system       triclinic
_cell_length_a                    10.760265
_cell_length_b                    9.884533
_cell_length_c                    14.872621
_cell_angle_alpha                 90.064713
_cell_angle_beta                  90.59937
_cell_angle_gamma                 90.425627
_cell_volume                      1581.72351334

loop_
_atom_site_label
_atom_site_type_symbol
_atom_type_description
_atom_site_fract_x
_atom_site_fract_y
_atom_site_fract_z
_atom_type_partial_charge
C1    C     C_R   0.260329 0.499891 0.507927 0.859895
C2    C     C_R   0.126451 0.500662 0.514804 -0.132059
C3    C     C_R   0.566958 0.073656 0.563331 0.381584
C4    C     C_R   0.444196 0.927445 0.431481 0.352047
C5    C     C_R   0.432897 0.072161 0.436613 0.380211
C6    C     C_R   0.556594 0.928766 0.568234 0.358533
C7    C     C_R   0.496981 0.500391 0.327070 0.918703
C8    C     C_R   0.501016 0.500509 0.672921 0.944925
C9    C     C_R   0.609318 0.533798 0.814473 0.488275
C10   C     C_R   0.379830 0.522904 0.186986 0.500424
C11   C     C_R   0.498086 0.505331 0.768862 -0.246529
C12   C     C_R   0.739575 0.500642 0.491884 0.886751
C13   C     C_R   0.494509 0.504441 0.231018 -0.242071
C14   C     C_R   0.383208 0.505412 0.811950 -0.121468
C15   C     C_R   0.607553 0.515073 0.185972 -0.116445
C16   C     C_R   0.379333 0.533192 0.904486 -0.060504
C17   C     C_R   0.606697 0.549615 0.094672 -0.080740
C18   C     C_R   0.492606 0.546821 0.952847 -0.117754
C19   C     C_R   0.491917 0.546202 0.046994 -0.123270
C20   C     C_R   0.607034 0.558162 0.907147 -0.171267
C21   C     C_R   0.377296 0.537505 0.093148 -0.139842
C22   C     C_R   0.266002 0.550088 0.950197 0.374483
C23   C     C_R   0.263761 0.544346 0.044330 0.425817
C24   C     C_R   0.716182 0.589040 0.049100 0.398506
C25   C     C_3   0.775597 0.412598 0.768801 -0.237912
C26   C     C_3   0.225723 0.413192 0.263695 -0.230797
C27   C     C_1   0.271773 0.468734 0.761286 0.255662
C28   C     C_1   0.722823 0.485858 0.233729 0.240928
C29   C     C_3   0.149661 0.713610 0.884908 -0.218122
C30   C     C_3   0.816747 0.754462 0.128140 -0.236883
C31   C     C_3   0.075720 0.439596 0.069740 -0.113764
C32   C     C_3   0.812973 0.771882 0.885184 -0.209757
C33   C     C_1   0.113316 0.251175 0.540951 0.213471
C34   C     C_R   0.715584 0.595049 0.955544 0.434559
C35   C     C_1   0.881709 0.754938 0.467166 0.237793
C36   C     C_1   0.881909 0.255564 0.447070 0.204305
C37   C     C_1   0.121895 0.751428 0.541799 0.228211
C38   C     C_3   0.758709 0.099169 0.634350 -0.242823
C39   C     C_3   0.471699 0.880136 0.283725 -0.238072
C40   C     C_3   0.242808 0.087631 0.361192 -0.233958
C41   C     C_3   0.532737 0.881441 0.716302 -0.259670
C42   C     C_R   0.060578 0.377402 0.509329 -0.079161
C43   C     C_R   0.938408 0.626467 0.490580 -0.047018
C44   C     C_R   0.937328 0.378796 0.483274 -0.069190
C45   C     C_R   0.063168 0.625298 0.513178 -0.037670
C46   C     C_R   0.873275 0.502419 0.483792 -0.137190
H1    H     H_    0.856569 0.414379 0.723219 0.193756
H2    H     H_    0.743569 0.762473 0.180083 0.135795
H3    H     H_    0.798811 0.828814 0.073575 0.130113
H4    H     H_    0.906713 0.782144 0.160555 0.208915
H5    H     H_    0.129774 0.344426 0.062619 0.066816
H6    H     H_    0.017786 0.456782 0.008747 0.231572
H7    H     H_    0.010870 0.424550 0.126370 0.187439
H8    H     H_    0.721743 0.820473 0.899015 0.090258
H9    H     H_    0.829545 0.778288 0.811793 0.209518
H10   H     H_    0.886349 0.832508 0.919725 0.143085
H11   H     H_    0.823449 0.186585 0.639938 0.156543
H12   H     H_    0.810264 0.388088 0.837513 0.171298
H13   H     H_    0.790302 0.037566 0.576439 0.181446
H14   H     H_    0.767714 0.039568 0.697233 0.175529
H15   H     H_    0.438146 0.815340 0.227452 0.188384
H16   H     H_    0.570243 0.852811 0.297908 0.147969
H17   H     H_    0.466514 0.986769 0.260525 0.162215
H18   H     H_    0.173586 0.169730 0.356494 0.144611
H19   H     H_    0.211545 0.019495 0.416171 0.185012
H20   H     H_    0.239909 0.032422 0.296212 0.190737
H21   H     H_    0.433345 0.855234 0.702848 0.157369
H22   H     H_    0.540840 0.987356 0.740812 0.165947
H23   H     H_    0.710929 0.331681 0.745080 0.176938
H24   H     H_    0.565726 0.815026 0.771394 0.178067
H25   H     H_    0.269196 0.383241 0.328034 0.205235
H26   H     H_    0.238045 0.331923 0.212589 0.130418
H27   H     H_    0.124708 0.422874 0.276120 0.188350
H28   H     H_    0.233735 0.751680 0.849569 0.121366
H29   H     H_    0.134710 0.772437 0.947637 0.170220
H30   H     H_    0.069393 0.730827 0.839197 0.200300
N1    N     N_R   0.500000 0.857200 0.500000 -0.189974
N2    N     N_R   0.500000 0.142800 0.500000 -0.182730
N3    N     N_1   0.182706 0.439130 0.721471 -0.212488
N4    N     N_1   0.814746 0.462342 0.271423 -0.224551
N5    N     N_1   0.155062 0.151366 0.567728 -0.210192
N6    N     N_1   0.836606 0.856742 0.447629 -0.225906
N7    N     N_1   0.837942 0.158221 0.416934 -0.214645
N8    N     N_1   0.168783 0.851242 0.565271 -0.225754
O1    O     O_R   0.316770 0.614620 0.499990 -0.588923
O2    O     O_3   0.272439 0.540178 0.236409 -0.556624
O3    O     O_3   0.156397 0.574007 0.903718 -0.588091
O4    O     O_3   0.825475 0.621348 0.094378 -0.576465
O5    O     O_3   0.151299 0.554098 0.088751 -0.538913
O6    O     O_3   0.823289 0.635190 0.912694 -0.538797
O7    O     O_3   0.635994 0.148346 0.625387 -0.582615
O8    O     O_3   0.395523 0.856556 0.359065 -0.546242
O9    O     O_3   0.362398 0.145427 0.375149 -0.588534
O10   O     O_3   0.607187 0.859104 0.640039 -0.551902
O11   O     O_R   0.683230 0.385380 0.500010 -0.588415
O12   O     O_R   0.683230 0.614620 0.500010 -0.592854
O13   O     O_R   0.316770 0.385380 0.499990 -0.602705
O14   O     O_R   0.499980 0.614680 0.367850 -0.571384
O15   O     O_R   0.500020 0.385320 0.632150 -0.584071
O16   O     O_R   0.500020 0.614680 0.632150 -0.574931
O17   O     O_R   0.499980 0.385320 0.367850 -0.592975
O18   O     O_3   0.719036 0.540777 0.766664 -0.577041
Zn1   Zn    Zn3+2 0.500000 0.653120 0.500000 1.050327
Zn2   Zn    Zn3+2 0.500000 0.346880 0.500000 1.041029

loop_
_geom_bond_atom_site_label_1
_geom_bond_atom_site_label_2
_ccdc_geom_bond_type
C7    O14   A    
C26   H26   S    
C40   O9    S    
C3    C6    A    
C41   H21   S    
C29   H30   S    
C33   C42   S    
C30   H2    S    
C19   C21   A    
C8    O15   A    
C18   C19   A    
C27   N3    T    
C11   C14   A    
C25   O18   S    
C36   N7    T    
O14   Zn1   S    
C26   H27   S    
C3    O7    S    
C1    C2    S    
C32   O6    S    
C9    O18   S    
C31   O5    S    
C23   O5    S    
C12   O11   A    
C14   C27   S    
C35   C43   S    
C31   H6    S    
C32   H9    S    
O1    Zn1   S    
C20   C34   A    
O15   Zn2   S    
C30   H4    S    
C2    C45   A    
C40   H20   S    
C26   H25   S    
C42   C44   A    
C32   H8    S    
C35   N6    T    
C44   C46   A    
C41   H22   S    
C10   C21   A    
C1    O1    A    
C39   H15   S    
C17   C24   A    
N2    Zn2   S    
C12   C46   S    
C1    O13   A    
C6    N1    A    
C29   H28   S    
C6    O10   S    
C38   O7    S    
O16   Zn1   S    
C24   C34   A    
C34   O6    S    
C38   H11   S    
C9    C11   A    
C9    C20   A    
C41   O10   S    
C26   O2    S    
C37   N8    T    
C22   O3    S    
C31   H7    S    
C24   O4    S    
C38   H14   S    
C30   H3    S    
O17   Zn2   S    
C40   H19   S    
C13   C15   A    
C14   C16   A    
N1    Zn1   S    
C25   H23   S    
C25   H12   S    
C30   O4    S    
C39   O8    S    
O11   Zn2   S    
C15   C17   A    
C39   H16   S    
C25   H1    S    
C10   O2    S    
C16   C22   A    
C31   H5    S    
C4    C5    A    
C10   C13   A    
C5    O9    S    
C29   H29   S    
C39   H17   S    
C40   H18   S    
C21   C23   A    
C8    O16   A    
C4    N1    A    
C43   C45   A    
C15   C28   S    
C33   N5    T    
C2    C42   A    
C8    C11   S    
C17   C19   A    
C18   C20   A    
C28   N4    T    
C43   C46   A    
C29   O3    S    
O13   Zn2   S    
C36   C44   S    
C38   H13   S    
C7    C13   S    
C16   C18   A    
C7    O17   A    
O12   Zn1   S    
C22   C23   A    
C12   O12   A    
C5    N2    A    
C3    N2    A    
C37   C45   S    
C32   H10   S    
C41   H24   S    
C4    O8    S    
