data_mof_unit_67610.cif
_audit_creation_date              2013-03-05T16:07:32-0500
_audit_creation_method            fapswitch 2.2
_symmetry_space_group_name_H-M    P1
_symmetry_Int_Tables_number       1
_space_group_crystal_system       triclinic
_cell_length_a                    11.215925
_cell_length_b                    10.892092
_cell_length_c                    10.137245
_cell_angle_alpha                 88.464759
_cell_angle_beta                  93.774032
_cell_angle_gamma                 87.721864
_cell_volume                      1234.21586608

loop_
_atom_site_label
_atom_site_type_symbol
_atom_site_description
_atom_site_fract_x
_atom_site_fract_y
_atom_site_fract_z
_atom_type_partial_charge
O1    O     O_R   0.499990 0.319660 0.618740 -0.559122
O2    O     O_R   0.500010 0.680340 0.381260 -0.559121
O3    O     O_R   0.499990 0.319630 0.381170 -0.476845
O4    O     O_R   0.500010 0.680370 0.618830 -0.476846
C1    C     C_R   0.504445 0.264016 0.501498 0.825445
C2    C     C_R   0.495559 0.735984 0.498501 0.825450
O5    O     O_R   0.319650 0.500020 0.618780 -0.539584
O6    O     O_R   0.680350 0.499980 0.381220 -0.539591
O7    O     O_R   0.319640 0.500000 0.381210 -0.581528
O8    O     O_R   0.680360 0.500000 0.618790 -0.581532
C3    C     C_R   0.263478 0.499318 0.496894 0.780278
C4    C     C_R   0.736522 0.500675 0.503107 0.780273
Cu1   Cu    Cu3+1 0.500000 0.500020 0.640660 1.084208
Cu2   Cu    Cu3+1 0.500000 0.499980 0.359340 1.084208
C5    C     C_R   0.128518 0.705592 0.077067 0.175395
C6    C     C_R   0.871479 0.294382 0.922947 0.175389
C7    C     C_R   0.095421 0.688166 0.205769 0.094734
C8    C     C_R   0.904587 0.311809 0.794248 0.094740
C9    C     C_R   0.094629 0.568027 0.260366 -0.094388
C10   C     C_R   0.905369 0.431947 0.739643 -0.094388
C11   C     C_R   0.127260 0.464536 0.188075 0.171693
C12   C     C_R   0.872731 0.535437 0.811933 0.171699
C13   C     C_R   0.160991 0.482222 0.059831 0.046467
C14   C     C_R   0.839001 0.517751 0.940178 0.046452
C15   C     C_R   0.159424 0.602234 0.005628 0.036665
C16   C     C_R   0.840567 0.397739 0.994382 0.036667
C17   C     C_R   0.926480 0.552812 0.397968 -0.115638
C18   C     C_R   0.073520 0.447165 0.602037 -0.115629
H1    H     H_    0.871444 0.593161 0.315964 0.202920
H2    H     H_    0.128557 0.406817 0.684041 0.202918
C19   C     C_R   0.871751 0.502552 0.505816 -0.056316
C20   C     C_R   0.128248 0.497429 0.494189 -0.056317
C21   C     C_R   0.948816 0.453395 0.610487 0.079991
C22   C     C_R   0.051183 0.546581 0.389520 0.079980
C23   C     C_R   0.598938 0.058202 0.456191 0.162947
C24   C     C_R   0.401068 0.941801 0.543802 0.162949
C25   C     C_R   0.593818 0.930157 0.450763 0.132759
C26   C     C_R   0.406185 0.069846 0.549220 0.132743
C27   C     C_R   0.495541 0.871120 0.496036 -0.184911
C28   C     C_R   0.504463 0.128881 0.503956 -0.184890
C29   C     C_R   0.512991 0.394793 0.077954 0.671744
C30   C     C_R   0.486997 0.605207 0.922044 0.671737
C31   C     C_R   0.516493 0.394155 0.934887 0.080422
C32   C     C_R   0.483503 0.605845 0.065113 0.080420
N1    N     N_R   0.500030 0.500030 0.852070 -0.283762
N2    N     N_R   0.499970 0.499970 0.147930 -0.283759
I1    I     I_    0.196255 0.629654 0.815093 -0.209909
I2    I     I_    0.803715 0.370313 0.184915 -0.209900
I3    I     I_    0.556289 0.212678 0.872684 -0.078377
I4    I     I_    0.443706 0.787321 0.127317 -0.078368
I5    I     I_    0.130942 0.888482 0.990149 -0.022082
I6    I     I_    0.869047 0.111492 0.009866 -0.022091
I7    I     I_    0.043294 0.844089 0.312578 -0.133156
I8    I     I_    0.956753 0.155882 0.687469 -0.133131
I9    I     I_    0.126002 0.280191 0.272267 -0.156926
I10   I     I_    0.873976 0.719783 0.727738 -0.156937
I11   I     I_    0.212683 0.325990 0.951030 -0.216362
I12   I     I_    0.787314 0.673982 0.048980 -0.216397
I13   I     I_    0.755214 0.140291 0.406347 -0.094693
I14   I     I_    0.244805 0.859704 0.593726 -0.094603
I15   I     I_    0.734498 0.823684 0.376333 -0.163640
I16   I     I_    0.265506 0.176322 0.623639 -0.163659
F1    F     F_    0.525283 0.285690 0.145507 -0.578448
F2    F     F_    0.474673 0.714310 0.854488 -0.578443

loop_
_geom_bond_atom_site_label_1
_geom_bond_atom_site_label_2
_geom_bond_distance
_ccdc_geom_bond_type
C25   C27   1.395074 A    
C18   C21   1.405969 A    
O5    Cu1   2.020352 S    
C25   I15   2.112340 S    
O7    Cu2   2.049464 S    
C19   C21   1.404168 A    
C30   N1    1.371429 A    
C9    C11   1.410106 A    
C5    I5    2.158422 S    
C17   H1    1.075421 S    
C31   N1    1.406969 A    
C15   I1    2.018538 S    
C4    C19   1.516128 S    
O6    C4    1.349847 A    
C29   N2    1.371423 A    
O3    C1    1.344365 A    
C13   I11   2.134180 S    
C18   H2    1.075422 S    
C23   C28   1.404479 A    
C7    I7    2.121652 S    
C23   C25   1.400539 A    
Cu2   N2    2.143096 S    
Cu1   Cu2   2.851823 S    
O5    C3    1.349838 A    
C29   C31   1.453618 A    
C14   C16   1.403342 A    
O2    C2    1.351428 A    
O3    Cu2   1.970918 S    
C30   C32   1.453620 A    
O1    C1    1.351437 A    
C10   C21   1.443240 S    
O8    C4    1.367195 A    
C6    C8    1.390012 A    
C26   C28   1.395054 A    
C10   C12   1.410113 A    
C3    C20   1.516140 S    
C8    C10   1.407674 A    
O7    C3    1.367207 A    
C17   C22   1.405953 A    
C6    C16   1.399176 A    
O2    Cu2   1.982935 S    
C23   I13   2.084226 S    
C12   C14   1.388334 A    
C5    C15   1.399184 A    
O4    C2    1.344378 A    
O1    Cu1   1.982936 S    
C8    I8    2.121642 S    
C12   I10   2.161562 S    
C17   C19   1.398118 A    
C24   C26   1.400526 A    
C14   I12   2.134163 S    
C30   F2    1.353216 S    
C18   C20   1.398132 A    
C13   C15   1.403340 A    
C16   I2    2.018581 S    
Cu1   N1    2.143096 S    
C11   I9    2.161550 S    
C1    C28   1.471441 S    
C32   I4    2.130200 S    
O4    Cu1   1.970918 S    
C5    C7    1.390004 A    
C29   F1    1.353182 S    
C2    C27   1.471449 S    
C31   I3    2.130204 S    
O6    Cu2   2.020351 S    
C7    C9    1.407660 A    
C26   I16   2.112308 S    
C11   C13   1.388325 A    
C9    C22   1.443208 S    
C24   C27   1.404483 A    
C6    I6    2.158437 S    
C32   N2    1.406974 A    
C24   I14   2.084366 S    
O8    Cu1   2.049464 S    
C20   C22   1.404147 A    
