data_mof_unit_42450.cif
_audit_creation_date              2012-12-10T19:16:17-0500
_audit_creation_method            fapswitch 2.2
_symmetry_space_group_name_H-M    P1
_symmetry_Int_Tables_number       1
_space_group_crystal_system       triclinic
_cell_length_a                    10.627263
_cell_length_b                    9.672243
_cell_length_c                    27.772537
_cell_angle_alpha                 90.165419
_cell_angle_beta                  89.967446
_cell_angle_gamma                 90.021604
_cell_volume                      2854.7118037

loop_
_atom_site_label
_atom_site_type_symbol
_atom_type_description
_atom_site_fract_x
_atom_site_fract_y
_atom_site_fract_z
_atom_type_partial_charge
C1    C     C_R   0.257534 0.500262 0.499920 0.839615
C2    C     C_R   0.486196 0.619999 0.277300 -0.201842
C3    C     C_R   0.482827 0.493875 0.252779 0.195334
C4    C     C_R   0.485551 0.495433 0.101640 -0.052352
C5    C     C_R   0.377126 0.536901 0.127015 -0.025916
C6    C     C_R   0.269535 0.576059 0.101800 -0.148734
C7    C     C_R   0.593710 0.455752 0.127391 -0.026817
C8    C     C_R   0.495296 0.498968 0.353191 -0.195933
C9    C     C_R   0.498501 0.499473 0.646804 -0.188328
C10   C     C_R   0.380287 0.543435 0.974238 0.043772
C11   C     C_R   0.592645 0.439186 0.974759 0.044177
C12   C     C_R   0.499547 0.499868 0.405884 0.925541
C13   C     C_R   0.486770 0.490669 0.949308 0.072648
C14   C     C_R   0.280417 0.600461 0.947095 -0.216463
C15   C     C_R   0.283042 0.600701 0.897199 -0.134159
C16   C     C_R   0.385395 0.544901 0.872446 -0.027415
C17   C     C_R   0.487555 0.489697 0.898295 -0.051623
C18   C     C_R   0.590687 0.433888 0.873005 -0.028056
C19   C     C_R   0.590167 0.435343 0.822657 0.519697
C20   C     C_R   0.388638 0.544075 0.822104 0.518541
C21   C     C_R   0.482511 0.370166 0.721126 -0.089562
C22   C     C_R   0.485428 0.373063 0.671170 -0.303101
C23   C     C_R   0.742695 0.500293 0.499891 0.841375
C24   C     C_R   0.509166 0.623204 0.673392 0.592906
C25   C     C_R   0.506306 0.619456 0.723389 -0.176059
C26   C     C_R   0.492828 0.493281 0.747201 0.225521
C27   C     C_R   0.377459 0.538688 0.025218 0.045664
C28   C     C_R   0.485915 0.493882 0.050635 0.070939
C29   C     C_R   0.594764 0.447545 0.025673 0.045165
C30   C     C_R   0.269270 0.576583 0.051895 -0.219216
C31   C     C_R   0.701991 0.416153 0.102573 -0.141055
C32   C     C_R   0.692778 0.379913 0.948200 -0.216155
C33   C     C_R   0.691763 0.377909 0.898308 -0.134556
C34   C     C_R   0.500090 0.500166 0.594087 0.924378
C35   C     C_R   0.702906 0.412412 0.052697 -0.217725
C36   C     C_3   0.071583 0.652356 0.499209 -0.397261
C37   C     C_3   0.072207 0.428127 0.545722 -0.398110
C38   C     C_3   0.928744 0.652378 0.499177 -0.396867
C39   C     C_3   0.927797 0.428201 0.545722 -0.394745
C40   C     C_3   0.072396 0.424389 0.454531 -0.397512
C41   C     C_3   0.121291 0.501232 0.499841 0.179366
C42   C     C_3   0.878936 0.501275 0.499825 0.178278
C43   C     C_3   0.927953 0.424380 0.454528 -0.399934
C44   C     C_3   0.385470 0.081204 0.475316 -0.235425
C45   C     C_3   0.385372 0.918369 0.475392 -0.240542
C46   C     C_3   0.610208 0.081270 0.472742 -0.237076
C47   C     C_3   0.610149 0.918438 0.472709 -0.242119
C48   C     C_3   0.503548 0.081684 0.548556 -0.238436
C49   C     C_3   0.503780 0.919150 0.548540 -0.189234
C50   C     C_R   0.378435 0.536372 0.177352 0.479743
C51   C     C_R   0.591175 0.457462 0.177701 0.527299
C52   C     C_R   0.484745 0.368082 0.278305 0.061125
C53   C     C_R   0.491869 0.371995 0.328495 -0.357608
C54   C     C_R   0.492216 0.623396 0.327124 0.592359
H1    H     H_    0.787018 0.387624 0.121627 0.189568
H2    H     H_    0.772818 0.331352 0.964806 0.143284
H3    H     H_    0.771052 0.332089 0.879624 0.192054
H4    H     H_    0.514955 0.714565 0.743804 0.168803
H5    H     H_    0.791294 0.384198 0.036471 0.141514
H6    H     H_    0.106116 0.707382 0.466577 0.174340
H7    H     H_    0.106754 0.319534 0.547090 0.173653
H8    H     H_    0.105862 0.710153 0.531394 0.175881
H9    H     H_    0.107471 0.482185 0.578496 0.168968
H10   H     H_    0.894309 0.710267 0.531327 0.177976
H11   H     H_    0.892520 0.482356 0.578485 0.170529
H12   H     H_    0.485409 0.715926 0.257408 0.161597
H13   H     H_    0.894453 0.707316 0.466511 0.172960
H14   H     H_    0.893094 0.319642 0.547118 0.174442
H15   H     H_    0.107761 0.475800 0.421350 0.167768
H16   H     H_    0.106975 0.315730 0.454003 0.171763
H17   H     H_    0.892733 0.475738 0.421335 0.166615
H18   H     H_    0.893322 0.315714 0.454014 0.171286
H19   H     H_    0.379255 0.119670 0.437679 0.158023
H20   H     H_    0.378753 0.878989 0.437808 0.197446
H21   H     H_    0.299750 0.119075 0.494155 0.146686
H22   H     H_    0.299781 0.881114 0.494388 0.140764
H23   H     H_    0.610744 0.119852 0.435046 0.156328
H24   H     H_    0.610585 0.879374 0.435005 0.199740
H25   H     H_    0.588768 0.120461 0.567539 0.158288
H26   H     H_    0.589379 0.881148 0.567355 0.194048
H27   H     H_    0.421075 0.119923 0.569379 0.153565
H28   H     H_    0.421582 0.880878 0.569446 0.187686
H29   H     H_    0.698668 0.119084 0.489614 0.147035
H30   H     H_    0.698627 0.880920 0.489530 0.141110
H31   H     H_    0.184374 0.606164 0.120563 0.190593
H32   H     H_    0.476828 0.276328 0.651705 0.186661
H33   H     H_    0.471925 0.272477 0.739654 0.162699
H34   H     H_    0.204214 0.645552 0.878075 0.192392
H35   H     H_    0.199441 0.648857 0.963199 0.143043
H36   H     H_    0.181307 0.604641 0.035413 0.141848
H37   H     H_    0.493145 0.275448 0.348221 0.186553
N1    N     N_R   0.483929 0.495271 0.201417 -0.341863
N2    N     N_R   0.490251 0.490313 0.798479 -0.343496
N3    N     N_3   0.499750 0.138610 0.498940 -0.038599
N4    N     N_3   0.499750 0.861390 0.498940 -0.055402
O1    O     O_R   0.314910 0.616040 0.499990 -0.640398
O2    O     O_R   0.314910 0.383960 0.499990 -0.637626
O3    O     O_R   0.500140 0.616020 0.428740 -0.564772
O4    O     O_R   0.500140 0.383980 0.428740 -0.638506
O5    O     O_R   0.685320 0.616040 0.499970 -0.638880
O6    O     O_R   0.685320 0.383960 0.499970 -0.637375
O7    O     O_R   0.500090 0.616050 0.571230 -0.572359
O8    O     O_R   0.500090 0.383950 0.571230 -0.640154
O9    O     O_2   0.274935 0.574991 0.202177 -0.565392
O10   O     O_2   0.291011 0.595914 0.796854 -0.552744
O11   O     O_2   0.694872 0.421965 0.202855 -0.565385
O12   O     O_2   0.689119 0.383736 0.797966 -0.551874
Zn1   Zn    Zn3+2 0.500150 0.654960 0.499980 0.946307
Zn2   Zn    Zn3+2 0.500150 0.345040 0.499980 0.903587
F1    F     F_    0.495487 0.748458 0.349423 -0.688609
C55   C     C_R   0.480595 0.232564 0.253201 0.134464
C56   C     C_R   0.574444 0.133242 0.261746 -0.089010
C57   C     C_R   0.572376 0.006673 0.237279 -0.115345
C58   C     C_R   0.476428 0.977927 0.204339 -0.102538
C59   C     C_R   0.381785 0.075219 0.196130 -0.116775
C60   C     C_R   0.383425 0.201839 0.220537 -0.168400
H38   H     H_    0.650098 0.154610 0.286805 0.136995
H39   H     H_    0.645400 0.931003 0.243753 0.143686
H40   H     H_    0.475136 0.880100 0.185299 0.133471
H41   H     H_    0.306994 0.052453 0.170884 0.144831
H42   H     H_    0.308548 0.275322 0.214181 0.161936
F2    F     F_    0.523132 0.747431 0.651458 -0.690788

loop_
_geom_bond_atom_site_label_1
_geom_bond_atom_site_label_2
_ccdc_geom_bond_type
C10   C27   A    
C20   N2    A    
C21   H33   S    
C50   O9    S    
C43   H18   S    
C39   H14   S    
C55   C56   A    
C30   H36   S    
C58   C59   A    
C23   O6    A    
C52   C53   A    
C34   O7    A    
C6    H31   S    
C40   H16   S    
C45   H22   S    
C48   H25   S    
C28   C29   A    
C38   C42   S    
C1    O1    A    
C5    C6    A    
C9    C22   A    
O6    Zn2   S    
C59   C60   A    
O4    Zn2   S    
O3    Zn1   S    
C48   H27   S    
C54   F1    S    
C35   H5    S    
C18   C19   A    
C12   O4    A    
C37   H9    S    
C40   C43   S    
C16   C17   A    
C53   H37   S    
C33   H3    S    
O7    Zn1   S    
C55   C60   A    
C12   O3    A    
C58   H40   S    
C19   N2    A    
C16   C20   A    
C26   N2    S    
C23   O5    A    
O1    Zn1   S    
C21   C22   A    
C27   C30   A    
C39   H11   S    
C36   C41   S    
C4    C7    A    
C36   H8    S    
C56   C57   A    
C4    C28   A    
C21   C26   A    
C39   C42   S    
C38   H10   S    
O5    Zn1   S    
C7    C31   A    
C40   H15   S    
C24   C25   A    
C10   C14   A    
C1    O2    A    
C52   C55   S    
C36   H6    S    
C25   C26   A    
C57   H39   S    
C45   H20   S    
C49   H28   S    
C44   H21   S    
C14   H35   S    
C51   N1    A    
O2    Zn2   S    
C46   N3    S    
C8    C12   S    
C24   F2    S    
C17   C18   A    
C47   H30   S    
C49   N4    S    
C23   C42   S    
C48   N3    S    
C1    C41   S    
C48   C49   S    
C6    C30   A    
C11   C32   A    
C2    C54   A    
C9    C34   S    
C31   C35   A    
C5    C50   A    
C42   C43   S    
C8    C54   A    
C45   N4    S    
C44   C45   S    
C57   C58   A    
C50   N1    A    
C46   C47   S    
C40   C41   S    
C43   H17   S    
C20   O10   S    
C4    C5    A    
C2    H12   S    
C10   C13   A    
C8    C53   A    
C46   H23   S    
C37   H7    S    
C3    C52   A    
C9    C24   A    
C29   C35   A    
N3    Zn2   S    
C34   O8    A    
C49   H26   S    
C13   C17   A    
O8    Zn2   S    
C32   C33   A    
C36   C38   S    
C2    C3    A    
C7    C51   A    
C37   C39   S    
C11   C13   A    
C56   H38   S    
C51   O11   S    
C22   H32   S    
C37   C41   S    
C44   H19   S    
C18   C33   A    
C44   N3    S    
N4    Zn1   S    
C46   H29   S    
C38   H13   S    
C11   C29   A    
C59   H41   S    
C25   H4    S    
C27   C28   A    
C47   N4    S    
C14   C15   A    
C3    N1    S    
C60   H42   S    
C47   H24   S    
C31   H1    S    
C32   H2    S    
C15   C16   A    
C15   H34   S    
C19   O12   S    
