data_mof_unit_36620.cif
_audit_creation_date              2012-12-11T15:34:12-0500
_audit_creation_method            fapswitch 2.2
_symmetry_space_group_name_H-M    P1
_symmetry_Int_Tables_number       1
_space_group_crystal_system       triclinic
_cell_length_a                    15.070615
_cell_length_b                    15.075078
_cell_length_c                    34.934317
_cell_angle_alpha                 90.553699
_cell_angle_beta                  89.994082
_cell_angle_gamma                 59.985381
_cell_volume                      6871.98331204

loop_
_atom_site_label
_atom_site_type_symbol
_atom_type_description
_atom_site_fract_x
_atom_site_fract_y
_atom_site_fract_z
_atom_type_partial_charge
C1    C     C_R   0.302610 0.608227 0.555770 0.543292
C2    C     C_R   0.660616 0.668226 0.667102 0.033045
C3    C     C_R   0.253584 0.614306 0.270575 -0.092793
C4    C     C_R   0.164881 0.650856 0.293041 -0.001394
C5    C     C_R   0.069449 0.687360 0.275953 -0.108177
C6    C     C_R   0.062193 0.690138 0.236278 -0.113063
C7    C     C_R   0.150206 0.656394 0.213464 0.021937
C8    C     C_R   0.193725 0.566817 0.355262 -0.134439
C9    C     C_R   0.227080 0.555940 0.392955 -0.133685
C10   C     C_R   0.211831 0.723684 0.390938 -0.105119
C11   C     C_R   0.179125 0.735155 0.352867 0.029763
C12   C     C_R   0.173643 0.653970 0.334649 0.037490
C13   C     C_R   0.566874 0.730025 0.648716 -0.113192
C14   C     C_R   0.240989 0.632250 0.410481 0.005635
C15   C     C_R   0.736000 0.025366 0.943292 0.548743
C16   C     C_R   0.745662 0.722720 0.945046 0.542951
C17   C     C_R   0.038273 0.733934 0.948339 0.540511
C18   C     C_R   0.723296 0.038002 0.053070 0.544471
C19   C     C_R   0.733382 0.734645 0.054770 0.566819
C20   C     C_R   0.026539 0.745229 0.058165 0.541389
C21   C     C_R   0.552887 0.708930 0.610991 -0.127547
C22   C     C_R   0.681917 0.679511 0.786210 0.343639
C23   C     C_R   0.669750 0.677177 0.708765 0.344118
C24   C     C_R   0.782963 0.614634 0.845859 -0.131395
C25   C     C_R   0.795948 0.624002 0.884648 -0.139450
C26   C     C_R   0.618609 0.762557 0.890296 0.008992
C27   C     C_R   0.607274 0.752203 0.850798 -0.098988
C28   C     C_R   0.690136 0.681492 0.828220 0.017671
C29   C     C_R   0.610786 0.588746 0.555086 0.546955
C30   C     C_R   0.716770 0.700947 0.907060 0.038463
C31   C     C_R   0.722860 0.073362 0.905554 -0.009862
C32   C     C_R   0.631914 0.104889 0.885006 -0.094956
C33   C     C_R   0.626643 0.128261 0.846243 0.171525
C34   C     C_R   0.712897 0.120905 0.827618 0.030797
C35   C     C_R   0.800996 0.097134 0.848656 -0.158282
C36   C     C_R   0.806100 0.073394 0.887390 -0.135048
C37   C     C_R   0.711263 0.216101 0.769622 -0.095238
C38   C     C_R   0.703302 0.228505 0.730010 -0.099808
C39   C     C_R   0.698706 0.154880 0.706466 0.048428
C40   C     C_R   0.590192 0.300686 0.553638 0.547380
C41   C     C_R   0.707554 0.066171 0.722697 -0.063899
C42   C     C_R   0.714984 0.054046 0.762287 -0.066445
C43   C     C_R   0.714343 0.130160 0.785906 0.050319
C44   C     C_R   0.586435 0.188461 0.649154 0.168870
C45   C     C_R   0.561964 0.222082 0.611501 -0.093804
C46   C     C_R   0.720610 0.225029 0.605440 -0.135093
C47   C     C_R   0.745785 0.190888 0.642941 -0.156681
C48   C     C_R   0.678095 0.174804 0.665368 0.031871
C49   C     C_R   0.626880 0.244136 0.589790 -0.010312
C50   C     C_R   0.091956 0.696990 0.911296 0.021145
C51   C     C_R   0.299495 0.610604 0.446265 0.543444
C52   C     C_R   0.123045 0.757314 0.891266 -0.124769
C53   C     C_R   0.147027 0.739531 0.852446 -0.118934
C54   C     C_R   0.141467 0.660542 0.833108 0.030414
C55   C     C_R   0.120076 0.594055 0.853761 -0.110369
C56   C     C_R   0.095265 0.612244 0.892638 -0.122110
C57   C     C_R   0.212065 0.560563 0.772304 -0.100178
C58   C     C_R   0.220539 0.556612 0.732451 -0.098156
C59   C     C_R   0.164623 0.645940 0.710777 0.028188
C60   C     C_R   0.097958 0.738504 0.729641 -0.107970
C61   C     C_R   0.090360 0.742574 0.769412 -0.107425
C62   C     C_R   0.608598 0.590264 0.445638 0.544664
C63   C     C_R   0.148567 0.654049 0.791047 0.025529
C64   C     C_R   0.191909 0.723339 0.652272 -0.115219
C65   C     C_R   0.223797 0.715139 0.614330 -0.123300
C66   C     C_R   0.231268 0.551255 0.608488 -0.119678
C67   C     C_R   0.198990 0.559671 0.646448 -0.111250
C68   C     C_R   0.182475 0.644122 0.669078 0.029637
C69   C     C_R   0.247524 0.627235 0.592514 0.019201
C70   C     C_R   0.694582 0.723957 0.092221 0.031449
C71   C     C_R   0.632495 0.813775 0.113650 -0.159097
C72   C     C_R   0.613181 0.808726 0.152251 -0.133857
C73   C     C_R   0.588402 0.301870 0.444058 0.544700
C74   C     C_R   0.654804 0.713779 0.170276 -0.003376
C75   C     C_R   0.709854 0.623574 0.148388 -0.088009
C76   C     C_R   0.729706 0.627864 0.109570 0.157873
C77   C     C_R   0.627188 0.634862 0.228225 -0.115764
C78   C     C_R   0.625166 0.626091 0.267793 -0.114184
C79   C     C_R   0.641739 0.691189 0.291931 0.055993
C80   C     C_R   0.659609 0.765884 0.276167 -0.067898
C81   C     C_R   0.661511 0.774831 0.236485 -0.104066
C82   C     C_R   0.645991 0.708819 0.212183 0.030501
C83   C     C_R   0.567194 0.750191 0.357816 0.165298
C84   C     C_R   0.632332 0.625479 0.591123 0.022261
C85   C     C_R   0.559642 0.724245 0.395545 -0.095716
C86   C     C_R   0.710338 0.557185 0.385863 -0.136444
C87   C     C_R   0.717132 0.582010 0.348182 -0.156231
C88   C     C_R   0.643829 0.676790 0.333485 0.036944
C89   C     C_R   0.628827 0.626240 0.409371 -0.009088
C90   C     C_R   0.701925 0.094700 0.089567 0.022646
C91   C     C_R   0.780193 0.103482 0.107934 -0.114213
C92   C     C_R   0.770564 0.131541 0.146449 -0.114549
C93   C     C_R   0.682363 0.151898 0.167031 0.029624
C94   C     C_R   0.600224 0.152722 0.147803 -0.119035
C95   C     C_R   0.728640 0.569359 0.608406 -0.129194
C96   C     C_R   0.609871 0.124408 0.109306 -0.127781
C97   C     C_R   0.591469 0.235489 0.227880 -0.129618
C98   C     C_R   0.587453 0.239568 0.267660 -0.151372
C99   C     C_R   0.671768 0.169500 0.289195 0.040545
C100  C     C_R   0.760880 0.094425 0.270447 0.172316
C101  C     C_R   0.764594 0.090931 0.230518 -0.083929
C102  C     C_R   0.680113 0.161372 0.209017 -0.001426
C103  C     C_R   0.729528 0.207449 0.350517 -0.083482
C104  C     C_R   0.709558 0.239254 0.388672 -0.127048
C105  C     C_R   0.565047 0.210233 0.388730 -0.120453
C106  C     C_R   0.742747 0.590705 0.646049 -0.121258
C107  C     C_R   0.585198 0.178383 0.350610 -0.106474
C108  C     C_R   0.665294 0.180255 0.331008 0.062553
C109  C     C_R   0.624347 0.245218 0.407571 0.017826
C110  C     C_R   0.077982 0.710998 0.095322 0.019469
C111  C     C_R   0.084198 0.624358 0.112804 -0.121587
C112  C     C_R   0.112627 0.603620 0.151023 -0.125137
C113  C     C_R   0.136480 0.668289 0.171981 0.015710
C114  C     C_R   0.136720 0.750940 0.154163 -0.123049
C115  C     C_R   0.107874 0.772137 0.115960 -0.125785
C116  C     C_R   0.247910 0.616258 0.230374 0.027447
Cr1   Cr    Cr6+3 0.421670 0.426920 0.499620 1.021973
Cr2   Cr    Cr6+3 0.427030 0.651190 0.500980 1.023288
Cr3   Cr    Cr6+3 0.651280 0.421870 0.499380 1.018659
Cr4   Cr    Cr6+3 0.910810 0.908010 0.001130 1.020949
Cr5   Cr    Cr6+3 0.682800 0.909890 0.998370 1.009106
Cr6   Cr    Cr6+3 0.908370 0.682300 0.002180 1.052603
H1    H     H_    0.791605 0.505362 0.593599 0.133083
H2    H     H_    0.877252 0.049334 0.902451 0.138886
H3    H     H_    0.816360 0.180912 0.655046 0.116317
H4    H     H_    0.696855 0.297274 0.717807 0.121228
H5    H     H_    0.711403 0.274934 0.787627 0.121854
H6    H     H_    0.705539 0.008109 0.704814 0.144101
H7    H     H_    0.718644 0.986660 0.774649 0.137775
H8    H     H_    0.488940 0.237026 0.600143 0.159602
H9    H     H_    0.867631 0.091786 0.834611 0.115328
H10   H     H_    0.477916 0.754044 0.598289 0.133795
H11   H     H_    0.772229 0.241342 0.589418 0.137378
H12   H     H_    0.122085 0.822664 0.904861 0.129790
H13   H     H_    0.071745 0.564333 0.907301 0.128430
H14   H     H_    0.190362 0.498461 0.658487 0.125429
H15   H     H_    0.273728 0.484460 0.718744 0.141936
H16   H     H_    0.257368 0.491460 0.788549 0.141834
H17   H     H_    0.165362 0.790434 0.837070 0.112878
H18   H     H_    0.052588 0.808063 0.713662 0.105342
H19   H     H_    0.038945 0.815050 0.783353 0.108209
H20   H     H_    0.180649 0.788971 0.669057 0.110918
H21   H     H_    0.871254 0.574523 0.896451 0.137749
H22   H     H_    0.235646 0.774947 0.602874 0.131550
H23   H     H_    0.115716 0.532463 0.839310 0.119882
H24   H     H_    0.248345 0.482827 0.592307 0.134323
H25   H     H_    0.603902 0.888800 0.101270 0.139983
H26   H     H_    0.776876 0.525130 0.329814 0.118210
H27   H     H_    0.611338 0.567953 0.279695 0.106349
H28   H     H_    0.614584 0.583579 0.210134 0.105153
H29   H     H_    0.568433 0.879322 0.168334 0.122449
H30   H     H_    0.673893 0.815681 0.294520 0.153377
H31   H     H_    0.816482 0.542657 0.659218 0.137682
H32   H     H_    0.678122 0.831270 0.224802 0.114432
H33   H     H_    0.496827 0.778918 0.413381 0.153052
H34   H     H_    0.741552 0.549434 0.161795 0.138098
H35   H     H_    0.765077 0.481177 0.395680 0.138870
H36   H     H_    0.851716 0.081962 0.093364 0.135473
H37   H     H_    0.548081 0.118794 0.095864 0.129561
H38   H     H_    0.534994 0.157577 0.335769 0.133095
H39   H     H_    0.518653 0.298232 0.281772 0.108428
H40   H     H_    0.525484 0.290236 0.211813 0.114823
H41   H     H_    0.502557 0.791251 0.664019 0.145673
H42   H     H_    0.833986 0.132501 0.160643 0.115993
H43   H     H_    0.832426 0.031197 0.216280 0.136218
H44   H     H_    0.790892 0.210466 0.335534 0.140033
H45   H     H_    0.756571 0.265774 0.402443 0.128118
H46   H     H_    0.531430 0.168092 0.163147 0.109713
H47   H     H_    0.499261 0.213425 0.402634 0.140190
H48   H     H_    0.061587 0.575827 0.097668 0.148689
H49   H     H_    0.103662 0.839411 0.103289 0.132372
H50   H     H_    0.847726 0.557552 0.829425 0.141042
H51   H     H_    0.326059 0.586199 0.285048 0.115973
H52   H     H_    0.112014 0.539743 0.164710 0.120198
H53   H     H_    0.000772 0.715759 0.293305 0.149868
H54   H     H_    0.987418 0.720871 0.223216 0.128447
H55   H     H_    0.190161 0.504161 0.341313 0.118018
H56   H     H_    0.248335 0.484893 0.407438 0.134491
H57   H     H_    0.154488 0.801688 0.170362 0.117851
H58   H     H_    0.220503 0.783940 0.404420 0.136285
H59   H     H_    0.534095 0.801387 0.837414 0.139174
H60   H     H_    0.566390 0.106474 0.898475 0.157020
N1    N     N_R   0.764272 0.613775 0.764722 -0.234328
N2    N     N_R   0.758214 0.612334 0.726810 -0.235708
N3    N     N_R   0.587506 0.743708 0.730202 -0.218763
N4    N     N_R   0.593594 0.745187 0.768184 -0.220171
O1    O     O_R   0.502070 0.323090 0.541280 -0.516572
O2    O     O_R   0.520720 0.641670 0.461580 -0.500273
O3    O     O_R   0.674120 0.502090 0.457500 -0.518282
O4    O     O_R   0.640110 0.338380 0.459630 -0.503197
O5    O     O_3   0.499990 0.499990 0.499990 -0.239801
O6    O     O_R   0.017640 0.822070 0.960410 -0.520105
O7    O     O_R   0.822000 0.989470 0.960340 -0.497720
O8    O     O_R   0.666920 0.007430 0.955290 -0.520718
O9    O     O_R   0.694410 0.812480 0.959650 -0.506499
O10   O     O_R   0.831550 0.656950 0.958960 -0.512324
O11   O     O_R   0.998590 0.685540 0.963930 -0.503210
O12   O     O_R   0.338340 0.520690 0.539540 -0.501676
O13   O     O_R   0.008220 0.831200 0.045060 -0.519187
O14   O     O_R   0.813270 0.997930 0.038810 -0.500177
O15   O     O_R   0.657500 0.016560 0.039940 -0.521227
O16   O     O_R   0.685680 0.820940 0.038120 -0.516646
O17   O     O_R   0.822130 0.666070 0.043610 -0.457247
O18   O     O_R   0.989860 0.694000 0.042400 -0.500276
O19   O     O_3   0.833990 0.833400 0.000560 -0.245391
O20   O     O_R   0.324760 0.674070 0.543580 -0.518909
O21   O     O_R   0.522400 0.640310 0.540110 -0.502143
O22   O     O_R   0.675940 0.500630 0.542210 -0.517859
O23   O     O_R   0.641790 0.337020 0.538150 -0.499184
O24   O     O_R   0.500260 0.324550 0.456580 -0.517269
O25   O     O_R   0.336660 0.522040 0.461020 -0.501691
O26   O     O_R   0.322940 0.675540 0.458880 -0.516911
Br1   Br    Br    0.501396 0.166453 0.819550 -0.493337
Br2   Br    Br    0.486031 0.174728 0.678366 -0.502221
Br3   Br    Br    0.805748 0.500071 0.082268 -0.511683
Br4   Br    Br    0.466220 0.882797 0.339971 -0.587832
Br5   Br    Br    0.876386 0.991817 0.297963 -0.609587
C117  C     C_3   0.156787 0.831652 0.332008 -0.276297
C118  C     C_3   0.255607 0.831397 0.322262 -0.414200
H61   H     H_    0.297917 0.827514 0.348784 0.190178
H62   H     H_    0.305371 0.764880 0.303482 0.162425
H63   H     H_    0.237079 0.902849 0.307000 0.181782
H64   H     H_    0.113954 0.840612 0.305148 0.200583
H65   H     H_    0.107317 0.899568 0.350292 0.174742
C119  C     C_3   0.342730 0.576499 0.204966 -0.271033
C120  C     C_3   0.445190 0.530076 0.225880 -0.457770
H66   H     H_    0.449139 0.589430 0.243670 0.152007
H67   H     H_    0.455730 0.465692 0.244113 0.145278
H68   H     H_    0.508627 0.499743 0.204585 0.146395
H69   H     H_    0.345320 0.516736 0.185344 0.152023
H70   H     H_    0.335850 0.640341 0.187202 0.154735
C121  C     C_3   0.524952 0.839641 0.912866 -0.266398
C122  C     C_3   0.494146 0.787471 0.943145 -0.422009
H71   H     H_    0.478792 0.729732 0.929427 0.158651
H72   H     H_    0.555145 0.749162 0.964838 0.167542
H73   H     H_    0.423304 0.845660 0.958005 0.137336
H74   H     H_    0.537466 0.899590 0.926068 0.181889
H75   H     H_    0.458197 0.881470 0.893599 0.138368

loop_
_geom_bond_atom_site_label_1
_geom_bond_atom_site_label_2
_ccdc_geom_bond_type
C7    C116  A    
C112  H52   S    
C55   C56   A    
C22   N4    A    
C101  C102  A    
C52   H12   S    
C41   C42   A    
C92   C93   A    
C71   H25   S    
C111  C112  A    
Cr6   O19   S    
Cr3   O4    S    
Cr5   O19   S    
C9    C14   A    
C98   H39   S    
C97   C98   A    
C57   C58   A    
Cr2   O21   S    
C117  H64   S    
C39   C41   A    
C40   O1    A    
C77   C78   A    
C52   C53   A    
C99   C108  S    
C105  C107  A    
C46   C49   A    
C26   C27   A    
C22   N1    A    
C29   O22   A    
C105  H47   S    
C44   Br2   S    
Cr4   O19   S    
C64   C68   A    
C32   H60   S    
Cr1   O24   S    
C36   H2    S    
Cr3   O5    S    
Cr5   O16   S    
C3    C116  A    
Cr4   O6    S    
C5    C6    A    
C55   H23   S    
C66   C69   A    
C54   C63   S    
C16   C30   S    
C40   C49   S    
C62   C89   S    
Cr4   O13   S    
C15   C31   S    
Cr2   O26   S    
C34   C35   A    
C85   H33   S    
Cr6   O18   S    
C10   C14   A    
C61   C63   A    
C2    C13   A    
C110  C111  A    
C79   C88   S    
C91   H36   S    
C73   O4    A    
Cr1   O5    S    
C46   C47   A    
C15   O8    A    
C8    H55   S    
C3    H51   S    
C1    O12   A    
C8    C9    A    
C64   H20   S    
C50   C52   A    
C107  C108  A    
C97   H40   S    
C17   O11   A    
C70   C71   A    
C4    C12   S    
C50   C56   A    
C122  H71   S    
C31   C36   A    
C97   C102  A    
C83   Br4   S    
C72   H29   S    
C83   C88   A    
C59   C60   A    
C22   C28   S    
C121  H75   S    
C5    H53   S    
C41   H6    S    
C25   H21   S    
C18   O15   A    
C35   C36   A    
C74   C82   S    
C75   H34   S    
C122  H73   S    
C112  C113  A    
C38   H4    S    
C103  C104  A    
C13   H41   S    
C62   O3    A    
C2    C23   S    
C17   O6    A    
C103  H44   S    
C47   H3    S    
Cr3   O23   S    
C87   H26   S    
C13   C21   A    
C67   C68   A    
C18   C90   S    
C47   C48   A    
C24   C28   A    
C73   O24   A    
Cr1   O25   S    
C24   C25   A    
C20   O18   A    
C29   C84   S    
C72   C74   A    
C74   C75   A    
C114  C115  A    
C94   H46   S    
C91   C92   A    
C23   N3    A    
C65   H22   S    
Cr2   O2    S    
C86   C87   A    
C4    C5    A    
C26   C121  S    
C58   C59   A    
C53   C54   A    
C40   O23   A    
C2    C106  A    
C19   O16   A    
C81   C82   A    
C81   H32   S    
C60   C61   A    
C84   C95   A    
Cr6   O17   S    
C37   C43   A    
C17   C50   S    
C101  H43   S    
C75   C76   A    
C27   H59   S    
C21   H10   S    
C37   C38   A    
C16   O10   A    
C95   C106  A    
C59   C68   S    
C118  H62   S    
Cr2   O5    S    
C14   C51   S    
C21   C84   A    
C45   C49   A    
C20   O13   A    
C8    C12   A    
C106  H31   S    
C90   C96   A    
C19   O17   A    
C119  C120  S    
N1    N2    A    
C93   C94   A    
C119  H70   S    
C94   C96   A    
C1    O20   A    
C122  H72   S    
C11   C117  S    
C103  C108  A    
C60   H18   S    
C20   C110  S    
C58   H15   S    
C115  H49   S    
C83   C85   A    
C100  Br5   S    
C120  H66   S    
C120  H67   S    
Cr1   O1    S    
C121  H74   S    
C42   C43   A    
C51   O26   A    
C70   C76   A    
C90   C91   A    
C3    C4    A    
C35   H9    S    
Cr5   O8    S    
C118  H61   S    
C56   H13   S    
C44   C45   A    
C62   O2    A    
C113  C114  A    
C61   H19   S    
C25   C30   A    
C80   H30   S    
C105  C109  A    
C54   C55   A    
C85   C89   A    
Cr2   O20   S    
C53   H17   S    
C93   C102  S    
C31   C32   A    
C34   C43   S    
Cr3   O3    S    
C57   C63   A    
Cr6   O10   S    
C80   C81   A    
C86   C89   A    
C77   H28   S    
Cr4   O7    S    
C11   C12   A    
C73   C109  S    
C6    C7    A    
C120  H68   S    
N3    N4    A    
C119  H69   S    
C29   O21   A    
C99   C100  A    
C116  C119  S    
C111  H48   S    
C10   H58   S    
C64   C65   A    
C7    C113  S    
C67   H14   S    
Cr5   O15   S    
C23   N2    A    
C16   O9    A    
C107  H38   S    
C32   C33   A    
C118  H63   S    
C18   O14   A    
C78   C79   A    
C76   Br3   S    
C92   H42   S    
C117  C118  S    
C38   C39   A    
C6    H54   S    
C77   C82   A    
C114  H57   S    
C65   C69   A    
C121  C122  S    
Cr4   O14   S    
C33   C34   A    
C57   H16   S    
C66   C67   A    
C42   H7    S    
C117  H65   S    
Cr6   O11   S    
C24   H50   S    
C86   H35   S    
C1    C69   S    
C66   H24   S    
C10   C11   A    
Cr1   O12   S    
C79   C80   A    
C15   O7    A    
C51   O25   A    
C45   H8    S    
C96   H37   S    
C71   C72   A    
C87   C88   A    
C98   C99   A    
C27   C28   A    
C104  C109  A    
C19   C70   S    
C100  C101  A    
Cr3   O22   S    
C33   Br1   S    
C104  H45   S    
C37   H5    S    
C110  C115  A    
Cr5   O9    S    
C9    H56   S    
C44   C48   A    
C78   H27   S    
C95   H1    S    
C39   C48   S    
C46   H11   S    
C26   C30   A    
