data_mof_unit_14410.cif
_audit_creation_date              2012-12-11T16:57:17-0500
_audit_creation_method            fapswitch 2.2
_symmetry_space_group_name_H-M    P1
_symmetry_Int_Tables_number       1
_space_group_crystal_system       triclinic
_cell_length_a                    14.502747
_cell_length_b                    16.151583
_cell_length_c                    6.936516
_cell_angle_alpha                 89.971055
_cell_angle_beta                  98.607698
_cell_angle_gamma                 90.012088
_cell_volume                      1606.52381491

loop_
_atom_site_label
_atom_site_type_symbol
_atom_type_description
_atom_site_fract_x
_atom_site_fract_y
_atom_site_fract_z
_atom_type_partial_charge
O1    O     O_R   0.584990 0.413650 0.534420 -0.536308
O2    O     O_R   0.584990 0.586350 0.534420 -0.537547
O3    O     O_R   0.596190 0.585230 0.208380 -0.542853
O4    O     O_R   0.596190 0.414770 0.208380 -0.542620
O5    O     O_R   0.415010 0.586420 0.976930 -0.537821
O6    O     O_R   0.415010 0.413580 0.976930 -0.536735
C1    C     C_R   0.618705 0.614401 0.383925 0.693585
C2    C     C_R   0.619033 0.385839 0.384238 0.696072
O7    O     O_3   0.440560 0.500000 0.319140 -0.368763
V1    V     V_3+5 0.511030 0.500000 0.068070 1.388952
O8    O     O_R   0.403810 0.414840 0.643540 -0.542121
O9    O     O_R   0.403810 0.585160 0.643540 -0.543247
C3    C     C_R   0.380357 0.386879 0.806045 0.755670
C4    C     C_R   0.382562 0.614797 0.806323 0.752085
V2    V     V_3+5 0.488970 0.500000 0.560620 1.391947
O10   O     O_3   0.559440 0.500000 0.859420 -0.373105
H1    H     H_    0.321623 0.695351 0.103501 0.143111
H2    H     H_    0.315810 0.308682 0.101734 0.142065
C5    C     C_2   0.321093 0.688355 0.798921 -0.359020
C6    C     C_2   0.303794 0.325516 0.796833 -0.360513
C7    C     C_2   0.300974 0.725214 0.963227 -0.149301
C8    C     C_2   0.275633 0.294741 0.960316 -0.147589
H3    H     H_    0.201292 0.777955 0.226225 0.109905
H4    H     H_    0.246059 0.185802 0.227163 0.111356
C9    C     C_2   0.199638 0.821985 0.107178 -0.375166
C10   C     C_2   0.189495 0.185871 0.105142 -0.370909
C11   C     C_2   0.252335 0.806764 0.963296 0.116083
C12   C     C_2   0.190821 0.242029 0.958144 0.124486
H5    H     H_    0.297398 0.715742 0.657255 0.133053
H6    H     H_    0.267147 0.308769 0.654153 0.134761
C13   C     C_R   0.751380 0.688887 0.590399 0.100893
C14   C     C_R   0.685550 0.259534 0.568881 0.102916
C15   C     C_R   0.690468 0.680980 0.414474 -0.112764
C16   C     C_R   0.685664 0.315130 0.413642 -0.115554
C17   C     C_R   0.700935 0.738472 0.266211 -0.176099
C18   C     C_R   0.748990 0.298962 0.282542 -0.173664
H7    H     H_    0.655174 0.735398 0.128492 0.129290
H8    H     H_    0.752059 0.340016 0.160732 0.132679
C19   C     C_R   0.765559 0.804389 0.299488 -0.180022
C20   C     C_R   0.813576 0.233034 0.315099 -0.177452
H9    H     H_    0.768465 0.849536 0.185470 0.129194
H10   H     H_    0.864230 0.225271 0.216927 0.124866
C21   C     C_R   0.821168 0.815309 0.482659 -0.114342
C22   C     C_R   0.817221 0.181436 0.480338 -0.114886
C23   C     C_R   0.814805 0.754248 0.623666 0.105798
C24   C     C_R   0.749610 0.194696 0.601616 0.102239
C25   C     C_3   0.798268 0.763639 0.829265 -0.412939
C26   C     C_3   0.761647 0.206601 0.816823 -0.413930
C27   C     C_3   0.729719 0.692169 0.793276 -0.398209
C28   C     C_3   0.691733 0.277026 0.781186 -0.398281
H11   H     H_    0.764364 0.823665 0.853428 0.170103
H12   H     H_    0.735518 0.152874 0.893034 0.177124
H13   H     H_    0.861276 0.748587 0.935517 0.174674
H14   H     H_    0.833225 0.227565 0.876311 0.163564
H15   H     H_    0.656194 0.710576 0.797588 0.166696
H16   H     H_    0.625119 0.263946 0.836472 0.169491
H17   H     H_    0.753317 0.635618 0.877933 0.173462
H18   H     H_    0.722605 0.338897 0.820064 0.170237
O11   O     O_R   0.921430 0.915960 0.371040 -0.534243
O12   O     O_R   0.921430 0.084040 0.371040 -0.536181
O13   O     O_R   0.910450 0.087500 0.697310 -0.546869
O14   O     O_R   0.910450 0.912500 0.697310 -0.540482
O15   O     O_R   0.091710 0.087460 0.928430 -0.543934
O16   O     O_R   0.091710 0.912540 0.928430 -0.540336
C29   C     C_R   0.888289 0.114611 0.519601 0.692707
C30   C     C_R   0.887806 0.885750 0.519536 0.701741
O17   O     O_3   0.065970 0.000000 0.586140 -0.371546
V3    V     V_3+5 0.995640 0.000000 0.837400 1.387898
O18   O     O_R   0.103020 0.915700 0.261710 -0.538301
O19   O     O_R   0.103020 0.084300 0.261710 -0.539538
C31   C     C_R   0.129433 0.889395 0.100018 0.748371
C32   C     C_R   0.121089 0.117185 0.098940 0.734509
V4    V     V_3+5 0.017940 0.000000 0.344880 1.386218
O20   O     O_3   0.947330 0.000000 0.046180 -0.370924
C33   C     C_3   0.267737 0.871351 0.809628 -0.273538
C34   C     C_3   0.371856 0.889513 0.810006 -0.345160
C35   C     C_3   0.385566 0.955443 0.658956 -0.778778
H19   H     H_    0.351717 0.014404 0.691979 0.229344
H20   H     H_    0.355274 0.934244 0.510547 0.228930
H21   H     H_    0.461233 0.966982 0.661647 0.217960
H22   H     H_    0.403450 0.911761 0.956805 0.195276
H23   H     H_    0.409609 0.832883 0.776110 0.203318
H24   H     H_    0.235234 0.849415 0.663346 0.165470
H25   H     H_    0.235987 0.931750 0.836142 0.186497
C36   C     C_3   0.106933 0.256513 0.799432 -0.288905
C37   C     C_3   0.073936 0.347043 0.794728 -0.341694
C38   C     C_3   0.986138 0.359301 0.645805 -0.785134
H26   H     H_    0.927707 0.322034 0.686656 0.232719
H27   H     H_    0.965527 0.425553 0.641734 0.220888
H28   H     H_    0.999183 0.340652 0.498115 0.229092
H29   H     H_    0.058452 0.365018 0.941274 0.195069
H30   H     H_    0.128924 0.388962 0.755780 0.207333
H31   H     H_    0.125463 0.238714 0.655368 0.160853
H32   H     H_    0.045784 0.219060 0.823342 0.176772

loop_
_geom_bond_atom_site_label_1
_geom_bond_atom_site_label_2
_ccdc_geom_bond_type
C38   H26   S    
O1    C2    A    
C10   C32   S    
V4    O20   S    
O2    C1    A    
O4    C2    A    
C19   H9    S    
C6    H6    S    
C36   C37   S    
C26   H14   S    
O16   V3    S    
C5    C7    D    
H4    C10   S    
O3    C1    A    
C37   H29   S    
O11   C30   A    
C33   H25   S    
V3    O20   S    
V2    O10   S    
O12   V4    S    
C27   H17   S    
O16   C31   A    
O18   C31   A    
C36   H31   S    
C13   C15   A    
O18   V4    S    
O1    V2    S    
O7    V1    S    
O11   V4    S    
C35   H19   S    
C25   H13   S    
C20   H10   S    
C7    C11   S    
C8    C12   S    
C1    C15   S    
C22   C29   S    
O8    V2    S    
C13   C27   S    
C11   C33   S    
C22   C24   A    
C35   H20   S    
C24   C26   S    
O19   C32   A    
O14   C30   A    
O17   V3    S    
C28   H18   S    
C18   C20   A    
C34   C35   S    
C25   C27   S    
C34   H23   S    
C37   C38   S    
C25   H11   S    
C27   H15   S    
C28   H16   S    
C14   C16   A    
C17   C19   A    
C33   C34   S    
C36   H32   S    
O9    V2    S    
C20   C22   A    
O19   V4    S    
C2    C16   S    
O2    V2    S    
C21   C23   A    
C14   C28   S    
O5    C4    A    
C9    C31   S    
O17   V4    S    
O9    C4    A    
O12   C29   A    
C38   H27   S    
O4    V1    S    
C5    H5    S    
C35   H21   S    
O15   V3    S    
C3    C6    S    
C17   H7    S    
H2    C8    S    
C14   C24   A    
C4    C5    S    
C6    C8    D    
C34   H22   S    
O6    V1    S    
C19   C21   A    
C9    C11   D    
C10   C12   D    
O14   V3    S    
C18   H8    S    
O7    V2    S    
O5    V1    S    
O3    V1    S    
C37   H30   S    
O6    C3    A    
O8    C3    A    
O13   V3    S    
C33   H24   S    
C21   C30   S    
C26   C28   S    
C15   C17   A    
C16   C18   A    
H3    C9    S    
H1    C7    S    
O13   C29   A    
C26   H12   S    
C23   C25   S    
O15   C32   A    
C13   C23   A    
C38   H28   S    
C12   C36   S    
V1    O10   S    
