data_mof_unit_7460.cif
_audit_creation_date              2012-12-10T18:14:39-0500
_audit_creation_method            fapswitch 2.2
_symmetry_space_group_name_H-M    P1
_symmetry_Int_Tables_number       1
_space_group_crystal_system       triclinic
_cell_length_a                    10.745772
_cell_length_b                    9.408378
_cell_length_c                    27.805274
_cell_angle_alpha                 90.209966
_cell_angle_beta                  89.394857
_cell_angle_gamma                 89.556503
_cell_volume                      2810.86039521

loop_
_atom_site_label
_atom_site_type_symbol
_atom_type_description
_atom_site_fract_x
_atom_site_fract_y
_atom_site_fract_z
_atom_type_partial_charge
C1    C     C_R   0.259871 0.500255 0.501649 0.909837
C2    C     C_R   0.480796 0.374219 0.277995 0.547864
C3    C     C_R   0.503700 0.500822 0.253285 -0.011070
C4    C     C_R   0.509494 0.491078 0.101737 -0.112076
C5    C     C_R   0.395370 0.509897 0.126829 -0.126640
C6    C     C_R   0.284754 0.526049 0.100457 0.445216
C7    C     C_R   0.621004 0.479535 0.127671 -0.116584
C8    C     C_R   0.499646 0.499089 0.354292 -0.378344
C9    C     C_R   0.503254 0.496736 0.646128 -0.150764
C10   C     C_R   0.401771 0.458123 0.974607 -0.042727
C11   C     C_R   0.629498 0.486405 0.974794 -0.008581
C12   C     C_R   0.499448 0.499666 0.407395 0.926340
C13   C     C_R   0.516676 0.470756 0.949388 0.005218
C14   C     C_R   0.294358 0.421438 0.948187 0.587433
C15   C     C_R   0.298059 0.415920 0.898230 -0.167814
C16   C     C_R   0.408261 0.443310 0.872930 -0.114039
C17   C     C_R   0.518566 0.468828 0.898333 -0.134856
C18   C     C_R   0.630332 0.493493 0.872662 -0.143564
C19   C     C_R   0.628293 0.494035 0.821999 0.600606
C20   C     C_R   0.410897 0.444289 0.822532 0.645323
C21   C     C_R   0.513667 0.610402 0.724639 -0.316038
C22   C     C_R   0.500518 0.622009 0.674552 0.456541
C23   C     C_R   0.740145 0.499352 0.501642 0.909882
C24   C     C_R   0.509075 0.363453 0.669087 -0.387681
C25   C     C_R   0.517154 0.353116 0.719271 0.510340
C26   C     C_R   0.517913 0.477700 0.746834 0.219150
C27   C     C_R   0.399181 0.481756 0.025080 0.019957
C28   C     C_R   0.512360 0.483056 0.050734 0.012218
C29   C     C_R   0.628340 0.475599 0.025787 -0.033562
C30   C     C_R   0.287483 0.509881 0.050528 -0.186750
C31   C     C_R   0.733656 0.458823 0.102971 -0.199466
C32   C     C_R   0.738716 0.517383 0.948312 -0.183721
C33   C     C_R   0.739670 0.520092 0.898278 0.642578
C34   C     C_R   0.499881 0.500002 0.592776 0.908524
C35   C     C_R   0.738053 0.455794 0.052991 0.585456
C36   C     C_3   0.071019 0.608484 0.540858 0.383317
C37   C     C_3   0.074002 0.349553 0.517114 0.395833
C38   C     C_3   0.926261 0.613936 0.539614 0.792573
C39   C     C_3   0.929931 0.346837 0.518143 0.781521
C40   C     C_3   0.072808 0.538957 0.452888 -0.622318
C41   C     C_3   0.122123 0.499629 0.503278 -0.208434
C42   C     C_3   0.878659 0.497898 0.503445 -0.177842
C43   C     C_3   0.929708 0.533720 0.452497 -0.460925
C44   C     C_3   0.608426 0.082334 0.473906 0.592048
C45   C     C_3   0.611287 0.915084 0.475615 0.558989
C46   C     C_3   0.504809 0.084188 0.550558 -0.401462
C47   C     C_3   0.501960 0.916876 0.550504 -0.344939
C48   C     C_3   0.386439 0.084443 0.478591 -0.190120
C49   C     C_3   0.388336 0.917111 0.477233 -0.211950
C50   C     C_R   0.396275 0.513864 0.177576 0.677788
C51   C     C_R   0.617016 0.484895 0.178056 0.692738
C52   C     C_R   0.523801 0.626760 0.278890 0.633581
C53   C     C_R   0.521555 0.625960 0.329058 -0.326752
C54   C     C_R   0.478599 0.372851 0.328171 0.558663
Cu1   Cu    Cu3+1 0.499860 0.642410 0.500020 0.989509
Cu2   Cu    Cu3+1 0.499860 0.357590 0.500020 1.021943
H1    H     H_    0.819531 0.442610 0.122336 0.222520
H2    H     H_    0.823961 0.547470 0.965556 0.240337
H3    H     H_    0.505516 0.266591 0.648104 0.171799
H4    H     H_    0.107645 0.716056 0.532504 0.093988
H5    H     H_    0.107762 0.270890 0.489846 0.105210
H6    H     H_    0.104004 0.647579 0.442873 0.235278
H7    H     H_    0.111154 0.463909 0.425344 0.228187
H8    H     H_    0.892253 0.637772 0.440070 0.266041
H9    H     H_    0.899035 0.452637 0.425993 0.253200
H10   H     H_    0.695448 0.121200 0.489601 0.094001
H11   H     H_    0.697022 0.882277 0.494701 0.096716
H12   H     H_    0.590166 0.120970 0.568927 0.157257
H13   H     H_    0.584187 0.875663 0.570162 0.193778
H14   H     H_    0.302421 0.119524 0.499180 0.169638
H15   H     H_    0.302420 0.878628 0.495365 0.153030
H16   H     H_    0.375690 0.126744 0.441578 0.236221
H17   H     H_    0.384127 0.879445 0.439335 0.213998
H18   H     H_    0.424357 0.124977 0.572172 0.223263
H19   H     H_    0.417899 0.881722 0.570346 0.222484
H20   H     H_    0.519750 0.704401 0.746928 0.157054
H21   H     H_    0.213604 0.389059 0.879408 0.230915
H22   H     H_    0.200742 0.527271 0.032259 0.232298
H23   H     H_    0.537783 0.724592 0.348078 0.281579
N1    N     N_R   0.505864 0.501107 0.201754 -0.413974
N2    N     N_R   0.519543 0.470330 0.798291 -0.446822
N3    N     N_3   0.500250 0.143650 0.501060 -0.210396
N4    N     N_3   0.500250 0.856350 0.501060 -0.207350
O1    O     O_R   0.317570 0.620260 0.500030 -0.624548
O2    O     O_R   0.317570 0.379740 0.500030 -0.583869
O3    O     O_R   0.499900 0.620250 0.430280 -0.549655
O4    O     O_R   0.499900 0.379750 0.430280 -0.487847
O5    O     O_R   0.682190 0.620260 0.500010 -0.553186
O6    O     O_R   0.682190 0.379740 0.500010 -0.551897
O7    O     O_R   0.499860 0.620280 0.569750 -0.560604
O8    O     O_R   0.499860 0.379720 0.569750 -0.601233
O9    O     O_2   0.289043 0.529136 0.202798 -0.463912
O10   O     O_2   0.305440 0.421071 0.797840 -0.499958
O11   O     O_2   0.723223 0.473133 0.203279 -0.499380
O12   O     O_2   0.733500 0.518048 0.796495 -0.462802
F1    F     F_    0.454341 0.248449 0.350857 -0.555021
F2    F     F_    0.545476 0.749951 0.255122 -0.579771
F3    F     F_    0.848388 0.550686 0.875361 -0.594391
O13   O     O_3   0.514730 0.223089 0.742581 -0.558315
C55   C     C_3   0.615645 0.136699 0.727076 0.024751
H24   H     H_    0.703911 0.197989 0.724317 0.164988
H25   H     H_    0.594831 0.086763 0.691794 0.141533
C56   C     C_3   0.635316 0.018516 0.763426 -0.694976
H26   H     H_    0.548223 0.957294 0.768223 0.236585
H27   H     H_    0.710390 0.945538 0.750574 0.207622
H28   H     H_    0.662183 0.064519 0.798632 0.258933
F4    F     F_    0.848971 0.420304 0.032350 -0.636434
F5    F     F_    0.112464 0.573257 0.586403 -0.629490
F6    F     F_    0.123045 0.308854 0.561049 -0.621236
O14   O     O_3   0.874466 0.587660 0.586072 -0.544733
C57   C     C_3   0.867692 0.712226 0.614617 0.150348
H29   H     H_    0.785774 0.777199 0.603860 0.155558
H30   H     H_    0.953501 0.777432 0.611402 0.158812
C58   C     C_3   0.851425 0.670572 0.667077 -0.676693
H31   H     H_    0.935070 0.611510 0.679368 0.281811
H32   H     H_    0.838728 0.767393 0.689613 0.187647
H33   H     H_    0.768664 0.601827 0.671470 0.247176
O15   O     O_3   0.883816 0.312607 0.564889 -0.539470
C59   C     C_3   0.886834 0.164807 0.574266 0.237583
H34   H     H_    0.977686 0.114807 0.564357 0.180787
H35   H     H_    0.812535 0.110052 0.554359 0.119926
C60   C     C_3   0.862942 0.141856 0.627620 -0.808022
H36   H     H_    0.771640 0.189466 0.637966 0.226524
H37   H     H_    0.861515 0.026488 0.635705 0.174068
H38   H     H_    0.937294 0.192792 0.648941 0.292696
F7    F     F_    0.460576 0.252177 0.253201 -0.559037
F8    F     F_    0.890501 0.747579 0.522758 -0.751444
F9    F     F_    0.891796 0.247392 0.484164 -0.718108
F10   F     F_    0.608006 0.128001 0.426599 -0.536138
F11   F     F_    0.621000 0.860111 0.429462 -0.595796
O16   O     O_3   0.171398 0.550142 0.123195 -0.516495
C61   C     C_3   0.143367 0.696875 0.120992 0.072820
H39   H     H_    0.132400 0.732154 0.083061 0.138579
H40   H     H_    0.217544 0.760699 0.138386 0.167749
C62   C     C_3   0.021431 0.725797 0.147658 -0.589512
H41   H     H_    0.028864 0.691065 0.185662 0.278242
H42   H     H_    0.999656 0.841335 0.146942 0.206733
H43   H     H_    0.944675 0.667352 0.130191 0.237485
O17   O     O_3   0.493667 0.754384 0.652790 -0.604992
C63   C     C_3   0.390489 0.834964 0.670424 0.009817
H44   H     H_    0.398922 0.944359 0.655964 0.169332
H45   H     H_    0.389550 0.847444 0.710116 0.161799
C64   C     C_3   0.266460 0.774750 0.653548 -0.711661
H46   H     H_    0.248587 0.670273 0.670614 0.274424
H47   H     H_    0.189513 0.848717 0.663742 0.209098
H48   H     H_    0.267538 0.761470 0.613923 0.264272
F12   F     F_    0.187418 0.378662 0.969865 -0.629288

loop_
_geom_bond_atom_site_label_1
_geom_bond_atom_site_label_2
_ccdc_geom_bond_type
C10   C27   A    
C64   H48   S    
C21   C26   A    
C36   F5    S    
C44   H10   S    
C57   H29   S    
C63   C64   S    
C32   H2    S    
Cu1   Cu2   S    
C58   H31   S    
C62   H41   S    
C52   C53   A    
C1    O1    A    
C21   H20   S    
C40   H7    S    
C16   C20   A    
C53   H23   S    
C63   H45   S    
C38   C42   S    
Cu1   O7    S    
C44   N3    S    
C24   H3    S    
C5    C6    A    
C3    C52   A    
C9    C22   A    
C15   C16   A    
C52   F2    S    
C40   H6    S    
C62   H42   S    
C33   F3    S    
Cu1   O5    S    
O15   C59   S    
C47   H13   S    
C20   N2    A    
C51   N1    A    
C25   O13   S    
C40   C43   S    
C61   H39   S    
Cu2   O8    S    
C45   H11   S    
C23   O6    A    
C34   O8    A    
C47   N4    S    
C38   O14   S    
C37   F6    S    
C43   H9    S    
C45   F11   S    
C46   N3    S    
C21   C22   A    
C27   C30   A    
C36   C41   S    
C45   N4    S    
C48   H16   S    
C4    C7    A    
C3    N1    S    
C4    C28   A    
C43   H8    S    
C38   F8    S    
C39   C42   S    
C59   H35   S    
C1    O2    A    
O17   C63   S    
C7    C31   A    
C24   C25   A    
C57   H30   S    
C2    C54   A    
C8    C54   A    
C16   C17   A    
Cu2   O4    S    
C20   O10   S    
C57   C58   S    
C25   C26   A    
C22   O17   S    
C55   C56   S    
O14   C57   S    
C34   O7    A    
C46   H12   S    
C37   H5    S    
O13   C55   S    
C8    C12   S    
C55   H25   S    
C17   C18   A    
C56   H27   S    
C63   H44   S    
C23   C42   S    
C62   H43   S    
C2    F7    S    
C1    C41   S    
C40   C41   S    
C6    C30   A    
C11   C32   A    
C26   N2    S    
C23   O5    A    
C10   C14   A    
C9    C34   S    
C31   C35   A    
C5    C50   A    
C42   C43   S    
Cu1   N4    S    
O16   C61   S    
C46   H18   S    
C19   O12   S    
C44   C45   S    
C59   C60   S    
C50   O9    S    
C64   H47   S    
Cu2   O6    S    
C46   C47   S    
C28   C29   A    
C39   F9    S    
C12   O4    A    
C54   F1    S    
C48   H14   S    
C6    O16   S    
C36   H4    S    
C10   C13   A    
C50   N1    A    
C8    C53   A    
C58   H32   S    
C59   H34   S    
C9    C24   A    
Cu2   N3    S    
C12   O3    A    
C39   O15   S    
C29   C35   A    
Cu1   O1    S    
C13   C17   A    
C32   C33   A    
C49   N4    S    
C60   H38   S    
C36   C38   S    
C2    C3    A    
C44   F10   S    
C47   H19   S    
C37   C39   S    
C11   C13   A    
C31   H1    S    
Cu2   O2    S    
C15   H21   S    
Cu1   O3    S    
C61   C62   S    
C48   C49   S    
C14   F12   S    
C55   H24   S    
C48   N3    S    
C56   H28   S    
C49   H17   S    
C37   C41   S    
C18   C33   A    
C58   H33   S    
C35   F4    S    
C51   O11   S    
C7    C51   A    
C30   H22   S    
C4    C5    A    
C11   C29   A    
C61   H40   S    
C49   H15   S    
C56   H26   S    
C18   C19   A    
C14   C15   A    
C60   H36   S    
C19   N2    A    
C60   H37   S    
C64   H46   S    
C27   C28   A    
