data_mof_unit_21914.cif
_audit_creation_date              2012-12-10T20:38:23-0500
_audit_creation_method            fapswitch 2.2
_symmetry_space_group_name_H-M    P1
_symmetry_Int_Tables_number       1
_space_group_crystal_system       triclinic
_cell_length_a                    9.854771
_cell_length_b                    10.674017
_cell_length_c                    16.861214
_cell_angle_alpha                 90.502116
_cell_angle_beta                  84.246232
_cell_angle_gamma                 89.987249
_cell_volume                      1764.62645913

loop_
_atom_site_label
_atom_site_type_symbol
_atom_type_description
_atom_site_fract_x
_atom_site_fract_y
_atom_site_fract_z
_atom_type_partial_charge
C1    C     C_R   0.499810 0.740071 0.501849 0.974397
C2    C     C_R   0.539565 0.489937 0.261796 -0.291420
C3    C     C_R   0.378672 0.936334 0.533346 0.102196
C4    C     C_R   0.480226 0.495374 0.652564 0.917578
C5    C     C_R   0.500125 0.871689 0.513058 -0.112131
C6    C     C_R   0.624799 0.935702 0.507766 -0.098454
C7    C     C_R   0.624856 0.064596 0.508996 -0.186189
C8    C     C_R   0.500092 0.128798 0.514562 -0.083235
C9    C     C_R   0.378561 0.064299 0.533938 0.143018
C10   C     C_3   0.244158 0.071241 0.500142 -0.460401
C11   C     C_3   0.244299 0.929057 0.499599 -0.430029
C12   C     C_R   0.374533 0.551518 0.786104 -0.186945
C13   C     C_R   0.921146 0.586498 0.544701 0.186685
C14   C     C_R   0.936445 0.422452 0.450798 -0.103365
C15   C     C_R   0.080481 0.422523 0.450741 -0.091512
C16   C     C_R   0.499716 0.260101 0.503014 0.906768
C17   C     C_R   0.063969 0.585530 0.544884 0.154958
C18   C     C_3   0.056906 0.599739 0.633017 -0.565844
C19   C     C_3   0.902498 0.601329 0.633649 0.266318
C20   C     C_R   0.520302 0.499923 0.347427 1.034758
C21   C     C_R   0.466931 0.477489 0.737581 -0.067677
C22   C     C_R   0.548625 0.388186 0.771234 0.112350
C23   C     C_R   0.574240 0.356507 0.143943 0.463269
C24   C     C_R   0.545034 0.381688 0.853195 -0.119806
C25   C     C_R   0.461315 0.463067 0.901735 0.120305
C26   C     C_R   0.371544 0.544055 0.868503 -0.121099
C27   C     C_R   0.536499 0.370087 0.226135 -0.003547
C28   C     C_R   0.579806 0.596289 0.216696 0.416228
C29   C     C_R   0.609267 0.582928 0.134920 -0.269043
C30   C     C_R   0.603209 0.465424 0.098785 -0.096705
C31   C     C_2   0.473543 0.468475 0.986751 -0.156306
C32   C     C_2   0.596395 0.463541 0.013661 -0.078254
H1    H     H_    0.631389 0.664803 0.098331 0.222366
H2    H     H_    0.095258 0.515580 0.662170 0.196604
H3    H     H_    0.102976 0.689544 0.650705 0.242729
H4    H     H_    0.851685 0.519984 0.664726 0.120975
H5    H     H_    0.690203 0.459045 0.973946 0.181356
H6    H     H_    0.304858 0.605688 0.906010 0.159741
H7    H     H_    0.309506 0.618605 0.760261 0.163704
H8    H     H_    0.382184 0.482080 0.027808 0.174190
H9    H     H_    0.609911 0.314634 0.878943 0.205596
H10   H     H_    0.857519 0.942504 0.629671 0.392579
H11   H     H_    0.448656 0.866521 0.333692 0.379906
H12   H     H_    0.721549 0.887370 0.496679 0.219580
H13   H     H_    0.436789 0.059985 0.079573 0.402621
H14   H     H_    0.721813 0.112728 0.499268 0.185029
H15   H     H_    0.163152 0.112409 0.543219 0.220405
H16   H     H_    0.251718 0.112044 0.439445 0.225238
H17   H     H_    0.163845 0.888105 0.542512 0.248118
H18   H     H_    0.251661 0.887544 0.438648 0.233779
H19   H     H_    0.888577 0.358017 0.412316 0.162887
H20   H     H_    0.141525 0.358113 0.412201 0.162047
I1    I     I_    0.677034 0.257023 0.703927 -0.340158
I2    I     I_    0.468810 0.211901 0.297016 -0.231551
N1    N     N_R   0.857140 0.500860 0.500530 -0.138314
N2    N     N_R   0.142780 0.500820 0.500530 -0.107292
O1    O     O_R   0.385310 0.683210 0.499990 -0.616637
O2    O     O_2   0.858605 0.773789 0.750351 -0.255294
O3    O     O_3   0.900291 0.864174 0.607312 -0.599825
O4    O     O_2   0.699797 0.749328 0.315109 -0.293672
O5    O     O_2   0.616583 0.845194 0.197605 -0.229388
O6    O     O_3   0.438616 0.779675 0.313938 -0.573777
O7    O     O_2   0.652055 0.207977 0.014694 -0.301400
O8    O     O_2   0.663827 0.118919 0.146312 -0.207549
O9    O     O_3   0.424580 0.148548 0.096868 -0.513998
O10   O     O_R   0.614650 0.683240 0.500000 -0.576113
O11   O     O_R   0.371780 0.500000 0.615800 -0.636118
O12   O     O_R   0.601120 0.500040 0.615800 -0.590033
O13   O     O_R   0.385350 0.316760 0.500000 -0.628228
O14   O     O_R   0.614690 0.316790 0.500010 -0.626586
O15   O     O_R   0.398880 0.499960 0.384200 -0.589502
O16   O     O_R   0.628220 0.500000 0.384200 -0.596962
O17   O     O_2   0.678650 0.747673 0.661493 -0.298613
S1    S     S_3+6 0.830123 0.749565 0.665662 0.035820
S2    S     S_3+6 0.588057 0.747324 0.260648 0.045529
S3    S     S_3+6 0.583648 0.204829 0.098372 0.078218
Zn1   Zn    Zn3+2 0.346870 0.499980 0.499990 0.985788
Zn2   Zn    Zn3+2 0.653130 0.500020 0.500010 1.029340

loop_
_geom_bond_atom_site_label_1
_geom_bond_atom_site_label_2
_ccdc_geom_bond_type
C25   C31   S    
O14   Zn2   S    
O17   S1    D    
O13   Zn1   S    
O11   Zn1   S    
C23   S3    S    
C27   I2    S    
C7    C8    A    
O5    S2    D    
O9    S3    S    
C1    C5    S    
C28   C29   A    
C19   H4    S    
C5    C6    A    
O7    S3    D    
C29   H1    S    
C31   H8    S    
C18   C19   S    
C11   H17   S    
H13   O9    S    
C14   H19   S    
C8    C9    A    
O16   Zn2   S    
C20   O15   A    
C2    C27   A    
C23   C27   A    
C18   H3    S    
C14   N1    A    
C8    C16   S    
C6    H12   S    
C21   C22   A    
C24   H9    S    
C1    O10   A    
C22   I1    S    
O12   Zn2   S    
O10   Zn2   S    
C13   C19   S    
C2    C20   S    
C7    H14   S    
O1    Zn1   S    
C16   O14   A    
C24   C25   A    
C4    O12   A    
N1    Zn2   S    
C26   H6    S    
C25   C26   A    
C15   H20   S    
C12   C21   A    
N2    Zn1   S    
C12   C26   A    
C23   C30   A    
C29   C30   A    
C3    C9    A    
C1    O1    A    
C31   C32   D    
O3    S1    S    
C17   C18   S    
O8    S3    D    
C32   H5    S    
C18   H2    S    
C17   N2    A    
C10   H16   S    
C22   C24   A    
O6    S2    S    
O15   Zn1   S    
O2    S1    D    
C9    C10   S    
C19   S1    S    
C16   O13   A    
C3    C5    A    
H10   O3    S    
C4    O11   A    
C6    C7    A    
O4    S2    D    
C13   C17   A    
C15   N2    A    
C12   H7    S    
C11   H18   S    
C30   C32   S    
C4    C21   S    
C3    C11   S    
C10   C11   S    
C10   H15   S    
C14   C15   A    
C20   O16   A    
C2    C28   A    
C28   S2    S    
H11   O6    S    
C13   N1    A    
