data_mof_unit_23221.cif
_audit_creation_date              2012-12-10T18:04:52-0500
_audit_creation_method            fapswitch 2.2
_symmetry_space_group_name_H-M    P1
_symmetry_Int_Tables_number       1
_space_group_crystal_system       triclinic
_cell_length_a                    10.829785
_cell_length_b                    9.606967
_cell_length_c                    17.718197
_cell_angle_alpha                 90.009943
_cell_angle_beta                  92.533509
_cell_angle_gamma                 89.999404
_cell_volume                      1841.62389077

loop_
_atom_site_label
_atom_site_type_symbol
_atom_type_description
_atom_site_fract_x
_atom_site_fract_y
_atom_site_fract_z
_atom_type_partial_charge
C1    C     C_R   0.262319 0.500002 0.499995 0.819596
C2    C     C_R   0.737681 0.500001 0.500006 0.819953
C3    C     C_1   0.502291 0.502044 0.966262 0.113647
C4    C     C_1   0.502246 0.501551 0.033858 0.114522
C5    C     C_R   0.063875 0.373556 0.500102 -0.144598
C6    C     C_R   0.936123 0.626462 0.499912 -0.143716
C7    C     C_R   0.936126 0.373556 0.499879 -0.144475
C8    C     C_R   0.063875 0.626462 0.500112 -0.144075
C9    C     C_R   0.500136 0.500003 0.355650 0.875063
C10   C     C_R   0.499984 0.500064 0.644352 0.874447
C11   C     C_R   0.871660 0.500007 0.499913 -0.036340
C12   C     C_R   0.128340 0.500007 0.500089 -0.036441
C13   C     C_R   0.499466 0.629198 0.846354 0.448723
C14   C     C_R   0.499980 0.373073 0.153166 0.456905
C15   C     C_R   0.503899 0.627354 0.154016 0.443613
C16   C     C_R   0.503984 0.374919 0.846628 0.449798
C17   C     C_R   0.495396 0.627101 0.766916 -0.266388
C18   C     C_R   0.496598 0.374066 0.232420 -0.265822
C19   C     C_R   0.506269 0.626265 0.232995 -0.250976
C20   C     C_R   0.505592 0.374926 0.767769 -0.247677
C21   C     C_R   0.500293 0.500579 0.727427 -0.160508
C22   C     C_R   0.500991 0.500100 0.272606 -0.159989
C23   C     C_R   0.421462 0.074034 0.451785 0.271388
C24   C     C_R   0.578401 0.925943 0.548303 0.272304
C25   C     C_R   0.578538 0.074061 0.548215 0.271802
C26   C     C_R   0.421591 0.925916 0.451703 0.273189
C27   C     C_R   0.501911 0.502136 0.885515 -0.082472
C28   C     C_R   0.501910 0.500631 0.114583 -0.082108
Cu1   Cu    Cu3+1 0.500000 0.640660 0.500000 1.027299
Cu2   Cu    Cu3+1 0.500000 0.359340 0.500000 1.026142
H1    H     H_    0.487427 0.724020 0.736030 0.194041
H2    H     H_    0.489722 0.276701 0.262543 0.201266
H3    H     H_    0.512033 0.724421 0.263012 0.198555
H4    H     H_    0.510541 0.276332 0.738448 0.204970
H5    H     H_    0.111785 0.274609 0.500310 0.188906
H6    H     H_    0.888206 0.725408 0.499727 0.189067
H7    H     H_    0.888215 0.274608 0.499654 0.188838
H8    H     H_    0.111792 0.725408 0.500315 0.189007
N1    N     N_R   0.500000 0.852070 0.500000 -0.243710
N2    N     N_R   0.500000 0.147930 0.500000 -0.244745
O1    O     O_R   0.319640 0.618740 0.499990 -0.557446
O2    O     O_R   0.680360 0.381260 0.500010 -0.557968
O3    O     O_R   0.680360 0.618740 0.500010 -0.557231
O4    O     O_R   0.319640 0.381260 0.499990 -0.557871
O5    O     O_R   0.500000 0.618830 0.391250 -0.553746
O6    O     O_R   0.500000 0.381170 0.608750 -0.555605
O7    O     O_R   0.500000 0.618830 0.608750 -0.553458
O8    O     O_R   0.500000 0.381170 0.391250 -0.555127
O9    O     O_3   0.491527 0.752398 0.887086 -0.583447
C29   C     C_3   0.578519 0.850983 0.863413 -0.229579
H9    H     H_    0.541466 0.908754 0.813030 0.179528
H10   H     H_    0.669667 0.803068 0.852134 0.172266
H11   H     H_    0.594749 0.928049 0.909422 0.208950
O10   O     O_3   0.491605 0.250422 0.111567 -0.571043
C30   C     C_3   0.579933 0.152260 0.138660 -0.260109
H12   H     H_    0.544876 0.093942 0.187430 0.174032
H13   H     H_    0.671259 0.200716 0.153764 0.155127
H14   H     H_    0.594980 0.075593 0.093149 0.213928
O11   O     O_3   0.512063 0.751745 0.115170 -0.578092
C31   C     C_3   0.396733 0.819825 0.115650 -0.257495
H15   H     H_    0.376598 0.856456 0.173391 0.184306
H16   H     H_    0.320588 0.751941 0.092637 0.165606
H17   H     H_    0.400048 0.912770 0.078655 0.204983
O12   O     O_3   0.513075 0.250971 0.886232 -0.566836
C32   C     C_3   0.396499 0.185402 0.882884 -0.275435
H18   H     H_    0.370710 0.150393 0.824444 0.156784
H19   H     H_    0.323520 0.254527 0.904657 0.164787
H20   H     H_    0.401434 0.091681 0.919455 0.208955
Br1   Br    Br    0.307843 0.168449 0.382383 -0.465675
Br2   Br    Br    0.691275 0.831459 0.618168 -0.474368
Br3   Br    Br    0.692175 0.168511 0.617610 -0.463050
Br4   Br    Br    0.308670 0.831392 0.381866 -0.474672

loop_
_geom_bond_atom_site_label_1
_geom_bond_atom_site_label_2
_ccdc_geom_bond_type
C10   O6    A    
C29   H10   S    
C30   H12   S    
C9    O5    A    
Cu1   Cu2   S    
C25   Br3   S    
C26   Br4   S    
C23   Br1   S    
C1    O4    A    
C13   C17   A    
C2    O3    A    
C8    C12   A    
C32   H20   S    
C20   H4    S    
O12   C32   S    
Cu1   N1    S    
C16   C27   A    
C3    C27   S    
C29   H9    S    
C7    H7    S    
Cu2   N2    S    
O11   C31   S    
C25   N2    A    
Cu1   O1    S    
Cu1   O3    S    
C15   C19   A    
Cu2   O4    S    
C15   C28   A    
C24   Br2   S    
C1    C12   S    
C8    H8    S    
C2    O2    A    
C31   H17   S    
C13   O9    S    
C2    C11   S    
C5    H5    S    
Cu2   O8    S    
C16   C20   A    
C14   O10   S    
Cu1   O7    S    
C7    C11   A    
C5    C7    A    
C30   H13   S    
C10   C21   S    
C17   H1    S    
Cu1   O5    S    
C17   C21   A    
C26   N1    A    
C23   C26   A    
C29   H11   S    
C18   H2    S    
C32   H18   S    
C14   C28   A    
C23   N2    A    
C6    C11   A    
C19   C22   A    
C24   C25   A    
C9    O8    A    
C31   H16   S    
C9    C22   S    
C19   H3    S    
C30   H14   S    
C1    O1    A    
C10   O7    A    
O9    C29   S    
C14   C18   A    
O10   C30   S    
Cu2   O2    S    
C6    C8    A    
C16   O12   S    
C4    C28   S    
C20   C21   A    
C18   C22   A    
C15   O11   S    
C24   N1    A    
Cu2   O6    S    
C13   C27   A    
C3    C4    T    
C6    H6    S    
C31   H15   S    
C32   H19   S    
C5    C12   A    
