data_mof_unit_27647.cif
_audit_creation_date              2012-10-26T18:59:37-0400
_audit_creation_method            fapswitch 2.2
_symmetry_space_group_name_H-M    P1
_symmetry_Int_Tables_number       1
_space_group_crystal_system       triclinic
_cell_length_a                    23.541375
_cell_length_b                    10.819157
_cell_length_c                    9.534675
_cell_angle_alpha                 89.757111
_cell_angle_beta                  89.844837
_cell_angle_gamma                 90.216021
_cell_volume                      2428.41296103

loop_
_atom_site_label
_atom_site_type_symbol
_atom_type_description
_atom_site_fract_x
_atom_site_fract_y
_atom_site_fract_z
_atom_type_partial_charge
C1    C     C_R   0.500896 0.262376 0.500261 0.555603
C2    C     C_R   0.120381 0.611428 0.512231 0.430846
C3    C     C_R   0.239354 0.510109 0.629928 -0.051892
C4    C     C_R   0.390936 0.499979 0.500271 0.547024
C5    C     C_R   0.298555 0.509471 0.628782 -0.140726
C6    C     C_R   0.328390 0.500338 0.501266 0.005286
C7    C     C_R   0.297881 0.491646 0.375087 -0.137106
C8    C     C_R   0.238633 0.491853 0.376659 -0.049842
C9    C     C_R   0.209318 0.501196 0.504010 0.239514
C10   C     C_R   0.763187 0.457615 0.387158 -0.009118
C11   C     C_R   0.703928 0.456594 0.381441 0.213925
C12   C     C_R   0.972235 0.271236 0.502426 0.251146
C13   C     C_R   0.671940 0.495627 0.499385 0.011170
C14   C     C_R   0.700917 0.532884 0.621086 -0.165245
C15   C     C_R   0.760052 0.533150 0.625499 -0.053090
C16   C     C_R   0.500714 0.737776 0.499876 0.547853
C17   C     C_R   0.791364 0.495785 0.508503 0.187970
C18   C     C_R   0.500405 0.063336 0.626297 0.035337
C19   C     C_R   0.506068 0.129434 0.501093 0.014374
C20   C     C_R   0.518898 0.065392 0.377218 -0.137572
C21   C     C_R   0.518594 0.936641 0.377050 -0.147123
C22   C     C_R   0.505545 0.871092 0.500573 0.010385
C23   C     C_R   0.031404 0.275329 0.500432 -0.058476
C24   C     C_R   0.500093 0.936044 0.626097 0.021290
C25   C     C_3   0.454154 0.929585 0.734499 -0.265265
C26   C     C_3   0.454719 0.069838 0.734933 -0.265936
C27   C     C_R   0.546125 0.542340 0.073064 0.222622
C28   C     C_R   0.609150 0.497932 0.499543 0.577659
C29   C     C_R   0.457155 0.445937 0.074980 -0.015111
C30   C     C_R   0.457141 0.445960 0.926054 -0.016519
C31   C     C_R   0.546226 0.541973 0.925682 0.181383
C32   C     C_3   0.571625 0.668193 0.918491 -0.275978
C33   C     C_3   0.571039 0.669000 0.077615 -0.267057
C34   C     C_R   0.060820 0.387988 0.504092 -0.012790
C35   C     C_R   0.880633 0.606051 0.517381 0.414859
C36   C     C_R   0.880566 0.385477 0.509182 0.434742
C37   C     C_R   0.940650 0.382721 0.507999 0.037177
C38   C     C_R   0.970393 0.497030 0.512147 -0.075926
C39   C     C_R   0.940100 0.608890 0.517661 -0.011731
C40   C     C_R   0.030535 0.499860 0.510396 -0.076130
C41   C     C_R   0.060293 0.614193 0.514634 0.036532
C42   C     C_R   0.028715 0.725624 0.520872 0.250438
C43   C     C_R   0.969536 0.721537 0.522174 -0.056442
C44   C     C_R   0.120265 0.390949 0.501617 0.409834
Cl1   Cl    Cl    0.941593 0.122096 0.496778 -0.434474
Cl2   Cl    Cl    0.672850 0.400210 0.226151 -0.581820
Cl3   Cl    Cl    0.059406 0.874691 0.526973 -0.444788
Cu1   Cu    Cu3+1 0.500000 0.499980 0.640670 0.953576
Cu2   Cu    Cu3+1 0.500000 0.500020 0.359330 0.986197
H1    H     H_    0.677866 0.562683 0.713143 0.141152
H2    H     H_    0.054454 0.188912 0.495813 0.230266
H3    H     H_    0.422030 0.403878 0.870847 0.116376
H4    H     H_    0.615209 0.667720 0.873758 0.139814
H5    H     H_    0.542628 0.737381 0.871290 0.148850
H6    H     H_    0.614205 0.669864 0.124564 0.173027
H7    H     H_    0.540999 0.737601 0.121005 0.130465
H8    H     H_    0.946496 0.807973 0.526571 0.231793
H9    H     H_    0.216737 0.517240 0.728589 0.133457
H10   H     H_    0.320882 0.516425 0.727616 0.126145
H11   H     H_    0.319710 0.484337 0.275356 0.124386
H12   H     H_    0.781613 0.562189 0.720047 0.160705
H13   H     H_    0.215441 0.484899 0.279075 0.133486
H14   H     H_    0.787665 0.427945 0.297085 0.174180
H15   H     H_    0.526712 0.114155 0.279558 0.155663
H16   H     H_    0.526208 0.889359 0.279437 0.128118
H17   H     H_    0.413989 0.889421 0.693343 0.151098
H18   H     H_    0.469088 0.888849 0.834903 0.135665
H19   H     H_    0.414841 0.111417 0.694326 0.142551
H20   H     H_    0.470409 0.109592 0.835008 0.147506
H21   H     H_    0.422048 0.403818 0.131019 0.117184
N1    N     N_R   0.852306 0.495777 0.512705 -0.409042
N2    N     N_R   0.148495 0.501218 0.505672 -0.410821
N3    N     N_R   0.500360 0.500930 0.147930 -0.233295
N4    N     N_R   0.500360 0.500890 0.852020 -0.237508
O1    O     O_R   0.500000 0.319640 0.618810 -0.495671
O2    O     O_R   0.582120 0.500020 0.618760 -0.506905
O3    O     O_R   0.582120 0.500060 0.381180 -0.442249
O4    O     O_2   0.851181 0.712847 0.520118 -0.450660
O5    O     O_2   0.850156 0.279739 0.507517 -0.386169
O6    O     O_2   0.149830 0.284412 0.495642 -0.456428
O7    O     O_2   0.150932 0.716918 0.515950 -0.397894
O8    O     O_R   0.500010 0.319680 0.381230 -0.497398
O9    O     O_R   0.417880 0.499940 0.618820 -0.514388
O10   O     O_R   0.417880 0.499980 0.381240 -0.512392
O11   O     O_R   0.499990 0.680320 0.618770 -0.504936
O12   O     O_R   0.500000 0.680360 0.381190 -0.512713

loop_
_geom_bond_atom_site_label_1
_geom_bond_atom_site_label_2
_ccdc_geom_bond_type
C33   H6    S    
C41   C42   A    
Cu1   O2    S    
C10   H14   S    
C25   H18   S    
C9    N2    S    
C7    C8    A    
C14   H1    S    
C27   C33   S    
C12   C23   A    
C29   C30   A    
C34   C40   A    
Cu2   O10   S    
C21   C22   A    
C36   C37   A    
C38   C39   A    
C30   N4    A    
C29   N3    A    
C10   C17   A    
C18   C19   A    
C12   C37   A    
C19   C20   A    
C8    C9    A    
C18   C26   S    
C13   C28   S    
C18   C24   A    
C36   N1    A    
C33   H7    S    
C35   N1    A    
C13   C14   A    
C16   O12   A    
Cu1   O1    S    
C2    N2    A    
C32   H5    S    
C2    O7    S    
C1    C19   S    
C5    H10   S    
C27   C31   A    
C1    O1    A    
Cu1   N4    S    
C44   O6    S    
C34   C44   A    
C24   C25   S    
C4    C6    S    
C31   N4    A    
C39   C43   A    
C25   C26   S    
Cu2   O8    S    
C20   H15   S    
C35   C39   A    
C37   C38   A    
C3    C9    A    
C23   H2    S    
C31   C32   S    
C4    O10   A    
C23   C34   A    
C15   H12   S    
C28   O3    A    
Cu1   Cu2   S    
C7    H11   S    
C17   N1    S    
C16   O11   A    
Cu2   N3    S    
C42   C43   A    
C28   O2    A    
C32   H4    S    
C29   H21   S    
C15   C17   A    
C30   H3    S    
C40   C41   A    
C16   C22   S    
C21   H16   S    
Cu1   O11   S    
Cu2   O12   S    
C25   H17   S    
C12   Cl1   S    
C3    C5    A    
C36   O5    S    
C6    C7    A    
C35   O4    S    
Cu1   O9    S    
C26   H19   S    
C32   C33   S    
C1    O8    A    
C38   C40   A    
C11   C13   A    
C5    C6    A    
C4    O9    A    
Cu2   O3    S    
C44   N2    A    
C22   C24   A    
C42   Cl3   S    
C10   C11   A    
C43   H8    S    
C3    H9    S    
C20   C21   A    
C26   H20   S    
C14   C15   A    
C11   Cl2   S    
C2    C41   A    
C27   N3    A    
C8    H13   S    
