data_mof_unit_53036.cif
_audit_creation_date              2012-12-11T14:06:59-0500
_audit_creation_method            fapswitch 2.2
_symmetry_space_group_name_H-M    P1
_symmetry_Int_Tables_number       1
_space_group_crystal_system       triclinic
_cell_length_a                    27.657356
_cell_length_b                    27.636812
_cell_length_c                    27.629934
_cell_angle_alpha                 90.046745
_cell_angle_beta                  90.016737
_cell_angle_gamma                 90.176412
_cell_volume                      21119.1400256

loop_
_atom_site_label
_atom_site_type_symbol
_atom_type_description
_atom_site_fract_x
_atom_site_fract_y
_atom_site_fract_z
_atom_type_partial_charge
C1    C     C_R   0.788084 0.276552 0.270840 -0.234264
C2    C     C_R   0.217397 0.722096 0.725847 -0.262331
C3    C     C_R   0.723494 0.788478 0.271496 -0.234079
C4    C     C_R   0.279259 0.211053 0.726417 -0.284193
C5    C     C_R   0.205278 0.730429 0.270860 -0.257734
C6    C     C_R   0.788515 0.271219 0.723994 -0.233353
C7    C     C_R   0.270928 0.205417 0.270130 -0.262845
C8    C     C_R   0.725379 0.782780 0.721723 -0.252413
C9    C     C_R   0.794624 0.729206 0.729950 -0.263518
C10   C     C_R   0.217467 0.274832 0.278048 -0.251944
C11   C     C_R   0.730330 0.205923 0.726312 -0.255158
C12   C     C_R   0.271656 0.788257 0.275295 -0.241872
C13   C     C_R   0.233685 0.285122 0.712581 -0.266765
C14   C     C_R   0.778996 0.719653 0.276510 -0.261126
C15   C     C_R   0.275695 0.788556 0.728774 -0.242442
C16   C     C_R   0.719385 0.220475 0.275285 -0.260386
C17   C     C_R   0.271544 0.730625 0.794965 -0.256413
C18   C     C_R   0.730194 0.274190 0.205410 -0.253848
C19   C     C_R   0.275965 0.271326 0.211937 -0.258981
C20   C     C_R   0.728451 0.724258 0.787856 -0.257885
C21   C     C_R   0.726039 0.730478 0.206121 -0.254080
C22   C     C_R   0.275311 0.272526 0.789289 -0.221925
C23   C     C_R   0.719697 0.276043 0.779695 -0.260972
C24   C     C_R   0.274950 0.721316 0.217704 -0.262715
C25   C     C_R   0.757636 0.246206 0.298331 0.414322
C26   C     C_R   0.240594 0.761602 0.703310 0.406371
C27   C     C_R   0.753386 0.758005 0.299301 0.414787
C28   C     C_R   0.255659 0.243022 0.694248 0.481785
C29   C     C_R   0.224119 0.774856 0.287559 0.394004
C30   C     C_R   0.777074 0.222528 0.714838 0.390797
C31   C     C_R   0.230953 0.227747 0.292441 0.426457
C32   C     C_R   0.772469 0.769218 0.707528 0.427017
C33   C     C_R   0.297396 0.760965 0.240809 0.405380
C34   C     C_R   0.701212 0.233081 0.758188 0.418326
C35   C     C_R   0.288531 0.774884 0.776093 0.393953
C36   C     C_R   0.701094 0.241911 0.232283 0.419260
C37   C     C_R   0.285942 0.224815 0.775126 0.375246
C38   C     C_R   0.714522 0.777156 0.222763 0.390850
C39   C     C_R   0.288575 0.224071 0.226203 0.400194
C40   C     C_R   0.702820 0.759076 0.760909 0.406697
C41   C     C_R   0.247081 0.301954 0.758798 0.382365
C42   C     C_R   0.757747 0.701308 0.233374 0.417742
C43   C     C_R   0.758136 0.298908 0.754131 0.414350
C44   C     C_R   0.228055 0.706721 0.231970 0.412425
C45   C     C_R   0.776784 0.285929 0.222206 0.390906
C46   C     C_R   0.232062 0.707374 0.772575 0.410536
C47   C     C_R   0.241193 0.297167 0.238759 0.407723
C48   C     C_R   0.775729 0.711577 0.773790 0.399894
C49   C     C_R   0.921408 0.384727 0.558315 -0.126333
C50   C     C_R   0.078691 0.615206 0.441294 -0.132181
C51   C     C_R   0.613803 0.918738 0.557300 -0.128965
C52   C     C_R   0.384864 0.078499 0.440815 -0.124889
C53   C     C_R   0.080162 0.614494 0.558549 -0.130131
C54   C     C_R   0.921798 0.384701 0.439969 -0.127277
C55   C     C_R   0.384063 0.075969 0.561333 -0.130962
C56   C     C_R   0.615286 0.922206 0.439787 -0.129116
C57   C     C_R   0.923036 0.615702 0.440220 -0.123226
C58   C     C_R   0.081969 0.386676 0.557098 -0.132127
C59   C     C_R   0.615838 0.076766 0.439836 -0.128411
C60   C     C_R   0.384812 0.921502 0.559622 -0.127843
C61   C     C_R   0.080746 0.385985 0.442063 -0.137304
C62   C     C_R   0.921702 0.615216 0.559443 -0.126259
C63   C     C_R   0.385163 0.920544 0.441824 -0.131157
C64   C     C_R   0.615458 0.078158 0.558422 -0.129888
C65   C     C_R   0.558297 0.921567 0.384674 -0.125888
C66   C     C_R   0.441292 0.076392 0.616170 -0.123633
C67   C     C_R   0.559554 0.615029 0.921233 -0.125973
C68   C     C_R   0.442085 0.385258 0.079658 -0.127573
C69   C     C_R   0.560501 0.077418 0.615573 -0.128095
C70   C     C_R   0.440409 0.921361 0.384880 -0.126582
C71   C     C_R   0.560552 0.384435 0.077208 -0.127652
C72   C     C_R   0.441569 0.614943 0.920916 -0.132949
C73   C     C_R   0.441691 0.920806 0.614906 -0.129079
C74   C     C_R   0.559541 0.076601 0.384080 -0.124027
C75   C     C_R   0.441691 0.614216 0.080513 -0.127820
C76   C     C_R   0.559493 0.384107 0.923322 -0.125469
C77   C     C_R   0.441576 0.079533 0.385262 -0.132434
C78   C     C_R   0.558499 0.919737 0.614315 -0.129912
C79   C     C_R   0.441191 0.384521 0.922046 -0.129869
C80   C     C_R   0.558655 0.615598 0.077811 -0.130664
C81   C     C_R   0.384673 0.559487 0.921878 -0.122098
C82   C     C_R   0.615430 0.441796 0.078117 -0.127454
C83   C     C_R   0.920521 0.558336 0.614803 -0.129492
C84   C     C_R   0.080316 0.441800 0.385613 -0.123846
C85   C     C_R   0.615618 0.560655 0.077223 -0.126052
C86   C     C_R   0.384425 0.439748 0.922534 -0.124493
C87   C     C_R   0.077636 0.559876 0.384441 -0.123350
C88   C     C_R   0.921960 0.439947 0.615300 -0.129542
C89   C     C_R   0.615810 0.439958 0.923345 -0.127640
C90   C     C_R   0.386249 0.557176 0.081459 -0.131141
C91   C     C_R   0.080949 0.442233 0.614009 -0.131591
C92   C     C_R   0.923190 0.559570 0.384195 -0.126033
C93   C     C_R   0.384966 0.440187 0.078590 -0.128767
C94   C     C_R   0.614700 0.558106 0.920376 -0.132444
C95   C     C_R   0.921371 0.441633 0.384792 -0.128842
C96   C     C_R   0.080853 0.557792 0.614093 -0.131009
C97   C     C_R   0.857078 0.284778 0.329373 -0.113787
C98   C     C_R   0.145774 0.711740 0.671076 -0.131874
C99   C     C_R   0.715220 0.857612 0.329871 -0.113462
C100  C     C_R   0.284254 0.137207 0.673881 -0.145996
C101  C     C_R   0.183112 0.699113 0.352069 -0.127628
C102  C     C_R   0.823505 0.292359 0.643853 -0.147828
C103  C     C_R   0.285733 0.131654 0.322695 -0.131646
C104  C     C_R   0.692944 0.806832 0.641030 -0.144572
C105  C     C_R   0.868564 0.714297 0.677700 -0.133054
C106  C     C_R   0.193253 0.307497 0.358626 -0.143704
C107  C     C_R   0.707556 0.175313 0.645176 -0.155413
C108  C     C_R   0.298773 0.816404 0.356226 -0.136366
C109  C     C_R   0.209445 0.327041 0.635352 -0.145192
C110  C     C_R   0.841606 0.714434 0.344105 -0.154790
C111  C     C_R   0.285709 0.859700 0.672861 -0.137698
C112  C     C_R   0.714700 0.157166 0.342231 -0.150624
C113  C     C_R   0.327771 0.859331 0.285423 -0.136995
C114  C     C_R   0.676223 0.133414 0.715573 -0.109893
C115  C     C_R   0.352537 0.698368 0.816156 -0.128377
C116  C     C_R   0.676447 0.284936 0.132775 -0.109533
C117  C     C_R   0.356563 0.169381 0.711878 -0.137301
C118  C     C_R   0.643526 0.823634 0.292415 -0.148015
C119  C     C_R   0.356888 0.299041 0.184198 -0.149886
C120  C     C_R   0.672483 0.714175 0.858914 -0.128760
C121  C     C_R   0.669590 0.853445 0.711597 -0.141854
C122  C     C_R   0.351308 0.187339 0.305534 -0.118039
C123  C     C_R   0.645105 0.707699 0.175109 -0.154681
C124  C     C_R   0.354838 0.292972 0.824348 -0.147753
C125  C     C_R   0.651604 0.157232 0.282579 -0.155822
C126  C     C_R   0.356434 0.816333 0.700865 -0.135824
C127  C     C_R   0.652058 0.282991 0.842864 -0.154745
C128  C     C_R   0.329856 0.710930 0.146364 -0.132162
C129  C     C_R   0.283553 0.327662 0.861525 -0.128816
C130  C     C_R   0.715579 0.676543 0.133479 -0.110680
C131  C     C_R   0.857587 0.329789 0.715524 -0.113478
C132  C     C_R   0.132373 0.676262 0.284256 -0.120873
C133  C     C_R   0.707235 0.355322 0.175275 -0.155492
C134  C     C_R   0.285083 0.676348 0.867627 -0.122289
C135  C     C_R   0.146889 0.330811 0.287933 -0.141391
C136  C     C_R   0.812765 0.648739 0.694598 -0.118545
C137  C     C_R   0.700708 0.643325 0.815708 -0.149700
C138  C     C_R   0.286175 0.326889 0.140626 -0.128294
C139  C     C_R   0.193690 0.641592 0.692503 -0.145748
C140  C     C_R   0.823079 0.356591 0.292576 -0.148312
C141  C     C_R   0.308235 0.640785 0.194518 -0.147053
C142  C     C_R   0.714688 0.343301 0.842731 -0.153975
C143  C     C_R   0.842186 0.652187 0.283477 -0.154948
C144  C     C_R   0.155369 0.328754 0.704327 -0.115516
C145  C     C_R   0.883587 0.313769 0.361306 -0.211154
C146  C     C_R   0.118046 0.683123 0.639943 -0.216633
C147  C     C_R   0.686174 0.884208 0.361507 -0.208944
C148  C     C_R   0.312896 0.109919 0.642349 -0.215501
C149  C     C_R   0.156997 0.668450 0.382154 -0.214400
C150  C     C_R   0.850463 0.323392 0.614862 -0.220616
C151  C     C_R   0.315786 0.106599 0.354769 -0.202360
C152  C     C_R   0.663230 0.835328 0.612220 -0.223560
C153  C     C_R   0.893679 0.684211 0.645670 -0.203171
C154  C     C_R   0.164580 0.337116 0.387375 -0.223320
C155  C     C_R   0.675714 0.149760 0.615806 -0.213418
C156  C     C_R   0.329476 0.843566 0.385375 -0.220295
C157  C     C_R   0.176511 0.353670 0.608705 -0.211299
C158  C     C_R   0.870817 0.686178 0.373771 -0.217715
C159  C     C_R   0.314726 0.886096 0.640884 -0.220362
C160  C     C_R   0.686538 0.128038 0.372239 -0.220228
C161  C     C_R   0.359639 0.885722 0.314611 -0.222962
C162  C     C_R   0.643328 0.108595 0.686138 -0.225535
C163  C     C_R   0.382519 0.667495 0.841990 -0.214537
C164  C     C_R   0.643575 0.314256 0.108048 -0.224241
C165  C     C_R   0.384916 0.141925 0.681038 -0.222478
C166  C     C_R   0.614632 0.850711 0.323324 -0.221571
C167  C     C_R   0.385906 0.329855 0.157033 -0.215829
C168  C     C_R   0.640532 0.685122 0.885313 -0.223633
C169  C     C_R   0.638661 0.881066 0.682914 -0.212192
C170  C     C_R   0.381637 0.161399 0.336037 -0.214899
C171  C     C_R   0.615837 0.675882 0.149398 -0.213194
C172  C     C_R   0.384009 0.323872 0.851171 -0.217984
C173  C     C_R   0.623393 0.128020 0.312232 -0.219610
C174  C     C_R   0.385420 0.843521 0.670103 -0.219486
C175  C     C_R   0.623717 0.312441 0.872053 -0.222029
C176  C     C_R   0.360844 0.682338 0.118712 -0.217218
C177  C     C_R   0.312927 0.359584 0.887735 -0.226184
C178  C     C_R   0.686237 0.643655 0.108505 -0.225596
C179  C     C_R   0.884048 0.361570 0.686378 -0.212092
C180  C     C_R   0.107170 0.644100 0.314227 -0.207249
C181  C     C_R   0.675423 0.384593 0.149808 -0.213863
C182  C     C_R   0.314913 0.643978 0.892536 -0.210985
C183  C     C_R   0.119105 0.361691 0.316565 -0.210795
C184  C     C_R   0.838760 0.618374 0.664145 -0.214256
C185  C     C_R   0.669937 0.614296 0.842909 -0.217236
C186  C     C_R   0.315204 0.358862 0.114246 -0.224719
C187  C     C_R   0.165050 0.612816 0.662727 -0.220814
C188  C     C_R   0.850068 0.385426 0.323758 -0.222095
C189  C     C_R   0.337909 0.612011 0.165947 -0.221595
C190  C     C_R   0.686425 0.373071 0.871854 -0.219238
C191  C     C_R   0.871448 0.623852 0.312838 -0.222440
C192  C     C_R   0.123099 0.357151 0.678090 -0.221795
C193  C     C_R   0.879395 0.364313 0.359311 0.138628
C194  C     C_R   0.127651 0.633527 0.635710 0.151132
C195  C     C_R   0.635648 0.880049 0.359087 0.138979
C196  C     C_R   0.363465 0.113951 0.644427 0.137543
C197  C     C_R   0.119814 0.639783 0.363228 0.145044
C198  C     C_R   0.879780 0.359210 0.635817 0.139433
C199  C     C_R   0.363784 0.121675 0.361736 0.139686
C200  C     C_R   0.635378 0.872052 0.633080 0.149115
C201  C     C_R   0.878564 0.636208 0.638584 0.141215
C202  C     C_R   0.127871 0.364889 0.366440 0.149126
C203  C     C_R   0.642171 0.117637 0.636210 0.150241
C204  C     C_R   0.360958 0.877490 0.364706 0.150685
C205  C     C_R   0.133584 0.369091 0.630060 0.148942
C206  C     C_R   0.883265 0.639169 0.359691 0.165255
C207  C     C_R   0.364701 0.877686 0.639078 0.150965
C208  C     C_R   0.639192 0.116014 0.358842 0.165315
C209  C     C_R   0.363689 0.639175 0.879432 0.145670
C210  C     C_R   0.642159 0.364116 0.117417 0.149366
C211  C     C_R   0.365185 0.360816 0.122779 0.153429
C212  C     C_R   0.638822 0.635050 0.877012 0.152337
C213  C     C_R   0.636314 0.642424 0.117329 0.148257
C214  C     C_R   0.363312 0.358586 0.881685 0.154103
C215  C     C_R   0.639231 0.359223 0.883976 0.165825
C216  C     C_R   0.364930 0.632749 0.128453 0.150873
C217  C     C_R   0.825261 0.305992 0.295929 0.248678
C218  C     C_R   0.184252 0.691279 0.697101 0.210694
C219  C     C_R   0.694086 0.825742 0.296264 0.249514
C220  C     C_R   0.306171 0.169419 0.706707 0.225458
C221  C     C_R   0.171579 0.703086 0.302632 0.243087
C222  C     C_R   0.825723 0.296115 0.694460 0.250080
C223  C     C_R   0.302879 0.173098 0.298699 0.259698
C224  C     C_R   0.696556 0.815702 0.690950 0.214796
C225  C     C_R   0.827023 0.697185 0.701519 0.260120
C226  C     C_R   0.184561 0.303852 0.308685 0.213394
C227  C     C_R   0.707075 0.168618 0.695513 0.229469
C228  C     C_R   0.297972 0.823554 0.305920 0.235671
C229  C     C_R   0.199070 0.313546 0.683262 0.242472
C230  C     C_R   0.821150 0.695116 0.301364 0.188596
C231  C     C_R   0.306247 0.823722 0.702241 0.232643
C232  C     C_R   0.694951 0.178003 0.299949 0.188353
C233  C     C_R   0.303333 0.702918 0.828243 0.245643
C234  C     C_R   0.707017 0.305020 0.168227 0.230206
C235  C     C_R   0.306677 0.297611 0.176719 0.223956
C236  C     C_R   0.701987 0.693603 0.823018 0.223677
C237  C     C_R   0.695424 0.707294 0.168633 0.229563
C238  C     C_R   0.304296 0.295539 0.828030 0.241305
C239  C     C_R   0.695197 0.300746 0.822019 0.188416
C240  C     C_R   0.303789 0.690462 0.184894 0.211728
C241  C     C_R   0.904589 0.394149 0.604227 0.044112
C242  C     C_R   0.095160 0.605450 0.395304 0.039898
C243  C     C_R   0.602929 0.900354 0.602353 0.040431
C244  C     C_R   0.395884 0.096519 0.395523 0.039103
C245  C     C_R   0.099302 0.602793 0.603173 0.039058
C246  C     C_R   0.904397 0.395778 0.394250 0.044803
C247  C     C_R   0.394842 0.091540 0.607911 0.040975
C248  C     C_R   0.604169 0.904864 0.394015 0.045038
C249  C     C_R   0.907163 0.605904 0.393733 0.037254
C250  C     C_R   0.100804 0.398416 0.601618 0.038783
C251  C     C_R   0.605995 0.092471 0.393308 0.037762
C252  C     C_R   0.396012 0.903614 0.604977 0.040615
C253  C     C_R   0.099375 0.397161 0.397195 0.040595
C254  C     C_R   0.903671 0.604119 0.604713 0.038498
C255  C     C_R   0.395073 0.903351 0.396132 0.040762
C256  C     C_R   0.606406 0.094380 0.604524 0.040407
C257  C     C_R   0.604773 0.603725 0.903096 0.039419
C258  C     C_R   0.396420 0.395009 0.096804 0.039773
C259  C     C_R   0.606412 0.395650 0.094217 0.040757
C260  C     C_R   0.395679 0.604960 0.904172 0.039414
C261  C     C_R   0.397284 0.602140 0.100015 0.039475
C262  C     C_R   0.605950 0.393453 0.907538 0.037715
C263  C     C_R   0.395130 0.393779 0.905751 0.040067
C264  C     C_R   0.604688 0.606610 0.094011 0.040717
N1    N     N_R   0.946030 0.423710 0.543310 -0.039728
N2    N     N_R   0.053970 0.576290 0.456690 -0.039215
N3    N     N_R   0.576290 0.946030 0.543310 -0.039579
N4    N     N_R   0.423710 0.053970 0.456690 -0.040317
N5    N     N_R   0.053970 0.576290 0.543310 -0.039559
N6    N     N_R   0.946030 0.423710 0.456690 -0.039707
N7    N     N_R   0.423710 0.053970 0.543310 -0.039243
N8    N     N_R   0.576290 0.946030 0.456690 -0.039448
N9    N     N_R   0.946030 0.576290 0.456690 -0.039466
N10   N     N_R   0.053970 0.423710 0.543310 -0.039559
N11   N     N_R   0.576290 0.053970 0.456690 -0.039232
N12   N     N_R   0.423710 0.946030 0.543310 -0.039247
N13   N     N_R   0.053970 0.423710 0.456690 -0.039147
N14   N     N_R   0.946030 0.576290 0.543310 -0.040326
N15   N     N_R   0.423710 0.946030 0.456690 -0.039552
N16   N     N_R   0.576290 0.053970 0.543310 -0.039446
N17   N     N_R   0.543310 0.946030 0.423710 -0.039673
N18   N     N_R   0.456690 0.053970 0.576290 -0.039598
N19   N     N_R   0.543310 0.576290 0.946030 -0.039410
N20   N     N_R   0.456690 0.423710 0.053970 -0.039455
N21   N     N_R   0.543310 0.053970 0.576290 -0.039823
N22   N     N_R   0.456690 0.946030 0.423710 -0.039657
N23   N     N_R   0.543310 0.423710 0.053970 -0.039388
N24   N     N_R   0.456690 0.576290 0.946030 -0.039619
N25   N     N_R   0.456690 0.946030 0.576290 -0.039219
N26   N     N_R   0.543310 0.053970 0.423710 -0.039544
N27   N     N_R   0.456690 0.576290 0.053970 -0.039612
N28   N     N_R   0.543310 0.423710 0.946030 -0.039371
N29   N     N_R   0.456690 0.053970 0.423710 -0.040015
N30   N     N_R   0.543310 0.946030 0.576290 -0.039698
N31   N     N_R   0.456690 0.423710 0.946030 -0.039499
N32   N     N_R   0.543310 0.576290 0.053970 -0.039058
N33   N     N_R   0.423710 0.543310 0.946030 -0.040530
N34   N     N_R   0.576290 0.456690 0.053970 -0.039375
N35   N     N_R   0.946030 0.543310 0.576290 -0.039823
N36   N     N_R   0.053970 0.456690 0.423710 -0.040060
N37   N     N_R   0.576290 0.543310 0.053970 -0.039400
N38   N     N_R   0.423710 0.456690 0.946030 -0.039971
N39   N     N_R   0.053970 0.543310 0.423710 -0.040191
N40   N     N_R   0.946030 0.456690 0.576290 -0.039730
N41   N     N_R   0.576290 0.456690 0.946030 -0.039038
N42   N     N_R   0.423710 0.543310 0.053970 -0.039702
N43   N     N_R   0.053970 0.456690 0.576290 -0.039422
N44   N     N_R   0.946030 0.543310 0.423710 -0.039540
N45   N     N_R   0.423710 0.456690 0.053970 -0.039362
N46   N     N_R   0.576290 0.543310 0.946030 -0.039345
N47   N     N_R   0.946030 0.456690 0.423710 -0.039863
N48   N     N_R   0.053970 0.543310 0.576290 -0.039308
Ni1   Ni    Ni4+2 1.000000 0.424390 0.500000 0.212720
Ni2   Ni    Ni4+2 1.000000 0.575610 0.500000 0.208534
Ni3   Ni    Ni4+2 0.575610 0.000000 0.500000 0.211244
Ni4   Ni    Ni4+2 0.424390 0.000000 0.500000 0.208600
Ni5   Ni    Ni4+2 0.500000 0.000000 0.424390 0.210580
Ni6   Ni    Ni4+2 0.500000 0.000000 0.575610 0.209963
Ni7   Ni    Ni4+2 0.500000 0.575610 0.000000 0.209500
Ni8   Ni    Ni4+2 0.500000 0.424390 0.000000 0.210692
Ni9   Ni    Ni4+2 0.424390 0.500000 0.000000 0.208078
Ni10  Ni    Ni4+2 0.575610 0.500000 0.000000 0.210646
Ni11  Ni    Ni4+2 1.000000 0.500000 0.575610 0.210718
Ni12  Ni    Ni4+2 1.000000 0.500000 0.424390 0.208917
O1    O     O_3   0.763410 0.246069 0.348294 -0.671020
C265  C     C_3   0.724168 0.269734 0.371331 0.213681
H1    H     H_    0.723199 0.257004 0.409444 0.128787
H2    H     H_    0.688364 0.260234 0.355482 0.082530
C266  C     C_3   0.731053 0.324785 0.371378 -0.316706
H3    H     H_    0.767061 0.333944 0.386790 0.225508
H4    H     H_    0.729168 0.338566 0.333678 0.185162
C267  C     C_3   0.691940 0.349765 0.401126 -1.012506
H5    H     H_    0.655624 0.341569 0.385941 0.265226
H6    H     H_    0.697741 0.389526 0.400158 0.275660
H7    H     H_    0.693428 0.337527 0.439381 0.267895
O2    O     O_3   0.229901 0.773148 0.655687 -0.661206
C268  C     C_3   0.260444 0.746625 0.624431 0.218404
H8    H     H_    0.251277 0.707419 0.625725 0.104291
H9    H     H_    0.299258 0.751363 0.634241 0.093950
C269  C     C_3   0.253172 0.764815 0.572757 -0.251829
H10   H     H_    0.214742 0.759604 0.562094 0.201406
H11   H     H_    0.261715 0.804122 0.571179 0.203357
C270  C     C_3   0.285524 0.737968 0.537044 -1.044177
H12   H     H_    0.324194 0.743521 0.546486 0.272551
H13   H     H_    0.279262 0.752033 0.499934 0.270532
H14   H     H_    0.277106 0.698642 0.537452 0.270954
O3    O     O_3   0.753055 0.763788 0.349260 -0.671160
C271  C     C_3   0.728880 0.724541 0.371996 0.213900
H15   H     H_    0.740961 0.723741 0.410333 0.131118
H16   H     H_    0.738535 0.688691 0.356426 0.082951
C272  C     C_3   0.673891 0.731260 0.371057 -0.318522
H17   H     H_    0.664596 0.767273 0.386308 0.225579
H18   H     H_    0.660735 0.729309 0.333121 0.185101
C273  C     C_3   0.648313 0.692056 0.400348 -1.010192
H19   H     H_    0.656634 0.655732 0.385300 0.265118
H20   H     H_    0.608622 0.697748 0.398677 0.275962
H21   H     H_    0.659913 0.693592 0.438814 0.268287
O4    O     O_3   0.255198 0.234740 0.644676 -0.658367
C274  C     C_3   0.301271 0.242641 0.622243 0.201373
H22   H     H_    0.293960 0.254423 0.584527 0.123078
H23   H     H_    0.320718 0.207952 0.618436 0.136194
C275  C     C_3   0.335429 0.280739 0.645722 -0.416357
H24   H     H_    0.316993 0.316049 0.649937 0.192901
H25   H     H_    0.347238 0.268660 0.682123 0.197518
C276  C     C_3   0.380725 0.288157 0.615082 -0.956633
H26   H     H_    0.400715 0.253538 0.611358 0.267451
H27   H     H_    0.404778 0.315092 0.632826 0.268548
H28   H     H_    0.370881 0.301782 0.578588 0.262122
O5    O     O_3   0.199481 0.801124 0.322417 -0.661829
C277  C     C_3   0.161124 0.826754 0.300464 0.231606
H29   H     H_    0.133814 0.834207 0.328963 0.124757
H30   H     H_    0.142119 0.805451 0.271820 0.073086
C278  C     C_3   0.179240 0.875152 0.280160 -0.310970
H31   H     H_    0.197881 0.895812 0.309269 0.214284
H32   H     H_    0.205564 0.868465 0.250544 0.190183
C279  C     C_3   0.137622 0.905333 0.260335 -1.022548
H33   H     H_    0.118945 0.885577 0.230669 0.266751
H34   H     H_    0.151922 0.939976 0.245790 0.273203
H35   H     H_    0.111258 0.913532 0.289511 0.267662
O6    O     O_3   0.807101 0.195249 0.685471 -0.661637
C280  C     C_3   0.828175 0.157659 0.712933 0.234269
H36   H     H_    0.838933 0.128623 0.687316 0.125357
H37   H     H_    0.802444 0.140701 0.739063 0.077876
C281  C     C_3   0.873533 0.175963 0.739206 -0.315622
H38   H     H_    0.898839 0.192222 0.712485 0.214503
H39   H     H_    0.863384 0.204326 0.765832 0.190172
C282  C     C_3   0.899051 0.134985 0.765815 -1.013644
H40   H     H_    0.874561 0.118727 0.793246 0.266780
H41   H     H_    0.931594 0.149390 0.784523 0.272853
H42   H     H_    0.910569 0.106571 0.739839 0.267815
O7    O     O_3   0.209536 0.206859 0.332657 -0.653919
C283  C     C_3   0.171550 0.175665 0.317727 0.199940
H43   H     H_    0.168776 0.146337 0.345076 0.127943
H44   H     H_    0.178588 0.157567 0.282250 0.062197
C284  C     C_3   0.123115 0.202409 0.315995 -0.288329
H45   H     H_    0.117911 0.223166 0.350067 0.219659
H46   H     H_    0.123072 0.227987 0.285056 0.189742
C285  C     C_3   0.080946 0.167265 0.309539 -1.022609
H47   H     H_    0.085256 0.146327 0.275482 0.267794
H48   H     H_    0.046554 0.187807 0.307673 0.273332
H49   H     H_    0.078988 0.141864 0.340619 0.267886
O8    O     O_3   0.793515 0.790550 0.667349 -0.654025
C286  C     C_3   0.824648 0.828583 0.682316 0.198892
H50   H     H_    0.854102 0.831230 0.655100 0.126799
H51   H     H_    0.842536 0.821649 0.717901 0.061734
C287  C     C_3   0.797967 0.877089 0.683769 -0.285703
H52   H     H_    0.777374 0.882174 0.649601 0.219352
H53   H     H_    0.772278 0.877286 0.714612 0.189031
C288  C     C_3   0.833098 0.919286 0.690197 -1.028160
H54   H     H_    0.853875 0.915097 0.724346 0.267492
H55   H     H_    0.812598 0.953732 0.691862 0.273340
H56   H     H_    0.858609 0.921093 0.659203 0.267858
O9    O     O_3   0.345165 0.772355 0.230613 -0.660787
C289  C     C_3   0.375856 0.745927 0.261777 0.220057
H57   H     H_    0.374454 0.706681 0.252851 0.104363
H58   H     H_    0.365592 0.750867 0.300465 0.093757
C290  C     C_3   0.427671 0.763997 0.255059 -0.254940
H59   H     H_    0.438780 0.758590 0.216771 0.201408
H60   H     H_    0.429362 0.803340 0.263361 0.203732
C291  C     C_3   0.462788 0.737244 0.288099 -1.040679
H61   H     H_    0.452903 0.742995 0.326641 0.272958
H62   H     H_    0.500018 0.751215 0.282222 0.270052
H63   H     H_    0.462264 0.697879 0.279944 0.271102
O10   O     O_3   0.652826 0.220818 0.761927 -0.674385
C292  C     C_3   0.625718 0.249467 0.729385 0.200206
H64   H     H_    0.640775 0.247597 0.691987 0.100975
H65   H     H_    0.625457 0.287897 0.741480 0.098726
C293  C     C_3   0.573747 0.230631 0.728228 -0.257611
H66   H     H_    0.573663 0.192048 0.716800 0.207110
H67   H     H_    0.557924 0.232970 0.765136 0.194480
C294  C     C_3   0.542584 0.259694 0.693225 -1.033576
H68   H     H_    0.541561 0.298319 0.704329 0.268534
H69   H     H_    0.505106 0.245145 0.693375 0.271368
H70   H     H_    0.557216 0.256981 0.655883 0.272712
O11   O     O_3   0.324074 0.800652 0.800440 -0.661753
C295  C     C_3   0.302829 0.827656 0.838330 0.229731
H71   H     H_    0.331233 0.834097 0.866052 0.124910
H72   H     H_    0.272937 0.807911 0.857056 0.071143
C296  C     C_3   0.285174 0.876729 0.819550 -0.309391
H73   H     H_    0.315361 0.895618 0.800800 0.216666
H74   H     H_    0.255381 0.871103 0.793132 0.189781
C297  C     C_3   0.266833 0.908552 0.860742 -1.015972
H75   H     H_    0.236129 0.890623 0.879522 0.265323
H76   H     H_    0.254215 0.943665 0.845946 0.274927
H77   H     H_    0.296272 0.915703 0.887178 0.267732
O12   O     O_3   0.652880 0.237622 0.219660 -0.674375
C298  C     C_3   0.625251 0.269967 0.248055 0.195606
H78   H     H_    0.640018 0.307518 0.246189 0.102413
H79   H     H_    0.624734 0.258052 0.286530 0.098897
C299  C     C_3   0.573458 0.270447 0.228862 -0.252511
H80   H     H_    0.573659 0.281568 0.190201 0.207000
H81   H     H_    0.557862 0.233408 0.231331 0.195184
C300  C     C_3   0.541800 0.305355 0.257495 -1.036564
H82   H     H_    0.540493 0.294555 0.296193 0.268702
H83   H     H_    0.504467 0.304702 0.242689 0.269154
H84   H     H_    0.556209 0.342811 0.254626 0.273068
O13   O     O_3   0.310983 0.195043 0.806542 -0.657128
C301  C     C_3   0.278494 0.160394 0.825340 0.225323
H85   H     H_    0.261691 0.138644 0.795732 0.094126
H86   H     H_    0.249547 0.178568 0.846691 0.091538
C302  C     C_3   0.306189 0.126142 0.858603 -0.256922
H87   H     H_    0.335683 0.108469 0.837813 0.204617
H88   H     H_    0.322678 0.147169 0.888730 0.202330
C303  C     C_3   0.273060 0.087201 0.879588 -1.037616
H89   H     H_    0.243650 0.104026 0.901122 0.268789
H90   H     H_    0.294262 0.063051 0.903617 0.275729
H91   H     H_    0.256980 0.065059 0.850079 0.269280
O14   O     O_3   0.685352 0.807231 0.195376 -0.661651
C304  C     C_3   0.713235 0.829160 0.158492 0.232076
H92   H     H_    0.688051 0.839988 0.129133 0.124103
H93   H     H_    0.739881 0.803948 0.141713 0.077394
C305  C     C_3   0.738707 0.874637 0.177735 -0.312894
H94   H     H_    0.711491 0.899374 0.193880 0.214660
H95   H     H_    0.764965 0.864437 0.206388 0.190102
C306  C     C_3   0.765667 0.901109 0.137476 -1.015917
H96   H     H_    0.793575 0.877195 0.121345 0.266428
H97   H     H_    0.783791 0.933703 0.152562 0.274015
H98   H     H_    0.740049 0.912713 0.108803 0.266825
O15   O     O_3   0.324360 0.199080 0.201698 -0.660264
C307  C     C_3   0.303873 0.175454 0.161130 0.236703
H99   H     H_    0.333228 0.170073 0.134242 0.125250
H100  H     H_    0.275564 0.197457 0.142625 0.075895
C308  C     C_3   0.283642 0.125772 0.175511 -0.317900
H101  H     H_    0.312291 0.104561 0.194007 0.214792
H102  H     H_    0.252950 0.130410 0.201017 0.186787
C309  C     C_3   0.265887 0.097714 0.131349 -1.016023
H103  H     H_    0.236717 0.118033 0.112722 0.267054
H104  H     H_    0.251302 0.062094 0.142965 0.272663
H105  H     H_    0.296141 0.091493 0.105675 0.267964
O16   O     O_3   0.655047 0.769061 0.772197 -0.660505
C310  C     C_3   0.624381 0.738153 0.745203 0.217654
H106  H     H_    0.634137 0.699410 0.750375 0.095391
H107  H     H_    0.626443 0.746955 0.705962 0.102458
C311  C     C_3   0.572401 0.745388 0.762342 -0.250508
H108  H     H_    0.570017 0.737071 0.801638 0.203314
H109  H     H_    0.561877 0.783785 0.756830 0.201573
C312  C     C_3   0.537270 0.712751 0.734841 -1.044359
H110  H     H_    0.538482 0.720957 0.695507 0.270931
H111  H     H_    0.499918 0.718986 0.748153 0.270942
H112  H     H_    0.546576 0.674113 0.740648 0.272316
O17   O     O_3   0.234528 0.348261 0.773321 -0.658657
C313  C     C_3   0.267441 0.381880 0.753069 0.214512
H113  H     H_    0.262736 0.383968 0.713127 0.095924
H114  H     H_    0.305595 0.371801 0.761214 0.097345
C314  C     C_3   0.257647 0.431762 0.774733 -0.256852
H115  H     H_    0.220031 0.442811 0.765983 0.201198
H116  H     H_    0.261393 0.429986 0.814753 0.202295
C315  C     C_3   0.292754 0.469642 0.755094 -1.027726
H117  H     H_    0.330543 0.459830 0.764446 0.272107
H118  H     H_    0.284498 0.505418 0.771391 0.277107
H119  H     H_    0.289226 0.472522 0.715149 0.267417
O18   O     O_3   0.761586 0.652970 0.220984 -0.674463
C316  C     C_3   0.728974 0.625579 0.249429 0.199654
H120  H     H_    0.691596 0.640481 0.247392 0.101604
H121  H     H_    0.740844 0.625214 0.287930 0.099137
C317  C     C_3   0.728031 0.573651 0.230483 -0.256168
H122  H     H_    0.716815 0.573673 0.191838 0.207152
H123  H     H_    0.764924 0.557987 0.232969 0.194844
C318  C     C_3   0.692980 0.542185 0.259331 -1.034057
H124  H     H_    0.703884 0.541048 0.298012 0.269139
H125  H     H_    0.693284 0.504749 0.244695 0.269261
H126  H     H_    0.655662 0.556667 0.256475 0.272922
O19   O     O_3   0.764117 0.348849 0.754117 -0.671318
C319  C     C_3   0.724983 0.371822 0.730218 0.213568
H127  H     H_    0.724293 0.410042 0.742670 0.128791
H128  H     H_    0.689100 0.356204 0.739800 0.082779
C320  C     C_3   0.731732 0.371360 0.675159 -0.316687
H129  H     H_    0.767776 0.386648 0.665918 0.225461
H130  H     H_    0.729664 0.333550 0.661647 0.184464
C321  C     C_3   0.692671 0.400914 0.649921 -1.015361
H131  H     H_    0.656319 0.385829 0.658180 0.265273
H132  H     H_    0.698381 0.399603 0.610164 0.275554
H133  H     H_    0.694320 0.439262 0.661900 0.267942
O20   O     O_3   0.207687 0.665026 0.213011 -0.654599
C322  C     C_3   0.187403 0.675903 0.167379 0.191815
H134  H     H_    0.215709 0.688203 0.141467 0.105216
H135  H     H_    0.159446 0.704695 0.170813 0.078666
C323  C     C_3   0.163649 0.630262 0.147027 -0.248315
H136  H     H_    0.191249 0.601290 0.143630 0.204101
H137  H     H_    0.135046 0.617596 0.172326 0.194922
C324  C     C_3   0.141171 0.639584 0.097476 -1.046022
H138  H     H_    0.112909 0.667935 0.100163 0.268559
H139  H     H_    0.124218 0.605775 0.083771 0.273691
H140  H     H_    0.169349 0.651378 0.071337 0.269328
O21   O     O_3   0.806797 0.315606 0.195124 -0.661949
C325  C     C_3   0.829268 0.288049 0.158378 0.232877
H141  H     H_    0.840040 0.313416 0.129108 0.124483
H142  H     H_    0.804470 0.260962 0.141415 0.078247
C326  C     C_3   0.874834 0.263323 0.177918 -0.314729
H143  H     H_    0.899116 0.290964 0.194311 0.213881
H144  H     H_    0.864703 0.236837 0.206434 0.190702
C327  C     C_3   0.901918 0.236844 0.137814 -1.014416
H145  H     H_    0.878466 0.208526 0.121436 0.267238
H146  H     H_    0.934557 0.219251 0.153120 0.273656
H147  H     H_    0.913471 0.262709 0.109288 0.266610
O22   O     O_3   0.212781 0.665939 0.793090 -0.654801
C328  C     C_3   0.167593 0.677408 0.813913 0.192433
H148  H     H_    0.141520 0.689788 0.785843 0.105716
H149  H     H_    0.171730 0.706340 0.841784 0.078560
C329  C     C_3   0.146986 0.632139 0.838060 -0.252223
H150  H     H_    0.142756 0.603064 0.810532 0.204846
H151  H     H_    0.172513 0.619319 0.866334 0.195233
C330  C     C_3   0.097977 0.642179 0.861283 -1.037404
H152  H     H_    0.101518 0.670606 0.889522 0.268139
H153  H     H_    0.084047 0.608617 0.878467 0.273394
H154  H     H_    0.071612 0.654191 0.833466 0.270481
O23   O     O_3   0.231326 0.344942 0.227255 -0.660355
C331  C     C_3   0.262404 0.375718 0.253938 0.217867
H155  H     H_    0.300983 0.364762 0.250249 0.094229
H156  H     H_    0.252442 0.375277 0.292947 0.103573
C332  C     C_3   0.257144 0.427268 0.234773 -0.254253
H157  H     H_    0.266182 0.427914 0.195569 0.203626
H158  H     H_    0.219052 0.439212 0.239210 0.202453
C333  C     C_3   0.290426 0.462398 0.261498 -1.034307
H159  H     H_    0.281594 0.462905 0.300713 0.271568
H160  H     H_    0.285600 0.499433 0.246728 0.272133
H161  H     H_    0.328802 0.451676 0.256650 0.270512
O24   O     O_3   0.800486 0.675709 0.798391 -0.660353
C334  C     C_3   0.824719 0.696323 0.838527 0.236246
H162  H     H_    0.829574 0.667250 0.865825 0.124798
H163  H     H_    0.803459 0.725425 0.856721 0.074121
C335  C     C_3   0.874723 0.715226 0.823581 -0.314784
H164  H     H_    0.895086 0.685877 0.805183 0.215512
H165  H     H_    0.870633 0.745803 0.797835 0.185888
C336  C     C_3   0.903520 0.732726 0.867353 -1.019953
H166  H     H_    0.884065 0.762565 0.885888 0.266300
H167  H     H_    0.939358 0.746355 0.855318 0.272675
H168  H     H_    0.909222 0.702542 0.893239 0.268613
H169  H     H_    0.921763 0.349896 0.540541 0.092229
H170  H     H_    0.078689 0.650233 0.458678 0.093880
H171  H     H_    0.648529 0.917304 0.539484 0.094986
H172  H     H_    0.349814 0.078671 0.458111 0.093437
H173  H     H_    0.081185 0.649571 0.541373 0.089729
H174  H     H_    0.921649 0.349475 0.456869 0.088478
H175  H     H_    0.348752 0.075398 0.544580 0.088887
H176  H     H_    0.650554 0.922399 0.456576 0.088056
H177  H     H_    0.923697 0.650520 0.457939 0.085253
H178  H     H_    0.084405 0.351950 0.539394 0.098198
H179  H     H_    0.650779 0.075979 0.457211 0.084641
H180  H     H_    0.349595 0.921283 0.542708 0.087779
H181  H     H_    0.081459 0.350809 0.458999 0.095293
H182  H     H_    0.921747 0.650421 0.542455 0.091750
H183  H     H_    0.350309 0.920220 0.459467 0.093126
H184  H     H_    0.650267 0.077583 0.540692 0.092196
H185  H     H_    0.540551 0.921984 0.349844 0.091115
H186  H     H_    0.459363 0.074941 0.650815 0.089677
H187  H     H_    0.542657 0.650215 0.920901 0.088367
H188  H     H_    0.459981 0.350563 0.080242 0.093578
H189  H     H_    0.543848 0.077089 0.650942 0.086845
H190  H     H_    0.457339 0.921115 0.349656 0.088166
H191  H     H_    0.544002 0.348974 0.076670 0.087307
H192  H     H_    0.459138 0.649916 0.920679 0.094549
H193  H     H_    0.459183 0.920729 0.649864 0.093420
H194  H     H_    0.541674 0.075292 0.349400 0.084374
H195  H     H_    0.458859 0.649350 0.081621 0.089685
H196  H     H_    0.541599 0.349395 0.924428 0.083306
H197  H     H_    0.458937 0.080084 0.350248 0.095247
H198  H     H_    0.541456 0.918771 0.649462 0.089285
H199  H     H_    0.458688 0.349633 0.922648 0.091077
H200  H     H_    0.541200 0.650501 0.076902 0.091466
H201  H     H_    0.349508 0.542321 0.921888 0.091642
H202  H     H_    0.650177 0.459781 0.077624 0.092301
H203  H     H_    0.919937 0.540781 0.649726 0.096609
H204  H     H_    0.081601 0.459351 0.350716 0.090871
H205  H     H_    0.650945 0.544080 0.076844 0.087072
H206  H     H_    0.349313 0.456787 0.922590 0.088497
H207  H     H_    0.077242 0.542996 0.349157 0.090425
H208  H     H_    0.921942 0.456918 0.650528 0.088670
H209  H     H_    0.650760 0.457398 0.924347 0.084514
H210  H     H_    0.351454 0.539382 0.082920 0.094043
H211  H     H_    0.082808 0.459596 0.648972 0.092643
H212  H     H_    0.924273 0.541867 0.349414 0.083047
H213  H     H_    0.349657 0.456777 0.078657 0.087328
H214  H     H_    0.649491 0.540448 0.919890 0.092536
H215  H     H_    0.921807 0.459269 0.349925 0.089940
H216  H     H_    0.081754 0.540585 0.649146 0.094252
H217  H     H_    0.906675 0.296691 0.387872 0.119576
H218  H     H_    0.088925 0.699534 0.619598 0.117513
H219  H     H_    0.703211 0.907290 0.388231 0.118652
H220  H     H_    0.295615 0.087634 0.615107 0.121301
H221  H     H_    0.167279 0.665507 0.419884 0.127540
H222  H     H_    0.846324 0.320980 0.575959 0.126639
H223  H     H_    0.301805 0.075243 0.373706 0.119105
H224  H     H_    0.660754 0.827663 0.573836 0.129900
H225  H     H_    0.925090 0.698178 0.626835 0.116322
H226  H     H_    0.172069 0.339561 0.425794 0.127164
H227  H     H_    0.675492 0.157189 0.577315 0.122385
H228  H     H_    0.330176 0.836486 0.423932 0.127451
H229  H     H_    0.185178 0.363534 0.571739 0.126118
H230  H     H_    0.882375 0.700972 0.408126 0.117049
H231  H     H_    0.298197 0.912835 0.617583 0.118855
H232  H     H_    0.701642 0.116262 0.406335 0.116147
H233  H     H_    0.383274 0.912287 0.298102 0.120235
H234  H     H_    0.618363 0.083131 0.702420 0.117106
H235  H     H_    0.420084 0.664203 0.831376 0.128123
H236  H     H_    0.618828 0.297931 0.082384 0.118813
H237  H     H_    0.423816 0.145632 0.683606 0.123932
H238  H     H_    0.575751 0.846624 0.320880 0.127635
H239  H     H_    0.424385 0.331048 0.164337 0.125481
H240  H     H_    0.617183 0.701712 0.911993 0.119400
H241  H     H_    0.617733 0.909673 0.699503 0.118637
H242  H     H_    0.418629 0.173454 0.340996 0.127183
H243  H     H_    0.577352 0.675591 0.156688 0.125554
H244  H     H_    0.422774 0.322457 0.845818 0.123325
H245  H     H_    0.588657 0.116210 0.298673 0.115619
H246  H     H_    0.423887 0.836302 0.669001 0.127178
H247  H     H_    0.589134 0.298590 0.883964 0.114490
H248  H     H_    0.381170 0.698766 0.089503 0.119427
H249  H     H_    0.296275 0.385532 0.911850 0.116872
H250  H     H_    0.702580 0.618743 0.083108 0.118529
H251  H     H_    0.907134 0.388335 0.703363 0.118073
H252  H     H_    0.077831 0.622783 0.299269 0.116785
H253  H     H_    0.674997 0.423036 0.157500 0.124469
H254  H     H_    0.300047 0.622951 0.922085 0.117202
H255  H     H_    0.090541 0.382606 0.299927 0.120236
H256  H     H_    0.826667 0.581382 0.659081 0.127309
H257  H     H_    0.668922 0.575754 0.835768 0.123769
H258  H     H_    0.298657 0.382077 0.087436 0.118209
H259  H     H_    0.173132 0.574612 0.659490 0.128769
H260  H     H_    0.845979 0.424325 0.321646 0.126272
H261  H     H_    0.341016 0.573805 0.174117 0.129831
H262  H     H_    0.701345 0.407344 0.883542 0.116173
H263  H     H_    0.883570 0.589446 0.298830 0.114538
H264  H     H_    0.089785 0.369070 0.694838 0.123007
H265  H     H_    0.859401 0.245783 0.332410 0.134713
H266  H     H_    0.137884 0.749975 0.674175 0.142745
H267  H     H_    0.754174 0.859897 0.333287 0.134194
H268  H     H_    0.245332 0.136715 0.669594 0.139569
H269  H     H_    0.213796 0.718273 0.367224 0.132776
H270  H     H_    0.798347 0.267721 0.626574 0.140650
H271  H     H_    0.249339 0.118706 0.317046 0.107509
H272  H     H_    0.712156 0.777029 0.624464 0.156726
H273  H     H_    0.881525 0.750699 0.683433 0.106337
H274  H     H_    0.223004 0.288320 0.375278 0.156596
H275  H     H_    0.730020 0.202955 0.628788 0.136003
H276  H     H_    0.277373 0.788067 0.372848 0.139431
H277  H     H_    0.243061 0.318321 0.618141 0.142120
H278  H     H_    0.834595 0.750925 0.355920 0.173776
H279  H     H_    0.247079 0.865951 0.673339 0.144403
H280  H     H_    0.751428 0.163992 0.353483 0.172654
H281  H     H_    0.327730 0.865389 0.246706 0.144681
H282  H     H_    0.675341 0.127653 0.754331 0.137256
H283  H     H_    0.367571 0.717308 0.785314 0.132258
H284  H     H_    0.675759 0.246216 0.126728 0.138533
H285  H     H_    0.374389 0.194336 0.736354 0.140760
H286  H     H_    0.626198 0.798473 0.267814 0.140615
H287  H     H_    0.373508 0.278081 0.212774 0.143458
H288  H     H_    0.672841 0.752873 0.865097 0.143508
H289  H     H_    0.671976 0.860980 0.749995 0.145625
H290  H     H_    0.365436 0.219592 0.288276 0.124788
H291  H     H_    0.628630 0.730064 0.202714 0.137154
H292  H     H_    0.371845 0.269481 0.798012 0.134987
H293  H     H_    0.637937 0.163147 0.246709 0.183939
H294  H     H_    0.373073 0.787829 0.721884 0.140985
H295  H     H_    0.638715 0.246926 0.837024 0.182706
H296  H     H_    0.326842 0.749151 0.138327 0.142912
H297  H     H_    0.244651 0.330102 0.865101 0.147034
H298  H     H_    0.754324 0.675717 0.127882 0.137595
H299  H     H_    0.859964 0.333145 0.754512 0.134263
H300  H     H_    0.121878 0.679282 0.246710 0.125566
H301  H     H_    0.729462 0.371728 0.203113 0.136451
H302  H     H_    0.247738 0.679787 0.878544 0.125837
H303  H     H_    0.139488 0.328407 0.249515 0.146742
H304  H     H_    0.780442 0.634640 0.711721 0.124072
H305  H     H_    0.721797 0.626632 0.787257 0.143561
H306  H     H_    0.247529 0.326393 0.134322 0.143281
H307  H     H_    0.224072 0.625210 0.710923 0.158468
H308  H     H_    0.797944 0.373960 0.268131 0.141455
H309  H     H_    0.289721 0.624413 0.224931 0.157693
H310  H     H_    0.751291 0.354934 0.835886 0.173323
H311  H     H_    0.836510 0.639034 0.247334 0.182757
H312  H     H_    0.146419 0.318855 0.741184 0.138235

loop_
_geom_bond_atom_site_label_1
_geom_bond_atom_site_label_2
_ccdc_geom_bond_type
C318  H126  S    
C85   N37   A    
O23   C331  S    
C18   C45   A    
C135  C226  A    
C77   C244  A    
C133  H301  S    
O13   C301  S    
C184  H256  S    
C125  C232  A    
C131  H299  S    
C307  H99   S    
C103  H271  S    
C268  H8    S    
C163  C209  A    
C328  H148  S    
C56   C248  A    
C120  C168  A    
C123  H291  S    
C291  H61   S    
C286  H51   S    
C216  C261  S    
C95   C246  A    
C186  H258  S    
C328  C329  S    
C94   C257  A    
C325  C326  S    
C212  C257  S    
C23   C43   A    
C331  H155  S    
C152  C200  A    
C321  H131  S    
C292  H64   S    
C322  C323  S    
C66   N18   A    
C90   C261  A    
N16   N21   A    
C106  H274  S    
C76   C262  A    
C110  C230  A    
C289  C290  S    
C103  C223  A    
C114  C227  A    
C136  H304  S    
C80   N32   A    
C327  H147  S    
C164  C210  A    
C303  H89   S    
C20   C236  S    
C51   N3    A    
C305  C306  S    
C56   H176  S    
C335  H164  S    
C146  C194  A    
C207  C252  S    
C159  H231  S    
C126  C174  A    
C279  H35   S    
C73   C252  A    
C282  H42   S    
C186  C211  A    
C289  H58   S    
C310  H107  S    
C138  C235  A    
C172  H244  S    
C172  C214  A    
C294  H70   S    
C199  C244  S    
C153  C201  A    
C164  H236  S    
N15   Ni4   S    
C313  H114  S    
C197  C242  S    
C213  C264  S    
C132  C221  A    
N15   N22   A    
C214  C263  S    
C97   H265  S    
C269  H10   S    
C67   N19   A    
C278  C279  S    
C88   C241  A    
O2    C268  S    
N7    N18   A    
N33   Ni9   S    
N5    Ni2   S    
C108  C228  A    
C210  C259  S    
C304  H92   S    
C191  C206  A    
C88   H208  S    
N3    N30   A    
C316  H121  S    
C298  H79   S    
N13   Ni1   S    
C333  H159  S    
C189  C216  A    
C306  H97   S    
C153  H225  S    
N10   Ni1   S    
C49   C241  A    
C124  C172  A    
C319  C320  S    
O18   C316  S    
C335  C336  S    
C18   C234  S    
C2    C26   A    
C336  H166  S    
N17   Ni5   S    
C146  H218  S    
C177  H249  S    
N19   Ni7   S    
N31   N38   A    
N20   Ni8   S    
C147  H219  S    
C329  H150  S    
C6    C30   A    
C46   O22   S    
C132  H300  S    
C17   C233  S    
C98   C218  A    
C280  H36   S    
C174  H246  S    
C336  H168  S    
C287  H53   S    
C55   N7    A    
O16   C310  S    
C57   C249  A    
C282  H40   S    
C56   N8    A    
C307  C308  S    
C119  C167  A    
C96   C245  A    
C268  C269  S    
C295  H71   S    
C102  C222  A    
C47   O23   S    
C72   H192  S    
C304  C305  S    
C95   H215  S    
C16   C25   A    
C99   C147  A    
N21   Ni6   S    
C61   C253  A    
C112  C160  A    
C178  C213  A    
C137  H305  S    
C97   C145  A    
N23   Ni8   S    
C291  H63   S    
C44   O20   S    
N24   Ni7   S    
C30   O6    S    
C317  H122  S    
C113  C228  A    
C281  H39   S    
N29   Ni5   S    
N20   N45   A    
C82   N34   A    
C159  C207  A    
N48   Ni11  S    
C152  H224  S    
C289  H57   S    
C78   C243  A    
C331  C332  S    
C109  H277  S    
C104  C152  A    
C126  C231  A    
C326  H144  S    
C276  H26   S    
C139  C218  A    
C39   O15   S    
C104  H272  S    
C303  H91   S    
C20   C40   A    
C271  H15   S    
C118  C166  A    
C131  C222  A    
C133  C234  A    
C143  C230  A    
C115  C163  A    
C309  H103  S    
C14   C230  S    
C114  C162  A    
C113  C161  A    
C21   C42   A    
N4    Ni4   S    
C308  C309  S    
C187  H259  S    
C9    C48   A    
C31   O7    S    
C10   C47   A    
C2    C218  S    
C7    C39   A    
O20   C322  S    
C8    C40   A    
C312  H111  S    
C288  H54   S    
C107  C155  A    
N28   N41   A    
O6    C280  S    
C6    C222  S    
C91   C250  A    
C91   N43   A    
C320  C321  S    
C105  C153  A    
C75   C261  A    
N23   N34   A    
C12   C29   A    
C111  C231  A    
C192  C205  A    
C272  H17   S    
C88   N40   A    
C269  C270  S    
C42   O18   S    
C109  C157  A    
C277  H29   S    
N19   N46   A    
C294  H69   S    
C302  H87   S    
C126  H294  S    
C125  H293  S    
C68   H188  S    
N27   Ni7   S    
C296  H74   S    
C19   C47   A    
C299  C300  S    
C275  H24   S    
C71   C259  A    
C201  C254  S    
C124  C238  A    
C309  H105  S    
C167  H239  S    
C330  H152  S    
C205  C250  S    
C41   O17   S    
C34   O10   S    
C329  C330  S    
C21   C38   A    
C308  H101  S    
N25   Ni6   S    
C86   N38   A    
C107  C227  A    
C100  H268  S    
C280  C281  S    
C193  C246  S    
C105  C225  A    
C190  C215  A    
N44   Ni12  S    
C295  C296  S    
C115  H283  S    
N37   Ni10  S    
C327  H146  S    
O17   C313  S    
C178  H250  S    
C35   O11   S    
C266  H4    S    
C215  C262  S    
C134  C182  A    
C317  C318  S    
C155  C203  A    
C50   H170  S    
C170  C199  A    
C290  H60   S    
C279  H34   S    
C3    C27   A    
C276  H27   S    
C292  C293  S    
C311  H109  S    
C314  H116  S    
C169  H241  S    
C301  H85   S    
C108  H276  S    
C83   C254  A    
C28   O4    S    
C267  H5    S    
N38   Ni9   S    
C276  H28   S    
C163  H235  S    
C33   O9    S    
C37   O13   S    
C166  H238  S    
C101  H269  S    
N43   Ni11  S    
C122  C170  A    
C143  H311  S    
C271  C272  S    
C110  C158  A    
C181  C210  A    
C330  H153  S    
N8    Ni3   S    
N11   Ni3   S    
C324  H138  S    
C160  C208  A    
C129  H297  S    
C294  H68   S    
C23   C34   A    
N27   N42   A    
C171  H243  S    
C288  H56   S    
C95   N47   A    
C265  H1    S    
C132  C180  A    
N12   N25   A    
C94   H214  S    
C133  C181  A    
O10   C292  S    
C65   C248  A    
C319  H128  S    
C188  C193  A    
C270  H13   S    
C59   C251  A    
C285  H48   S    
N36   Ni12  S    
C64   H184  S    
C274  H22   S    
C293  H66   S    
O8    C286  S    
C302  C303  S    
C318  H125  S    
N6    Ni1   S    
C138  H306  S    
C332  C333  S    
C143  C191  A    
C184  C201  A    
C60   N12   A    
C333  H161  S    
C15   C231  S    
C61   N13   A    
C51   C243  A    
C297  H76   S    
C81   H201  S    
C282  H41   S    
N11   N26   A    
C24   C240  S    
N14   Ni2   S    
C1    C217  S    
O19   C319  S    
C179  C198  A    
C57   N9    A    
C111  H279  S    
C78   H198  S    
C334  C335  S    
C48   O24   S    
C291  H62   S    
C12   C33   A    
C16   C36   A    
C1    C45   A    
C64   N16   A    
C170  H242  S    
C65   H185  S    
C54   N6    A    
C121  C224  A    
C331  H156  S    
N12   Ni4   S    
C148  H220  S    
C274  C275  S    
N1    Ni1   S    
C322  H135  S    
N40   Ni11  S    
C118  H286  S    
C76   N28   A    
C117  H285  S    
C182  H254  S    
C77   N29   A    
C140  C217  A    
O14   C304  S    
C100  C220  A    
C11   C227  S    
C273  H19   S    
N22   Ni5   S    
C116  C234  A    
C84   C253  A    
N34   Ni10  S    
C168  H240  S    
C9    C225  S    
C297  H75   S    
C52   H172  S    
C127  H295  S    
C104  C224  A    
C26   O2    S    
C69   C256  A    
C315  H117  S    
C123  C237  A    
C83   N35   A    
C265  H2    S    
C69   N21   A    
C136  C225  A    
C58   N10   A    
C130  C237  A    
C127  C239  A    
O9    C289  S    
C321  H133  S    
C79   C263  A    
N7    Ni4   S    
C161  C204  A    
C21   C237  S    
O15   C307  S    
C80   C264  A    
C267  H7    S    
C13   C41   A    
C125  C173  A    
C60   H180  S    
C305  H94   S    
C323  H136  S    
C134  H302  S    
C82   H202  S    
C179  H251  S    
C138  C186  A    
C7    C31   A    
C269  H11   S    
C144  H312  S    
C324  H140  S    
C268  H9    S    
C278  H32   S    
C98   H266  S    
C284  C285  S    
N3    Ni3   S    
C12   C228  S    
C22   C41   A    
C25   O1    S    
C135  H303  S    
C142  C190  A    
C87   N39   A    
C325  H141  S    
C300  H83   S    
C111  C159  A    
C142  H310  S    
C333  H160  S    
C130  C178  A    
C9    C32   A    
C165  H237  S    
C109  C229  A    
C10   C31   A    
C11   C30   A    
C117  C165  A    
C4    C220  S    
C180  H252  S    
N24   N33   A    
C13   C28   A    
C158  H230  S    
C135  C183  A    
C14   C27   A    
C145  C193  A    
C8    C224  S    
C293  C294  S    
C103  C151  A    
C66   H186  S    
N5    N48   A    
C329  H151  S    
N6    N47   A    
C155  H227  S    
C332  H157  S    
C67   H187  S    
C292  H65   S    
C188  H260  S    
C58   H178  S    
N9    N44   A    
C154  C202  A    
C61   H181  S    
N10   N43   A    
C74   C251  A    
C137  C185  A    
C66   C247  A    
C304  H93   S    
C198  C241  S    
C127  C175  A    
C272  C273  S    
C53   C245  A    
C128  C176  A    
N41   Ni10  S    
C96   H216  S    
C298  H78   S    
C158  C206  A    
C318  H124  S    
C286  C287  S    
C141  C189  A    
C317  H123  S    
O3    C271  S    
C45   O21   S    
C87   C242  A    
C92   N44   A    
C22   C37   A    
C93   N45   A    
N26   Ni5   S    
C334  H162  S    
C307  H100  S    
C140  C188  A    
C296  H73   S    
C326  H143  S    
C130  H298  S    
C89   N41   A    
C295  H72   S    
N13   N36   A    
C23   C239  S    
C144  C229  A    
N14   N35   A    
C108  C156  A    
C136  C184  A    
C271  H16   S    
C157  C205  A    
C84   H204  S    
C122  H290  S    
C137  C236  A    
C309  H104  S    
C121  H289  S    
C67   C257  A    
C175  H247  S    
C96   N48   A    
C315  H119  S    
C36   O12   S    
C157  H229  S    
C283  H44   S    
C308  H102  S    
C5    C44   A    
C99   C219  A    
C141  C240  A    
C122  C223  A    
C187  C194  A    
C174  C207  A    
C190  H262  S    
C310  C311  S    
C97   C217  A    
C330  H154  S    
C85   C264  A    
C165  C196  A    
C90   H210  S    
N39   Ni12  S    
C115  C233  A    
O22   C328  S    
C203  C256  S    
C101  C221  A    
N8    N17   A    
C320  H130  S    
C313  H113  S    
C110  H278  S    
C81   C260  A    
C82   C259  A    
C183  C202  A    
C177  C214  A    
C305  H95   S    
C283  H43   S    
C19   C235  S    
C70   C255  A    
C112  H280  S    
C277  H30   S    
C284  H45   S    
C272  H18   S    
C27   O3    S    
N46   Ni10  S    
C49   N1    A    
C128  C240  A    
C196  C247  S    
C144  C192  A    
C195  C248  S    
C191  H263  S    
C24   C33   A    
C112  C232  A    
C105  H273  S    
C162  C203  A    
C86   H206  S    
C273  H20   S    
C316  C317  S    
C85   H205  S    
C92   H212  S    
C298  C299  S    
C151  H223  S    
C306  H98   S    
C84   N36   A    
C60   C252  A    
C275  H25   S    
C62   H182  S    
C77   H197  S    
C49   H169  S    
C54   C246  A    
N18   Ni6   S    
O1    C265  S    
C51   H171  S    
C277  C278  S    
C140  H308  S    
C13   C229  S    
C93   C258  A    
C171  C213  A    
C99   H267  S    
C4    C37   A    
C211  C258  S    
C3    C219  S    
C107  H275  S    
N2    N39   A    
C280  H37   S    
C287  H52   S    
C162  H234  S    
C65   N17   A    
C89   C262  A    
C17   C35   A    
N28   Ni8   S    
C18   C36   A    
C150  C198  A    
C123  C171  A    
C70   H190  S    
C175  C215  A    
C22   C238  S    
C313  C314  S    
C69   H189  S    
C76   H196  S    
C5    C221  S    
C270  H12   S    
C50   N2    A    
C43   O19   S    
O12   C298  S    
C114  H282  S    
C129  C238  A    
C300  H84   S    
C71   N23   A    
C266  H3    S    
C168  C212  A    
C286  H50   S    
C72   N24   A    
C63   N15   A    
C281  H38   S    
C325  H142  S    
N47   Ni12  S    
C183  H255  S    
O7    C283  S    
C92   C249  A    
C2    C46   A    
N31   Ni8   S    
C311  C312  S    
C181  H253  S    
C314  H115  S    
C120  H288  S    
N32   Ni7   S    
C301  H86   S    
C40   O16   S    
C275  C276  S    
N2    Ni2   S    
C93   H213  S    
C316  H120  S    
C326  C327  S    
C52   C244  A    
C68   N20   A    
C78   N30   A    
C202  C253  S    
C121  C169  A    
C320  H129  S    
C7    C223  S    
C117  C220  A    
C53   H173  S    
C312  H110  S    
C128  H296  S    
N4    N29   A    
C74   N26   A    
C206  C249  S    
C129  C177  A    
C29   O5    S    
C180  C197  A    
C141  H309  S    
C148  C196  A    
C63   C255  A    
C3    C38   A    
C139  H307  S    
C70   N22   A    
C194  C245  S    
C59   N11   A    
C86   C263  A    
C24   C44   A    
C322  H134  S    
C176  C216  A    
C147  C195  A    
C173  C208  A    
C106  C154  A    
C87   H207  S    
N9    Ni2   S    
C14   C42   A    
C73   H193  S    
C299  H80   S    
C116  H284  S    
C55   C247  A    
C1    C25   A    
C285  H49   S    
O4    C274  S    
C265  C266  S    
C283  C284  S    
C139  C187  A    
C15   C35   A    
C4    C28   A    
C321  H132  S    
C293  H67   S    
C160  H232  S    
C328  H149  S    
C5    C29   A    
C302  H88   S    
N32   N37   A    
C79   N31   A    
C332  H158  S    
C185  H257  S    
C8    C32   A    
C151  C199  A    
C189  H261  S    
C166  C195  A    
C75   N27   A    
C296  C297  S    
C306  H96   S    
C204  C255  S    
C131  C179  A    
C15   C26   A    
C98   C146  A    
C38   O14   S    
C299  H81   S    
C71   H191  S    
C16   C232  S    
C182  C209  A    
N1    N40   A    
C334  H163  S    
C208  C251  S    
C81   N33   A    
C75   H195  S    
C310  H106  S    
C145  H217  S    
C106  C226  A    
O21   C325  S    
C176  H248  S    
C185  C212  A    
C79   H199  S    
C274  H23   S    
C20   C48   A    
C150  H222  S    
C200  C243  S    
C19   C39   A    
C55   H175  S    
C303  H90   S    
C327  H145  S    
C52   N4    A    
C102  C150  A    
C72   C260  A    
C53   N5    A    
C169  C200  A    
C266  C267  S    
C83   H203  S    
C58   C250  A    
C288  H55   S    
C80   H200  S    
C63   H183  S    
C156  C204  A    
C281  C282  S    
C54   H174  S    
C290  C291  S    
N45   Ni9   S    
C279  H33   S    
C315  H118  S    
O5    C277  S    
C290  H59   S    
C119  C235  A    
C62   C254  A    
C311  H108  S    
C314  C315  S    
C94   N46   A    
C161  H233  S    
C287  C288  S    
C116  C164  A    
C11   C34   A    
C89   H209  S    
C50   C242  A    
C119  H287  S    
C192  H264  S    
C73   N25   A    
C17   C46   A    
C90   N42   A    
C154  H226  S    
C273  H21   S    
C113  H281  S    
C124  H292  S    
C323  H137  S    
C74   H194  S    
C335  H165  S    
C6    C43   A    
C312  H112  S    
C297  H77   S    
C167  C211  A    
C324  H139  S    
C156  H228  S    
C278  H31   S    
C120  C236  A    
C68   C258  A    
C284  H46   S    
C149  H221  S    
C336  H167  S    
C100  C148  A    
N16   Ni3   S    
C102  H270  S    
C101  C149  A    
C301  C302  S    
C134  C233  A    
C57   H177  S    
O24   C334  S    
C91   H211  S    
C300  H82   S    
N42   Ni9   S    
C59   H179  S    
C173  H245  S    
O11   C295  S    
C267  H6    S    
C32   O8    S    
C319  H127  S    
C323  C324  S    
N35   Ni11  S    
C270  H14   S    
C118  C219  A    
C10   C226  S    
C285  H47   S    
C209  C260  S    
C62   N14   A    
N30   Ni6   S    
C149  C197  A    
C142  C239  A    
C64   C256  A    
