data_mof_unit_58907.cif
_audit_creation_date              2012-12-10T16:55:00-0500
_audit_creation_method            fapswitch 2.2
_symmetry_space_group_name_H-M    P1
_symmetry_Int_Tables_number       1
_space_group_crystal_system       triclinic
_cell_length_a                    7.827648
_cell_length_b                    8.414514
_cell_length_c                    15.740297
_cell_angle_alpha                 91.139983
_cell_angle_beta                  84.778476
_cell_angle_gamma                 93.893263
_cell_volume                      1029.96512054

loop_
_atom_site_label
_atom_site_type_symbol
_atom_type_description
_atom_site_fract_x
_atom_site_fract_y
_atom_site_fract_z
_atom_type_partial_charge
C1    C     C_R   0.545635 0.793482 0.511066 0.898793
C2    C     C_2   0.435473 0.047326 0.549674 -0.084907
C3    C     C_R   0.500391 0.499835 0.661379 0.873819
C4    C     C_R   0.455345 0.207080 0.515768 0.952634
C5    C     C_R   0.499714 0.500662 0.338615 0.933028
C6    C     C_3   0.356172 0.602029 0.957530 -0.421278
C7    C     C_3   0.683552 0.578545 0.941082 -0.016897
C8    C     C_3   0.686033 0.587511 0.041173 -0.050406
C9    C     C_1   0.500441 0.505421 0.250005 -0.160779
C10   C     C_3   0.503352 0.503922 0.916510 0.237341
C11   C     C_1   0.354229 0.768537 0.089923 0.157444
C12   C     C_3   0.355890 0.603656 0.055773 -0.149329
C13   C     C_1   0.616349 0.233475 0.076394 0.136112
C14   C     C_1   0.744686 0.018079 0.550556 0.226141
C15   C     C_3   0.267731 0.988433 0.599211 -0.354687
C16   C     C_3   0.214345 0.100700 0.673126 -0.875417
C17   C     C_1   0.025631 0.348760 0.421219 0.451421
C18   C     C_3   0.767508 0.724128 0.887579 -0.344659
C19   C     C_3   0.655524 0.861668 0.872321 -0.883336
C20   C     C_3   0.743148 0.752648 0.080597 -0.329523
C21   C     C_3   0.934932 0.769236 0.092878 -0.909742
C22   C     C_3   0.322714 0.222127 0.919067 -0.377783
C23   C     C_3   0.509186 0.511671 0.082595 0.118395
C24   C     C_3   0.149889 0.213898 0.974044 -0.858968
C25   C     C_3   0.482679 0.334459 0.050491 -0.198345
C26   C     C_3   0.477399 0.328885 0.951429 -0.066061
C27   C     C_1   0.504062 0.509425 0.174740 -0.077786
C28   C     C_1   0.501478 0.501178 0.825063 -0.089531
C29   C     C_1   0.501125 0.499968 0.749912 -0.195284
C30   C     C_2   0.571442 0.956364 0.537900 -0.268555
H1    H     H_    0.230639 0.550627 0.938739 0.165376
H2    H     H_    0.171196 0.213358 0.649751 0.293022
H3    H     H_    0.105516 0.042728 0.714011 0.246094
H4    H     H_    0.167026 0.971811 0.554472 0.238563
H5    H     H_    0.280451 0.871995 0.629307 0.226214
H6    H     H_    0.560987 0.825921 0.825973 0.254877
H7    H     H_    0.587485 0.906340 0.931683 0.253150
H8    H     H_    0.738853 0.962577 0.843878 0.239804
H9    H     H_    0.884896 0.773560 0.915327 0.208207
H10   H     H_    0.815023 0.679016 0.823397 0.197990
H11   H     H_    0.964165 0.685597 0.142504 0.262478
H12   H     H_    0.233773 0.541306 0.082862 0.134797
H13   H     H_    0.013810 0.743153 0.032869 0.248865
H14   H     H_    0.970892 0.892548 0.114264 0.279616
H15   H     H_    0.711127 0.852475 0.042422 0.249186
H16   H     H_    0.675985 0.771387 0.144720 0.229146
H17   H     H_    0.153030 0.131954 0.028203 0.264201
H18   H     H_    0.113482 0.331695 0.998864 0.248953
H19   H     H_    0.047064 0.164176 0.935012 0.246259
H20   H     H_    0.297770 0.257462 0.854159 0.213192
H21   H     H_    0.362095 0.097734 0.911759 0.202107
H22   H     H_    0.987546 0.620714 0.563588 0.181666
H23   H     H_    0.364188 0.724018 0.932091 0.183497
H24   H     H_    0.775587 0.486187 0.921233 0.079911
H25   H     H_    0.784604 0.506401 0.057525 0.157485
H26   H     H_    0.592178 0.268379 0.922926 0.116304
H27   H     H_    0.360704 0.283879 0.083325 0.186180
H28   H     H_    0.323475 0.127757 0.712666 0.239290
N1    N     N_2   0.950340 0.457950 0.477370 -0.142602
N2    N     N_2   0.049660 0.542050 0.522630 -0.189309
N3    N     N_1   0.352286 0.897598 0.116654 -0.220136
N4    N     N_1   0.721467 0.155828 0.096927 -0.217458
N5    N     N_1   0.881212 0.070603 0.561328 -0.224265
N6    N     N_1   0.086469 0.256827 0.374001 -0.241954
O1    O     O_R   0.389240 0.738570 0.505550 -0.623009
O2    O     O_R   0.678400 0.711630 0.491050 -0.617741
O3    O     O_R   0.355360 0.513470 0.630110 -0.636052
O4    O     O_R   0.644510 0.486530 0.615610 -0.628089
O5    O     O_R   0.321600 0.288370 0.508950 -0.615759
O6    O     O_R   0.610760 0.261430 0.494450 -0.625163
O7    O     O_R   0.355490 0.513470 0.384390 -0.613527
O8    O     O_R   0.644640 0.486530 0.369890 -0.611871
Zn1   Zn    Zn3+2 0.306930 0.517990 0.509680 0.934757
Zn2   Zn    Zn3+2 0.693070 0.482010 0.490320 0.953896

loop_
_geom_bond_atom_site_label_1
_geom_bond_atom_site_label_2
_ccdc_geom_bond_type
C6    C10   S    
C7    C10   S    
C2    C4    S    
C11   C12   S    
O6    Zn2   S    
O3    Zn1   S    
C19   H8    S    
C23   C27   S    
C16   H3    S    
C16   H2    S    
C21   H14   S    
H22   N2    S    
C15   H4    S    
C1    O1    A    
C20   H15   S    
N1    Zn2   S    
C22   H20   S    
C2    C30   D    
C7    C18   S    
C10   C26   S    
C4    O6    A    
C1    O2    A    
N1    N2    D    
C5    O7    A    
C16   H28   S    
C3    O3    A    
O5    Zn1   S    
C2    C15   S    
C12   C23   S    
C13   C25   S    
C5    C9    S    
C8    C20   S    
C25   H27   S    
C14   C30   S    
C21   H11   S    
C14   N5    T    
C8    H25   S    
C15   H5    S    
C1    C30   S    
C17   N1    S    
C6    H1    S    
C5    O8    A    
C19   H6    S    
C23   C25   S    
C17   N6    T    
C6    C12   S    
C22   C24   S    
C13   N4    T    
C6    H23   S    
O4    Zn2   S    
C15   C16   S    
O2    Zn2   S    
N2    Zn1   S    
C7    C8    S    
C8    C23   S    
O1    Zn1   S    
C20   C21   S    
C9    C27   T    
O8    Zn2   S    
C18   C19   S    
C22   C26   S    
C10   C28   S    
C24   H19   S    
C3    C29   S    
C18   H9    S    
C18   H10   S    
C4    O5    A    
C12   H12   S    
C19   H7    S    
C7    H24   S    
C25   C26   S    
C21   H13   S    
C24   H17   S    
O7    Zn1   S    
C20   H16   S    
C28   C29   T    
C3    O4    A    
C26   H26   S    
C22   H21   S    
C11   N3    T    
C24   H18   S    
