data_mof_unit_12149.cif
_audit_creation_date              2012-12-10T18:00:46-0500
_audit_creation_method            fapswitch 2.2
_symmetry_space_group_name_H-M    P1
_symmetry_Int_Tables_number       1
_space_group_crystal_system       triclinic
_cell_length_a                    15.880113
_cell_length_b                    10.875638
_cell_length_c                    9.509036
_cell_angle_alpha                 90.932048
_cell_angle_beta                  90.033966
_cell_angle_gamma                 90.211638
_cell_volume                      1642.04215778

loop_
_atom_site_label
_atom_site_type_symbol
_atom_type_description
_atom_site_fract_x
_atom_site_fract_y
_atom_site_fract_z
_atom_type_partial_charge
C1    C     C_R   0.499938 0.262068 0.498542 0.818992
C2    C     C_R   0.500062 0.737932 0.501458 0.818992
C3    C     C_R   0.519906 0.932044 0.379005 -0.309428
C4    C     C_R   0.480094 0.067956 0.620995 -0.309428
C5    C     C_R   0.500714 0.871797 0.503983 -0.098694
C6    C     C_R   0.499286 0.128202 0.496017 -0.098694
C7    C     C_R   0.439532 0.437503 0.073156 -0.010371
C8    C     C_R   0.560468 0.562497 0.926844 -0.010371
C9    C     C_R   0.439689 0.437208 0.924326 -0.028155
C10   C     C_R   0.560311 0.562792 0.075674 -0.028154
C11   C     C_R   0.339782 0.499936 0.499941 0.820121
C12   C     C_R   0.660218 0.500063 0.500059 0.820122
C13   C     C_3   0.971678 0.383182 0.479658 -0.243256
C14   C     C_3   0.028322 0.616818 0.520342 -0.243255
C15   C     C_3   0.027404 0.457197 0.378869 0.333273
C16   C     C_3   0.972596 0.542802 0.621131 0.333274
C17   C     C_1   0.250168 0.500126 0.499944 -0.180674
C18   C     C_1   0.749832 0.499874 0.500056 -0.180674
C19   C     C_3   0.028059 0.427596 0.604890 -0.212506
C20   C     C_3   0.971941 0.572404 0.395110 -0.212506
C21   C     C_3   0.083120 0.500571 0.501052 0.088988
C22   C     C_3   0.916880 0.499429 0.498948 0.088988
C23   C     C_1   0.174697 0.500346 0.500272 -0.051744
C24   C     C_1   0.825303 0.499654 0.499728 -0.051744
C25   C     C_R   0.518667 0.059433 0.373087 0.262839
C26   C     C_R   0.481334 0.940567 0.626913 0.262840
Cu1   Cu    Cu3+1 0.500000 0.500020 0.640660 0.953548
Cu2   Cu    Cu3+1 0.500000 0.499980 0.359340 0.953548
H1    H     H_    0.947933 0.288268 0.460391 0.143009
H2    H     H_    0.052067 0.711732 0.539609 0.143009
H3    H     H_    0.948381 0.629862 0.308153 0.138861
H4    H     H_    0.051619 0.370138 0.691847 0.138861
H5    H     H_    0.535704 0.880299 0.284293 0.165636
H6    H     H_    0.464296 0.119701 0.715707 0.165635
H7    H     H_    0.391096 0.387396 0.128152 0.117201
H8    H     H_    0.608904 0.612604 0.871848 0.117200
H9    H     H_    0.391577 0.386395 0.867313 0.117864
H10   H     H_    0.608423 0.613605 0.132687 0.117863
N1    N     N_R   0.500020 0.500030 0.852070 -0.151489
N2    N     N_R   0.499980 0.499970 0.147930 -0.151489
O1    O     O_R   0.500000 0.319660 0.618740 -0.596229
O2    O     O_R   0.500000 0.680340 0.381260 -0.596229
O3    O     O_R   0.499990 0.319630 0.381170 -0.544985
O4    O     O_R   0.500010 0.680370 0.618830 -0.544985
O5    O     O_R   0.379080 0.500000 0.618760 -0.580107
O6    O     O_R   0.620920 0.500000 0.381240 -0.580108
O7    O     O_R   0.379080 0.499970 0.381190 -0.583169
O8    O     O_R   0.620920 0.500030 0.618810 -0.583169
N3    N     N_2   0.060334 0.410313 0.246762 -0.429745
H11   H     H_    0.104925 0.342773 0.259701 0.245257
C27   C     C_3   0.997250 0.377611 0.142981 -0.697783
H12   H     H_    0.028582 0.349815 0.043137 0.225186
H13   H     H_    0.956007 0.457432 0.121762 0.242189
H14   H     H_    0.958372 0.299465 0.180156 0.220429
N4    N     N_2   0.939666 0.589687 0.753238 -0.429745
H15   H     H_    0.895075 0.657227 0.740299 0.245257
C28   C     C_3   0.002750 0.622388 0.857019 -0.697783
H16   H     H_    0.971418 0.650185 0.956863 0.225186
H17   H     H_    0.041628 0.700535 0.819844 0.220430
H18   H     H_    0.043993 0.542568 0.878238 0.242189
N5    N     N_2   0.538616 0.116794 0.243826 -0.398583
H19   H     H_    0.592338 0.081873 0.197358 0.239899
C29   C     C_3   0.469025 0.119897 0.145669 -0.679086
H20   H     H_    0.450849 0.025057 0.112203 0.212628
H21   H     H_    0.487966 0.171822 0.051153 0.219178
H22   H     H_    0.413830 0.166179 0.194606 0.230906
N6    N     N_2   0.461385 0.883207 0.756174 -0.398582
H23   H     H_    0.407664 0.918129 0.802645 0.239899
C30   C     C_3   0.530977 0.880102 0.854329 -0.679086
H24   H     H_    0.549154 0.974941 0.887795 0.212628
H25   H     H_    0.586171 0.833818 0.805390 0.230906
H26   H     H_    0.512037 0.828177 0.948845 0.219177

loop_
_geom_bond_atom_site_label_1
_geom_bond_atom_site_label_2
_ccdc_geom_bond_type
Cu1   O8    S    
C30   H26   S    
C4    C26   A    
N4    H15   S    
C29   H21   S    
Cu2   O7    S    
C11   O5    A    
C8    N1    A    
C2    O2    A    
Cu1   O1    S    
Cu2   O3    S    
C11   O7    A    
C13   C15   S    
C10   H10   S    
C12   O8    A    
C27   H14   S    
C19   H4    S    
Cu1   O5    S    
C9    H9    S    
C28   H18   S    
C29   H22   S    
C30   H25   S    
C3    H5    S    
C25   N5    S    
C15   N3    S    
N6    C30   S    
Cu2   O6    S    
C28   H16   S    
C17   C23   T    
C14   H2    S    
C16   C19   S    
C18   C24   T    
C26   N6    S    
C14   C21   S    
C1    O1    A    
N6    H23   S    
C19   C21   S    
C20   C22   S    
C13   C22   S    
N3    H11   S    
C15   C20   S    
C22   C24   S    
C30   H24   S    
N4    C28   S    
C21   C23   S    
N5    H19   S    
C4    H6    S    
C16   N4    S    
C6    C25   A    
C28   H17   S    
C13   H1    S    
C12   C18   S    
C27   H12   S    
C2    C5    S    
C14   C20   S    
C15   C21   S    
C3    C25   A    
C2    O4    A    
C9    N1    A    
C12   O6    A    
C4    C6    A    
C8    H8    S    
Cu2   O2    S    
Cu1   Cu2   S    
C7    C9    A    
C13   C19   S    
Cu2   N2    S    
C11   C17   S    
C10   N2    A    
C16   C22   S    
C3    C5    A    
C1    C6    S    
N3    C27   S    
C14   C16   S    
C7    N2    A    
C7    H7    S    
Cu1   O4    S    
C1    O3    A    
C8    C10   A    
C5    C26   A    
N5    C29   S    
Cu1   N1    S    
C29   H20   S    
C27   H13   S    
C20   H3    S    
