data_mof_unit_12170.cif
_audit_creation_date              2012-12-10T18:33:41-0500
_audit_creation_method            fapswitch 2.2
_symmetry_space_group_name_H-M    P1
_symmetry_Int_Tables_number       1
_space_group_crystal_system       triclinic
_cell_length_a                    10.498377
_cell_length_b                    14.973611
_cell_length_c                    15.388572
_cell_angle_alpha                 82.547506
_cell_angle_beta                  90.107028
_cell_angle_gamma                 104.356506
_cell_volume                      2322.56684258

loop_
_atom_site_label
_atom_site_type_symbol
_atom_type_description
_atom_site_fract_x
_atom_site_fract_y
_atom_site_fract_z
_atom_type_partial_charge
C1    C     C_R   0.484069 0.442300 0.662468 0.886419
C2    C     C_R   0.521832 0.557874 0.337132 0.883129
C3    C     C_R   0.508664 0.472408 0.815434 0.080780
C4    C     C_R   0.561788 0.530771 0.183388 0.039671
C5    C     C_R   0.580468 0.463228 0.892240 0.034629
C6    C     C_R   0.610806 0.566271 0.097072 0.011336
C7    C     C_R   0.617601 0.378605 0.917091 0.125547
C8    C     C_R   0.625663 0.662115 0.067186 0.145814
C9    C     C_R   0.608988 0.533009 0.947860 0.044797
C10   C     C_R   0.628669 0.507029 0.036415 0.037096
C11   C     C_R   0.669568 0.424826 0.060658 -0.257536
C12   C     C_R   0.626654 0.628306 0.917615 -0.237060
C13   C     C_R   0.667957 0.361510 0.000877 0.100416
C14   C     C_R   0.641073 0.693530 0.976692 0.071099
C15   C     C_R   0.719990 0.850284 0.622040 0.352096
C16   C     C_R   0.278871 0.149051 0.379395 0.350172
C17   C     C_R   0.672050 0.756825 0.610136 0.418745
C18   C     C_R   0.326718 0.242613 0.390856 0.434986
C19   C     C_R   0.510506 0.794029 0.514456 -0.023896
C20   C     C_R   0.490034 0.206203 0.485402 -0.027606
C21   C     C_R   0.545486 0.887218 0.531689 -0.058657
C22   C     C_R   0.454673 0.112738 0.468894 -0.055238
C23   C     C_R   0.742665 0.500818 0.500248 0.880811
C24   C     C_R   0.257294 0.499131 0.499887 0.894049
C25   C     C_R   0.665549 0.917972 0.573709 -0.171819
C26   C     C_R   0.334035 0.081684 0.427532 -0.177218
C27   C     C_R   0.469847 0.951492 0.503414 -0.073948
C28   C     C_R   0.530309 0.048457 0.497412 -0.071772
C29   C     C_R   0.666077 0.077418 0.515471 0.291186
C30   C     C_R   0.333981 0.922380 0.485817 0.295428
C31   C     C_R   0.730186 0.013784 0.559655 0.428100
C32   C     C_R   0.269372 0.985900 0.442115 0.427392
C33   C     C_3   0.951994 0.486508 0.420556 -0.166683
C34   C     C_3   0.047873 0.513371 0.579767 -0.161187
C35   C     C_3   0.009448 0.416593 0.480971 -0.034341
C36   C     C_3   0.990406 0.583283 0.519356 -0.034216
C37   C     C_3   0.121607 0.497990 0.499722 -0.043383
C38   C     C_3   0.878276 0.501894 0.500588 -0.038297
C39   C     C_3   0.066804 0.567880 0.439314 -0.164521
C40   C     C_3   0.933034 0.432002 0.561014 -0.163540
C41   C     C_R   0.506156 0.410881 0.753875 -0.038738
C42   C     C_R   0.554942 0.592998 0.243790 -0.062839
C43   C     C_R   0.603182 0.313207 0.857640 -0.168516
C44   C     C_R   0.619193 0.723220 0.127906 -0.149864
C45   C     C_R   0.552448 0.331026 0.775406 -0.238948
C46   C     C_R   0.587843 0.689096 0.215764 -0.237233
H1    H     H_    0.021514 0.348766 0.465379 0.232524
H2    H     H_    0.978278 0.651090 0.534975 0.233734
H3    H     H_    0.564168 0.229328 0.531890 0.187229
H4    H     H_    0.436717 0.771259 0.467628 0.187947
H5    H     H_    0.908191 0.475827 0.355805 0.164719
H6    H     H_    0.091631 0.524063 0.644523 0.174760
H7    H     H_    0.126017 0.622988 0.389762 0.173716
H8    H     H_    0.873717 0.376947 0.610580 0.172371
H9    H     H_    0.584447 0.738010 0.261227 0.184569
H10   H     H_    0.552214 0.283449 0.727999 0.174918
H11   H     H_    0.634888 0.249625 0.873123 0.177852
H12   H     H_    0.635571 0.797279 0.107583 0.185270
H13   H     H_    0.708534 0.411716 0.124710 0.154369
H14   H     H_    0.637239 0.653549 0.848483 0.201828
N1    N     N_R   0.574200 0.731700 0.552740 -0.161824
N2    N     N_R   0.425800 0.268300 0.447260 -0.166219
O1    O     O_R   0.462600 0.383110 0.605620 -0.630740
O2    O     O_R   0.537400 0.616890 0.394380 -0.633796
O3    O     O_R   0.510210 0.531900 0.639510 -0.565400
O4    O     O_R   0.489790 0.468100 0.360490 -0.552587
O5    O     O_R   0.662240 0.425610 0.483080 -0.614865
O6    O     O_R   0.337760 0.574390 0.516920 -0.606809
O7    O     O_R   0.709860 0.574400 0.516970 -0.573509
O8    O     O_R   0.290140 0.425600 0.483030 -0.573916
Zn1   Zn    Zn3+2 0.468210 0.400660 0.477370 1.012723
Zn2   Zn    Zn3+2 0.531790 0.599340 0.522630 1.011178
Cl1   Cl    Cl    0.252124 0.325716 0.335135 -0.519832
Cl2   Cl    Cl    0.744196 0.672927 0.667031 -0.562806
Cl3   Cl    Cl    0.833636 0.876984 0.705848 -0.475026
Cl4   Cl    Cl    0.164059 0.121749 0.296330 -0.434094
Cl5   Cl    Cl    0.765274 0.187323 0.468289 -0.573542
Cl6   Cl    Cl    0.235424 0.812255 0.533055 -0.563742
N3    N     N_3   0.711346 0.278304 0.026394 -0.437712
H15   H     H_    0.758176 0.281396 0.086362 0.215190
H16   H     H_    0.627466 0.222883 0.036651 0.197182
N4    N     N_3   0.662796 0.790422 0.944329 -0.445630
H17   H     H_    0.586012 0.798729 0.903184 0.209292
H18   H     H_    0.750155 0.810526 0.906344 0.254916
N5    N     N_3   0.496877 0.433712 0.205601 -0.380752
H19   H     H_    0.443507 0.406997 0.153268 0.225638
H20   H     H_    0.564294 0.395641 0.227455 0.198021
N6    N     N_3   0.420241 0.532664 0.804940 -0.453019
H21   H     H_    0.378590 0.536313 0.865639 0.200169
H22   H     H_    0.469102 0.599079 0.775653 0.223140
Cl7   Cl    Cl    0.900240 0.054388 0.578668 -0.400822
Cl8   Cl    Cl    0.098867 0.945236 0.424445 -0.403253

loop_
_geom_bond_atom_site_label_1
_geom_bond_atom_site_label_2
_ccdc_geom_bond_type
C25   C31   A    
C15   Cl3   S    
C13   N3    S    
C26   C32   A    
C34   C37   S    
C23   O7    A    
C35   H1    S    
C24   O8    A    
C32   Cl8   S    
N5    H19   S    
C33   C39   S    
C34   C40   S    
C28   C29   A    
C35   C37   S    
C19   N1    A    
C15   C25   A    
C42   C46   A    
C23   O5    A    
C17   N1    A    
C45   H10   S    
C2    O2    A    
C46   H9    S    
C1    O3    A    
O8    Zn1   S    
C7    C43   A    
C30   C32   A    
C9    C10   A    
C34   C36   S    
C21   C27   A    
C22   C28   A    
C27   C30   A    
C11   H13   S    
C1    O1    A    
C44   C46   A    
N5    H20   S    
C16   C26   A    
C4    C6    A    
C44   H12   S    
N3    H16   S    
C43   H11   S    
C18   N2    A    
C6    C8    A    
C4    N5    S    
C2    O4    A    
C30   Cl6   S    
O7    Zn2   S    
C5    C9    A    
C20   H3    S    
O4    Zn1   S    
O6    Zn2   S    
C24   C37   S    
C16   C18   A    
C43   C45   A    
O1    Zn1   S    
N1    Zn2   S    
C1    C41   S    
N6    H22   S    
C18   Cl1   S    
N4    H18   S    
C17   Cl2   S    
C14   N4    S    
C23   C38   S    
C5    C7    A    
C15   C17   A    
C21   C25   A    
C3    C41   A    
C8    C14   A    
C19   C21   A    
C3    N6    S    
C16   Cl4   S    
C34   H6    S    
C36   C39   S    
C8    C44   A    
C31   Cl7   S    
C20   C22   A    
C3    C5    A    
C6    C10   A    
C33   H5    S    
O3    Zn2   S    
C40   H8    S    
C33   C38   S    
C36   C38   S    
C35   C40   S    
C12   C14   A    
C37   C39   S    
C38   C40   S    
C11   C13   A    
C19   H4    S    
C39   H7    S    
C4    C42   A    
C2    C42   S    
C33   C35   S    
N2    Zn1   S    
C36   H2    S    
O5    Zn1   S    
O2    Zn2   S    
C20   N2    A    
C9    C12   A    
C10   C11   A    
C24   O6    A    
N3    H15   S    
C12   H14   S    
C7    C13   A    
C29   Cl5   S    
N6    H21   S    
C29   C31   A    
N4    H17   S    
C22   C26   A    
C27   C28   A    
C41   C45   A    
