data_mof_unit_56209.cif
_audit_creation_date              2012-10-26T19:48:07-0400
_audit_creation_method            fapswitch 2.2
_symmetry_space_group_name_H-M    P1
_symmetry_Int_Tables_number       1
_space_group_crystal_system       triclinic
_cell_length_a                    10.884262
_cell_length_b                    9.676024
_cell_length_c                    10.813773
_cell_angle_alpha                 88.425503
_cell_angle_beta                  90.71647
_cell_angle_gamma                 89.790845
_cell_volume                      1138.33934928

loop_
_atom_site_label
_atom_site_type_symbol
_atom_type_description
_atom_site_fract_x
_atom_site_fract_y
_atom_site_fract_z
_atom_type_partial_charge
C1    C     C_R   0.260510 0.499902 0.503994 0.628964
C2    C     C_3   0.925729 0.460385 0.370247 0.324766
C3    C     C_3   0.617736 0.080740 0.554959 0.120088
C4    C     C_3   0.611613 0.916344 0.567824 0.128190
C5    C     C_3   0.396856 0.080762 0.578176 0.487711
C6    C     C_3   0.388417 0.914174 0.565213 0.498294
C7    C     C_3   0.491976 0.084970 0.372860 0.440673
C8    C     C_3   0.502115 0.916436 0.373345 0.436375
C9    C     C_R   0.500906 0.502273 0.259865 0.638236
C10   C     C_R   0.738968 0.499907 0.501881 0.636155
C11   C     C_R   0.506479 0.497656 0.739234 0.637036
C12   C     C_3   0.504770 0.507908 0.122424 -0.048472
C13   C     C_3   0.513673 0.633680 0.029572 0.214869
C14   C     C_3   0.406724 0.440702 0.038777 0.199424
C15   C     C_3   0.415893 0.565061 0.948330 0.176701
C16   C     C_3   0.514648 0.491817 0.875120 -0.051729
C17   C     C_3   0.613795 0.558343 0.956974 0.205294
C18   C     C_3   0.507481 0.366722 0.966894 0.217715
C19   C     C_3   0.604741 0.434831 0.048866 0.185504
C20   C     C_3   0.069152 0.642365 0.542902 0.107370
C21   C     C_3   0.069927 0.383427 0.593735 0.118779
C22   C     C_3   0.927398 0.646750 0.531545 0.109570
C23   C     C_3   0.927902 0.394554 0.602413 0.115324
C24   C     C_3   0.071950 0.468177 0.369588 0.326581
C25   C     C_3   0.121408 0.498908 0.503860 -0.064630
C26   C     C_3   0.877191 0.500065 0.501588 -0.010176
Cl1   Cl    Cl    0.855661 0.571470 0.252045 -0.323479
Cl2   Cl    Cl    0.511396 0.185053 0.951081 -0.278497
Cl3   Cl    Cl    0.121616 0.690048 0.694306 -0.371729
Cl4   Cl    Cl    0.146738 0.369618 0.742200 -0.343324
Cl5   Cl    Cl    0.129502 0.597873 0.261559 -0.389070
Cl6   Cl    Cl    0.138138 0.309048 0.317411 -0.339729
Cl7   Cl    Cl    0.871219 0.290539 0.332833 -0.372965
Cl8   Cl    Cl    0.676725 0.162720 0.690533 -0.474523
Cl9   Cl    Cl    0.632559 0.856012 0.724982 -0.342819
Cl10  Cl    Cl    0.613305 0.148887 0.274263 -0.304966
Cl11  Cl    Cl    0.641908 0.854066 0.300106 -0.390892
Cl12  Cl    Cl    0.516772 0.816380 0.035381 -0.298579
Cl13  Cl    Cl    0.263761 0.360820 0.067149 -0.230304
Cl14  Cl    Cl    0.759452 0.625359 0.912984 -0.217005
Cu1   Cu    Cu3+1 0.499860 0.642410 0.500060 1.259539
Cu2   Cu    Cu3+1 0.499860 0.357590 0.500060 1.262459
H1    H     H_    0.694631 0.103994 0.491678 0.181951
H2    H     H_    0.313466 0.076323 0.333647 0.395703
H3    H     H_    0.401847 0.908347 0.222776 0.395378
H4    H     H_    0.223212 0.117476 0.603161 0.343011
H5    H     H_    0.208830 0.903651 0.542455 0.329597
H6    H     H_    0.752656 0.329861 0.028682 0.399582
H7    H     H_    0.886532 0.798080 0.638508 0.365478
H8    H     H_    0.887795 0.348938 0.773896 0.387136
H9    H     H_    0.696713 0.876293 0.526740 0.164718
H10   H     H_    0.103205 0.723324 0.478119 0.173321
H11   H     H_    0.087964 0.282006 0.553302 0.156085
H12   H     H_    0.901931 0.719514 0.453471 0.153419
H13   H     H_    0.889125 0.290421 0.584348 0.158417
H14   H     H_    0.267767 0.670131 0.965986 0.402334
H15   H     H_    0.462563 0.051274 0.747336 0.408726
H16   H     H_    0.304979 0.890276 0.724376 0.362659
N1    N     N_3   0.500250 0.143650 0.502780 -0.252060
N2    N     N_3   0.500250 0.856350 0.502780 -0.241686
O1    O     O_R   0.317570 0.620260 0.500070 -0.416883
O2    O     O_3   0.410316 0.119484 0.702366 -0.571646
O3    O     O_3   0.375431 0.847701 0.681942 -0.559240
O4    O     O_3   0.384456 0.135138 0.312246 -0.535618
O5    O     O_3   0.404416 0.860523 0.304679 -0.563715
O6    O     O_3   0.284257 0.136701 0.537425 -0.619790
O7    O     O_3   0.283005 0.882526 0.494290 -0.612653
O8    O     O_3   0.707254 0.366217 0.099811 -0.484772
O9    O     O_3   0.873761 0.696458 0.639538 -0.506611
O10   O     O_3   0.891659 0.434147 0.720811 -0.508641
O11   O     O_R   0.317570 0.379740 0.500070 -0.410078
O12   O     O_R   0.499850 0.620240 0.316900 -0.428350
O13   O     O_R   0.499850 0.379760 0.316900 -0.401577
O14   O     O_R   0.682190 0.620260 0.500030 -0.482024
O15   O     O_R   0.682190 0.379740 0.500030 -0.482969
O16   O     O_R   0.499910 0.620280 0.683200 -0.389464
O17   O     O_R   0.499910 0.379720 0.683200 -0.419034
O18   O     O_3   0.314495 0.634296 0.895512 -0.513436

loop_
_geom_bond_atom_site_label_1
_geom_bond_atom_site_label_2
_ccdc_geom_bond_type
C7    Cl10  S    
C14   C18   S    
C9    O12   A    
Cu1   O1    S    
C7    C8    S    
C22   H12   S    
H2    O4    S    
C3    H1    S    
Cu2   O15   S    
C1    O11   A    
H4    O6    S    
C11   O16   A    
C5    C6    S    
C15   O18   S    
C20   C25   S    
C15   C16   S    
H14   O18   S    
C18   C19   S    
Cu1   Cu2   S    
C23   C26   S    
C7    N1    S    
C11   O17   A    
Cu1   O14   S    
H3    O5    S    
C16   C17   S    
C2    Cl1   S    
C22   O9    S    
C10   C26   S    
C14   Cl13  S    
C4    Cl9   S    
C8    O5    S    
H7    O9    S    
C1    C25   S    
C23   O10   S    
C9    O13   A    
H5    O7    S    
C20   Cl3   S    
C5    N1    S    
C4    H9    S    
C6    N2    S    
H15   O2    S    
C18   Cl2   S    
C24   C25   S    
C3    Cl8   S    
C17   Cl14  S    
C6    O3    S    
C24   Cl6   S    
C10   O15   A    
C4    N2    S    
C19   O8    S    
C2    C26   S    
H6    O8    S    
C13   Cl12  S    
Cu1   O12   S    
C2    Cl7   S    
C6    O7    S    
C20   C22   S    
C21   C23   S    
C2    C24   S    
C8    Cl11  S    
C3    C4    S    
H16   O3    S    
C21   C25   S    
Cu2   O13   S    
Cu1   N2    S    
C12   C14   S    
C5    O6    S    
C1    O1    A    
Cu2   N1    S    
C23   H13   S    
C21   Cl4   S    
C13   C17   S    
C13   C15   S    
H8    O10   S    
C24   Cl5   S    
C20   H10   S    
C8    N2    S    
Cu1   O16   S    
C21   H11   S    
C10   O14   A    
C12   C19   S    
Cu2   O11   S    
C17   C19   S    
C5    O2    S    
C9    C12   S    
C7    O4    S    
C11   C16   S    
C12   C13   S    
Cu2   O17   S    
C16   C18   S    
C22   C26   S    
C14   C15   S    
C3    N1    S    
