data_mof_unit_37108.cif
_audit_creation_date              2012-12-11T15:15:46-0500
_audit_creation_method            fapswitch 2.2
_symmetry_space_group_name_H-M    P1
_symmetry_Int_Tables_number       1
_space_group_crystal_system       triclinic
_cell_length_a                    20.655032
_cell_length_b                    22.729409
_cell_length_c                    6.934812
_cell_angle_alpha                 90.001835
_cell_angle_beta                  86.83801
_cell_angle_gamma                 90.000096
_cell_volume                      3250.77584102

loop_
_atom_site_label
_atom_site_type_symbol
_atom_type_description
_atom_site_fract_x
_atom_site_fract_y
_atom_site_fract_z
_atom_type_partial_charge
O1    O     O_R   0.387100 0.552640 0.378490 -0.541259
O2    O     O_R   0.612900 0.052640 0.621510 -0.541277
O3    O     O_R   0.249610 0.559600 0.072250 -0.550426
O4    O     O_R   0.750390 0.059600 0.927750 -0.550462
O5    O     O_R   0.249120 0.447360 0.902040 -0.537889
O6    O     O_R   0.750880 0.947360 0.097960 -0.537866
C1    C     C_R   0.226739 0.573122 0.244383 0.709535
C2    C     C_R   0.773268 0.073119 0.755620 0.709545
O7    O     O_R   0.386610 0.559560 0.048860 -0.535119
O8    O     O_R   0.613390 0.059560 0.951140 -0.535094
O9    O     O_R   0.387100 0.447320 0.878470 -0.530231
O10   O     O_R   0.612900 0.947320 0.121530 -0.530227
C3    C     C_R   0.407889 0.574822 0.214197 0.760686
C4    C     C_R   0.592111 0.074823 0.785808 0.760683
O11   O     O_R   0.249120 0.552680 0.402050 -0.545993
O12   O     O_R   0.750880 0.052680 0.597950 -0.545977
O13   O     O_3   0.318110 0.463180 0.223790 -0.363215
O14   O     O_3   0.681890 0.963180 0.776210 -0.363186
V1    V     V_3+5 0.318110 0.506830 0.948930 1.473065
V2    V     V_3+5 0.681890 0.006830 0.051070 1.473098
O15   O     O_R   0.386610 0.440400 0.548840 -0.536047
O16   O     O_R   0.613390 0.940400 0.451160 -0.536050
C5    C     C_R   0.408007 0.425240 0.713860 0.721468
C6    C     C_R   0.591993 0.925241 0.286135 0.721462
O17   O     O_R   0.249610 0.440440 0.572240 -0.537793
O18   O     O_R   0.750390 0.940440 0.427760 -0.537765
C7    C     C_R   0.225859 0.427601 0.744574 0.716602
C8    C     C_R   0.774143 0.927604 0.255423 0.716632
V3    V     V_3+5 0.318110 0.493170 0.448930 1.481423
V4    V     V_3+5 0.681890 0.993170 0.551070 1.481484
O19   O     O_3   0.318110 0.536820 0.723940 -0.381266
O20   O     O_3   0.681890 0.036820 0.276060 -0.381289
C9    C     C_R   0.169056 0.387226 0.759272 -0.119541
C10   C     C_R   0.830955 0.887237 0.240727 -0.119541
C11   C     C_R   0.156146 0.353167 0.596662 -0.121795
C12   C     C_R   0.843852 0.853170 0.403326 -0.121712
C13   C     C_R   0.101140 0.318212 0.594502 -0.195874
C14   C     C_R   0.898859 0.818220 0.405513 -0.195879
C15   C     C_R   0.058188 0.314668 0.756935 0.076431
C16   C     C_R   0.941827 0.814695 0.243117 0.076326
C17   C     C_R   0.070435 0.346697 0.924975 0.347182
C18   C     C_R   0.929614 0.846744 0.075098 0.347285
C19   C     C_R   0.125564 0.384193 0.925507 -0.140258
C20   C     C_R   0.874466 0.884223 0.074522 -0.140185
C21   C     C_R   0.906034 0.176423 0.895017 -0.108986
C22   C     C_R   0.094283 0.676762 0.105149 -0.108926
C23   C     C_R   0.850594 0.141474 0.905864 -0.163054
C24   C     C_R   0.149718 0.641806 0.094402 -0.163428
C25   C     C_R   0.865031 0.121041 0.562750 -0.146863
C26   C     C_R   0.134720 0.620746 0.436908 -0.146623
C27   C     C_R   0.920874 0.155847 0.552455 -0.116495
C28   C     C_R   0.078882 0.655559 0.447101 -0.116617
C29   C     C_R   0.941473 0.183723 0.718545 0.104344
C30   C     C_R   0.058566 0.683758 0.281274 0.104195
C31   C     C_2   0.998677 0.278433 0.748893 -0.084043
C32   C     C_2   0.001346 0.778481 0.251232 -0.083739
C33   C     C_2   0.000881 0.219893 0.709850 -0.157574
C34   C     C_2   0.999145 0.719916 0.289838 -0.157402
C35   C     C_R   0.829603 0.113151 0.740100 -0.041563
C36   C     C_R   0.170421 0.613167 0.259903 -0.041638
H1    H     H_    0.188236 0.354245 0.467801 0.155316
H2    H     H_    0.811747 0.854234 0.532156 0.155421
H3    H     H_    0.824600 0.136237 0.044755 0.123724
H4    H     H_    0.175938 0.636811 0.955789 0.123910
H5    H     H_    0.850382 0.099477 0.432864 0.123005
H6    H     H_    0.149141 0.598919 0.566554 0.123242
H7    H     H_    0.921790 0.197379 0.024743 0.125264
H8    H     H_    0.078744 0.697954 0.975591 0.125583
H9    H     H_    0.091691 0.294072 0.464305 0.146324
H10   H     H_    0.908302 0.794075 0.535706 0.146719
H11   H     H_    0.947998 0.161107 0.415321 0.118316
H12   H     H_    0.051538 0.660568 0.583949 0.118563
C37   C     C_R   0.574539 0.359930 0.622641 -0.043214
C38   C     C_R   0.425446 0.859944 0.377143 -0.043217
H13   H     H_    0.531249 0.445579 0.598088 0.131156
H14   H     H_    0.468734 0.945594 0.401702 0.131134
H15   H     H_    0.665048 0.274151 0.621911 0.142410
H16   H     H_    0.334934 0.774169 0.377770 0.142410
C39   C     C_R   0.461876 0.382139 0.709125 -0.057608
C40   C     C_R   0.538124 0.882141 0.290848 -0.057596
C41   C     C_R   0.474260 0.093612 0.823252 0.335987
C42   C     C_R   0.525744 0.593603 0.176907 0.335976
C43   C     C_R   0.420207 0.130098 0.807466 -0.224348
C44   C     C_R   0.579794 0.630088 0.192754 -0.224339
C45   C     C_R   0.426843 0.189896 0.763058 -0.074089
C46   C     C_R   0.573154 0.689891 0.237102 -0.074095
C47   C     C_R   0.489557 0.216651 0.748001 0.036104
C48   C     C_R   0.510441 0.716651 0.252031 0.036103
C49   C     C_R   0.544647 0.177978 0.747912 -0.005303
C50   C     C_R   0.455350 0.677981 0.252049 -0.005297
C51   C     C_R   0.500362 0.279233 0.723278 0.080370
C52   C     C_R   0.499636 0.779235 0.276697 0.080374
C53   C     C_R   0.563964 0.299637 0.667440 0.088740
C54   C     C_R   0.436026 0.799647 0.332406 0.088744
C55   C     C_R   0.615999 0.259784 0.659576 -0.172288
C56   C     C_R   0.383988 0.759796 0.340204 -0.172318
C57   C     C_R   0.606837 0.200856 0.704950 -0.166178
C58   C     C_R   0.393155 0.700865 0.294885 -0.166196
C59   C     C_R   0.451210 0.322712 0.757741 -0.212280
C60   C     C_R   0.548796 0.822709 0.242296 -0.212283
C61   C     C_R   0.523195 0.399904 0.638240 -0.169391
C62   C     C_R   0.476793 0.899915 0.361606 -0.169391
C63   C     C_R   0.536620 0.116659 0.786538 -0.125655
C64   C     C_R   0.463380 0.616657 0.213487 -0.125646
H17   H     H_    0.404684 0.312161 0.826378 0.124835
H18   H     H_    0.595332 0.812151 0.173741 0.124830
H19   H     H_    0.372065 0.110965 0.822265 0.139915
H20   H     H_    0.627936 0.610952 0.178056 0.139930
H21   H     H_    0.649317 0.172870 0.701190 0.097667
H22   H     H_    0.350674 0.672881 0.298589 0.097640
C65   C     C_1   0.637514 0.382204 0.556659 0.304234
N1    N     N_1   0.687878 0.400076 0.503813 -0.306625
C66   C     C_1   0.362460 0.882227 0.442989 0.304211
N2    N     N_1   0.312088 0.900105 0.495725 -0.306620
O21   O     O_3   0.467224 0.034361 0.864652 -0.647840
H23   H     H_    0.420482 0.025048 0.886348 0.296894
O22   O     O_3   0.532783 0.534348 0.135579 -0.647844
H24   H     H_    0.579527 0.525030 0.113981 0.296907
C67   C     C_1   0.368386 0.218669 0.706956 0.313880
N3    N     N_1   0.321332 0.241209 0.661395 -0.346111
C68   C     C_1   0.631601 0.718667 0.293276 0.313904
N4    N     N_1   0.678648 0.741208 0.338896 -0.346098
C69   C     C_1   0.061818 0.189302 0.672392 0.350311
N5    N     N_1   0.110473 0.164830 0.642490 -0.307639
C70   C     C_1   0.938195 0.689299 0.326726 0.350330
N6    N     N_1   0.889528 0.664807 0.356154 -0.307578
O23   O     O_3   0.027169 0.340184 0.083558 -0.647752
H25   H     H_    0.043427 0.360113 0.197892 0.295894
O24   O     O_3   0.972912 0.840222 0.916578 -0.647842
H26   H     H_    0.957017 0.860653 0.802618 0.296066
C71   C     C_1   0.134553 0.421600 0.091012 0.294426
N7    N     N_1   0.141359 0.451458 0.223562 -0.355409
C72   C     C_1   0.865424 0.921587 0.908955 0.293965
N8    N     N_1   0.858576 0.951413 0.776356 -0.355428
C73   C     C_1   0.937035 0.308371 0.782856 0.409965
N9    N     N_1   0.887887 0.332246 0.809928 -0.308852
C74   C     C_1   0.062982 0.808476 0.217895 0.409321
N10   N     N_1   0.112126 0.832397 0.191318 -0.308933

loop_
_geom_bond_atom_site_label_1
_geom_bond_atom_site_label_2
_ccdc_geom_bond_type
V4    O20   S    
C14   H10   S    
C58   H22   S    
C13   H9    S    
O13   V3    S    
C17   O23   S    
C65   N1    T    
C37   C53   A    
O4    C2    A    
V1    O19   S    
C73   N9    T    
C15   C17   A    
C7    C9    S    
O9    V1    S    
C25   H5    S    
O10   V2    S    
C39   C59   A    
C11   C13   A    
C44   C46   A    
C43   H19   S    
C66   N2    T    
O3    C1    A    
C2    C35   S    
C23   H3    S    
C9    C11   A    
C46   C48   A    
C24   H4    S    
C33   C69   S    
O12   V4    S    
O21   H23   S    
O7    V1    S    
C2    O12   A    
O9    C5    A    
C45   C67   S    
O7    C3    A    
C44   H20   S    
O5    C7    A    
C6    C40   S    
C15   C31   S    
C48   C52   A    
O8    V2    S    
C25   C27   A    
C56   C58   A    
C21   H7    S    
C26   C28   A    
O3    V1    S    
O14   V4    S    
C10   C12   A    
C38   C62   A    
C24   C36   A    
C16   C18   A    
C8    C10   S    
C53   C55   A    
C49   C63   A    
O17   V3    S    
C17   C19   A    
C22   C30   A    
C18   C20   A    
C12   H2    S    
O1    V3    S    
C41   C43   A    
C27   H11   S    
C28   C30   A    
O11   V3    S    
C21   C23   A    
H14   C62   S    
C59   H17   S    
C22   C24   A    
C23   C35   A    
C47   C51   A    
C45   C47   A    
C9    C19   A    
C69   N5    T    
C37   C65   S    
C10   C20   A    
O8    C4    A    
H16   C56   S    
C29   C33   S    
C16   C32   S    
C38   C66   S    
O15   V3    S    
H15   C55   S    
C40   C62   A    
C27   C29   A    
C41   C63   A    
C22   H8    S    
C28   H12   S    
C51   C53   A    
C57   H21   S    
C41   O21   S    
C46   C68   S    
C52   C54   A    
C11   H1    S    
C3    C64   S    
C54   C56   A    
C26   H6    S    
C50   C64   A    
C68   N4    T    
C19   C71   S    
C43   C45   A    
C48   C50   A    
O18   V4    S    
C42   C44   A    
C31   C33   D    
C70   N6    T    
C30   C34   S    
O16   C6    A    
O1    C3    A    
C71   N7    T    
C1    C36   S    
C52   C60   A    
O24   H26   S    
V2    O20   S    
C20   C72   S    
C37   C61   A    
O16   V4    S    
O18   C8    A    
C67   N3    T    
C55   C57   A    
O5    V1    S    
O17   C7    A    
O6    V2    S    
C74   N10   T    
O10   C6    A    
C60   H18   S    
C25   C35   A    
O2    V4    S    
C26   C36   A    
O15   C5    A    
V3    O19   S    
C51   C59   A    
O22   H24   S    
C12   C14   A    
C14   C16   A    
C32   C74   S    
C4    C63   S    
C72   N8    T    
C31   C73   S    
C1    O11   A    
O13   V1    S    
C32   C34   D    
C18   O24   S    
O14   V2    S    
O2    C4    A    
C21   C29   A    
O4    V2    S    
O6    C8    A    
C34   C70   S    
C13   C15   A    
C49   C57   A    
C38   C54   A    
H13   C61   S    
C47   C49   A    
C42   C64   A    
C39   C61   A    
C42   O22   S    
C5    C39   S    
C50   C58   A    
C40   C60   A    
O23   H25   S    
