data_mof_unit_21256.cif
_audit_creation_date              2012-10-26T20:32:27-0400
_audit_creation_method            fapswitch 2.2
_symmetry_space_group_name_H-M    P1
_symmetry_Int_Tables_number       1
_space_group_crystal_system       triclinic
_cell_length_a                    19.303077
_cell_length_b                    11.030044
_cell_length_c                    9.584441
_cell_angle_alpha                 90.068543
_cell_angle_beta                  89.965927
_cell_angle_gamma                 93.645032
_cell_volume                      2036.52980055

loop_
_atom_site_label
_atom_site_type_symbol
_atom_type_description
_atom_site_fract_x
_atom_site_fract_y
_atom_site_fract_z
_atom_type_partial_charge
C1    C     C_R   0.497688 0.263133 0.500057 0.526394
C2    C     C_R   0.850072 0.452359 0.472171 -0.029740
C3    C     C_R   0.493171 0.062350 0.618712 -0.018377
C4    C     C_R   0.367121 0.503991 0.500116 0.595750
C5    C     C_R   0.494437 0.131369 0.498474 -0.027249
C6    C     C_R   0.494229 0.068133 0.371727 -0.088467
C7    C     C_R   0.491317 0.939783 0.366599 0.017974
C8    C     C_R   0.497839 0.871789 0.493749 -0.006263
C9    C     C_R   0.501501 0.940891 0.616253 -0.028055
C10   C     C_3   0.508955 0.934970 0.771895 0.019981
C11   C     C_3   0.492217 0.072082 0.774428 0.042453
C12   C     C_R   0.289984 0.512807 0.499317 0.009680
C13   C     C_R   0.558925 0.536864 0.074191 0.176081
C14   C     C_R   0.443570 0.455032 0.072411 0.243291
C15   C     C_R   0.443752 0.457578 0.924567 0.019903
C16   C     C_R   0.499599 0.737939 0.498913 0.566500
C17   C     C_R   0.560039 0.527865 0.926236 0.166935
C18   C     C_3   0.602738 0.641998 0.907528 -0.019482
C19   C     C_3   0.590835 0.665434 0.062377 -0.107571
C20   C     C_R   0.630645 0.480046 0.499318 0.566481
C21   C     C_R   0.249016 0.469070 0.613878 0.118406
C22   C     C_R   0.175897 0.468647 0.608112 0.120990
C23   C     C_R   0.926704 0.472743 0.470485 0.330944
C24   C     C_R   0.143465 0.508779 0.486685 0.048635
C25   C     C_R   0.183316 0.555967 0.374137 0.067835
C26   C     C_R   0.256506 0.563788 0.382973 -0.020645
C27   C     C_3   0.288396 0.292563 0.729726 -0.262969
C28   C     C_2   0.478040 0.885472 0.226706 0.236757
C29   C     C_2   0.456583 0.843213 0.837109 0.319788
C30   C     C_2   0.583398 0.917708 0.811119 0.132524
C31   C     C_2   0.420727 0.094640 0.830108 0.290895
C32   C     C_2   0.549080 0.161007 0.829076 0.289233
C33   C     C_3   0.379381 0.277920 0.167536 -0.263692
C34   C     C_R   0.067193 0.501259 0.477776 0.384026
C35   C     C_3   0.714515 0.713333 0.802392 -0.263739
C36   C     C_2   0.655181 0.703507 0.144140 0.262357
C37   C     C_3   0.098170 0.305457 0.706572 -0.277005
C38   C     C_3   0.131008 0.725815 0.265632 -0.267092
C39   C     C_2   0.296459 0.638025 0.277980 0.255923
C40   C     C_2   0.713730 0.386955 0.748668 0.245551
C41   C     C_2   0.695161 0.370920 0.242256 0.308761
C42   C     C_2   0.841732 0.442825 0.209339 0.246839
C43   C     C_R   0.817304 0.440355 0.602447 -0.102291
C44   C     C_R   0.744842 0.429885 0.614400 -0.024677
C45   C     C_R   0.704271 0.443964 0.493391 -0.021735
C46   C     C_R   0.736215 0.424078 0.362038 0.047749
C47   C     C_R   0.809265 0.439568 0.349679 -0.010866
Cu1   Cu    Cu3+1 0.500000 0.499980 0.640670 0.980639
Cu2   Cu    Cu3+1 0.500000 0.500020 0.359330 1.055881
H1    H     H_    0.398293 0.424015 0.868592 0.146656
H2    H     H_    0.453755 0.795618 0.212615 0.178058
H3    H     H_    0.470012 0.792773 0.928582 0.114037
H4    H     H_    0.620950 0.899071 0.731004 0.090698
H5    H     H_    0.414764 0.125835 0.936141 0.129253
H6    H     H_    0.598025 0.172179 0.773431 0.100482
H7    H     H_    0.337199 0.435215 0.097652 0.205695
H8    H     H_    0.338822 0.230593 0.101431 0.105291
H9    H     H_    0.365664 0.261476 0.278655 0.160303
H10   H     H_    0.429683 0.238517 0.145551 0.180517
H11   H     H_    0.700369 0.569635 0.943627 0.320305
H12   H     H_    0.577504 0.699176 0.831999 0.161330
H13   H     H_    0.767209 0.683061 0.780410 0.175960
H14   H     H_    0.719460 0.795062 0.870270 0.174496
H15   H     H_    0.690388 0.735259 0.701192 0.148492
H16   H     H_    0.675290 0.797480 0.139238 0.161345
H17   H     H_    0.151280 0.444608 0.822205 0.255564
H18   H     H_    0.117343 0.241435 0.784829 0.132538
H19   H     H_    0.105552 0.267086 0.600606 0.150509
H20   H     H_    0.041847 0.313566 0.724391 0.184688
H21   H     H_    0.170302 0.579824 0.160193 0.240011
H22   H     H_    0.100349 0.749704 0.172784 0.161537
H23   H     H_    0.550863 0.731087 0.079536 0.106783
H24   H     H_    0.178788 0.787384 0.270341 0.157726
H25   H     H_    0.099055 0.739190 0.360190 0.174366
H26   H     H_    0.284686 0.629597 0.167729 0.091140
H27   H     H_    0.658711 0.363797 0.757780 0.152348
H28   H     H_    0.710695 0.390081 0.135510 0.186364
H29   H     H_    0.879614 0.378573 0.181379 0.144445
H30   H     H_    0.848851 0.436184 0.695646 0.194006
H31   H     H_    0.494354 0.118942 0.275517 0.202554
H32   H     H_    0.264083 0.452964 0.828024 0.238427
H33   H     H_    0.237224 0.242551 0.715978 0.161384
H34   H     H_    0.310902 0.263542 0.829758 0.152524
H35   H     H_    0.323197 0.269488 0.642593 0.188171
N1    N     N_R   0.028558 0.548015 0.580534 -0.195572
N2    N     N_2   0.134288 0.423955 0.722677 -0.501778
N3    N     N_2   0.148785 0.600700 0.254955 -0.506754
N4    N     N_R   0.959627 0.534017 0.576878 -0.222542
N5    N     N_R   0.965654 0.426550 0.367753 -0.245613
N6    N     N_R   0.034580 0.440707 0.370974 -0.200433
N7    N     N_R   0.500440 0.500930 0.147930 -0.222038
N8    N     N_R   0.500440 0.500890 0.852020 -0.274048
N9    N     N_2   0.281373 0.422004 0.733581 -0.519275
N10   N     N_2   0.382559 0.407129 0.140249 -0.481505
N11   N     N_2   0.673511 0.616781 0.870705 -0.499786
O1    O     O_R   0.500000 0.319640 0.618810 -0.520985
O2    O     O_2   0.398780 0.823308 0.787000 -0.446901
O3    O     O_2   0.602728 0.929518 0.931866 -0.485709
O4    O     O_2   0.368829 0.071153 0.759825 -0.506186
O5    O     O_2   0.541641 0.218155 0.936675 -0.492207
O6    O     O_2   0.685751 0.631990 0.213694 -0.501007
O7    O     O_2   0.341038 0.714419 0.315469 -0.510416
O8    O     O_2   0.749992 0.371756 0.850800 -0.509110
O9    O     O_2   0.645072 0.299737 0.262206 -0.476509
O10   O     O_2   0.825727 0.517636 0.123312 -0.462261
O11   O     O_R   0.500010 0.319680 0.381230 -0.480747
O12   O     O_R   0.400140 0.499970 0.618830 -0.472563
O13   O     O_R   0.400150 0.500010 0.381250 -0.460603
O14   O     O_R   0.499990 0.680320 0.618770 -0.505071
O15   O     O_R   0.500000 0.680360 0.381190 -0.520137
O16   O     O_R   0.599850 0.499990 0.618750 -0.521859
O17   O     O_R   0.599860 0.500030 0.381170 -0.424500
O18   O     O_2   0.491567 0.945001 0.121868 -0.517126

loop_
_geom_bond_atom_site_label_1
_geom_bond_atom_site_label_2
_ccdc_geom_bond_type
C33   H9    S    
C37   H20   S    
C33   N10   S    
C16   O15   A    
C7    C8    A    
C45   C46   A    
H7    N10   S    
C4    O13   A    
C1    C5    S    
C27   H35   S    
C19   C36   S    
C41   H28   S    
C5    C6    A    
C28   H2    S    
C26   C39   S    
Cu1   O12   S    
C43   H30   S    
C37   H19   S    
C25   N3    S    
C18   C19   S    
C15   H1    S    
C15   N8    A    
C38   H22   S    
C8    C9    A    
C41   C46   S    
C23   N5    A    
C35   H15   S    
C39   H26   S    
C4    C12   S    
C9    C10   S    
C32   H6    S    
C20   C45   S    
C1    O11   A    
Cu1   O14   S    
C11   C31   S    
C8    C16   S    
C20   O17   A    
C21   C22   A    
C13   N7    A    
C18   N11   S    
C19   H23   S    
C17   N8    A    
Cu2   N7    S    
H21   N3    S    
C4    O12   A    
C16   O14   A    
Cu2   O13   S    
C29   H3    S    
C30   H4    S    
C13   C19   S    
C37   N2    S    
C24   C25   A    
C10   C11   S    
C36   H16   S    
C25   C26   A    
C12   C21   A    
C24   C34   S    
C7    C28   S    
C32   O5    D    
C12   C26   A    
C36   O6    D    
C34   N1    A    
C43   C44   A    
C34   N6    A    
C3    C9    A    
C20   O16   A    
H32   N9    S    
C10   C30   S    
C6    H31   S    
C2    C43   A    
C17   C18   S    
Cu2   O11   S    
Cu2   O17   S    
Cu1   Cu2   S    
C11   C32   S    
C42   H29   S    
C31   O4    D    
C23   N4    A    
C22   C24   A    
C27   N9    S    
C44   C45   A    
C39   O7    D    
C38   H25   S    
N1    N4    A    
C46   C47   A    
C33   H8    S    
Cu1   O1    S    
C27   H33   S    
C3    C5    A    
H17   N2    S    
C18   H12   S    
C6    C7    A    
C35   N11   S    
C2    C47   A    
C30   O3    D    
C41   O9    D    
C29   O2    D    
C38   N3    S    
C27   H34   S    
C40   O8    D    
C10   C29   S    
C21   N9    S    
C1    O1    A    
C37   H18   S    
C35   H13   S    
C42   C47   S    
C22   N2    S    
C31   H5    S    
C42   O10   D    
C14   N7    A    
C3    C11   S    
C28   O18   D    
C13   C17   A    
H11   N11   S    
C40   H27   S    
C40   C44   S    
Cu1   O16   S    
C33   H10   S    
Cu1   N8    S    
C2    C23   S    
C14   C15   A    
C35   H14   S    
N5    N6    A    
C14   N10   S    
Cu2   O15   S    
C38   H24   S    
