data_mof_unit_26177.cif
_audit_creation_date              2012-10-26T18:27:28-0400
_audit_creation_method            fapswitch 2.2
_symmetry_space_group_name_H-M    P1
_symmetry_Int_Tables_number       1
_space_group_crystal_system       triclinic
_cell_length_a                    10.773847
_cell_length_b                    11.039106
_cell_length_c                    9.848594
_cell_angle_alpha                 111.170558
_cell_angle_beta                  98.317311
_cell_angle_gamma                 90.867693
_cell_volume                      1077.90113185

loop_
_atom_site_label
_atom_site_type_symbol
_atom_type_description
_atom_site_fract_x
_atom_site_fract_y
_atom_site_fract_z
_atom_type_partial_charge
C1    C     C_R   0.490712 0.254140 0.440654 0.562752
C2    C     C_2   0.496332 0.930429 0.483607 -0.155162
C3    C     C_2   0.508888 0.509991 0.079160 0.037606
C4    C     C_R   0.262871 0.503855 0.501983 0.539088
C5    C     C_2   0.488062 0.489808 0.916915 0.001694
C6    C     C_R   0.508877 0.745862 0.559374 0.535387
C7    C     C_R   0.737454 0.504712 0.500080 0.534380
C8    C     C_R   0.159600 0.731391 0.702550 -0.099446
C9    C     C_R   0.108684 0.838787 0.797097 -0.111695
C10   C     C_R   0.979326 0.839803 0.794737 -0.115891
C11   C     C_R   0.900061 0.733435 0.697803 -0.103215
C12   C     C_R   0.081214 0.621481 0.604822 0.027006
C13   C     C_R   0.949672 0.622519 0.602373 0.027988
C14   C     C_R   0.129679 0.512198 0.505302 0.006709
C15   C     C_R   0.049591 0.409729 0.401541 -0.137710
C16   C     C_R   0.921332 0.410696 0.399242 -0.146288
C17   C     C_R   0.871338 0.514182 0.500687 0.004130
C18   C     C_2   0.485301 0.114743 0.407298 -0.125232
C19   C     C_2   0.500827 0.069590 0.516617 -0.154046
C20   C     C_2   0.513284 0.885250 0.592850 -0.130452
Cu1   Cu    Cu3+1 0.521920 0.521810 0.644910 0.935489
Cu2   Cu    Cu3+1 0.478080 0.478190 0.355090 1.007322
H1    H     H_    0.086960 0.327239 0.323625 0.143703
H2    H     H_    0.860903 0.328575 0.320454 0.130670
H3    H     H_    0.479259 0.864549 0.368746 0.157884
H4    H     H_    0.517338 0.135478 0.631486 0.168262
H5    H     H_    0.530409 0.951396 0.707527 0.112180
H6    H     H_    0.468693 0.048561 0.292629 0.109675
H7    H     H_    0.414978 0.419475 0.841498 0.189174
H8    H     H_    0.581453 0.583234 0.151684 0.112849
H9    H     H_    0.624994 0.620754 0.934751 0.203563
H10   H     H_    0.260199 0.736922 0.705336 0.141808
H11   H     H_    0.169762 0.922293 0.871193 0.137275
H12   H     H_    0.940048 0.924099 0.866989 0.121559
H13   H     H_    0.799986 0.740528 0.696600 0.133940
I1    I     I_    0.304668 0.300366 0.010473 -0.343641
N1    N     N_2   0.445130 0.445430 0.137370 -0.144599
N2    N     N_2   0.554930 0.554500 0.862630 -0.365318
O1    O     O_R   0.511700 0.332330 0.577400 -0.495899
O2    O     O_R   0.474680 0.295500 0.332650 -0.466618
O3    O     O_R   0.338160 0.518420 0.622400 -0.506089
O4    O     O_R   0.301140 0.481590 0.377650 -0.464684
O5    O     O_R   0.525320 0.704500 0.667350 -0.508975
O6    O     O_R   0.488300 0.667670 0.422600 -0.505598
O7    O     O_R   0.698860 0.518410 0.622350 -0.493546
O8    O     O_R   0.661840 0.481580 0.377600 -0.507988

loop_
_geom_bond_atom_site_label_1
_geom_bond_atom_site_label_2
_ccdc_geom_bond_type
C3    H8    S    
C20   H5    S    
C6    C20   S    
C9    C10   A    
C5    H7    S    
Cu1   O1    S    
H9    N2    S    
C13   C17   A    
C8    C12   A    
Cu2   O2    S    
C11   H13   S    
C10   H12   S    
C6    O6    A    
Cu1   Cu2   S    
C9    H11   S    
C11   C13   A    
C1    C18   S    
Cu2   O4    S    
C4    O4    A    
Cu1   O3    S    
C7    O7    A    
C15   H1    S    
I1    N1    S    
Cu2   O8    S    
C12   C14   A    
C2    H3    S    
Cu1   O7    S    
C6    O5    A    
C4    C14   S    
Cu2   O6    S    
C4    O3    A    
C1    O1    A    
C2    C20   D    
C15   C16   A    
C8    H10   S    
C7    O8    A    
C18   H6    S    
C12   C13   A    
C3    N1    D    
C16   H2    S    
C18   C19   D    
C10   C11   A    
C19   H4    S    
C14   C15   A    
C8    C9    A    
C1    O2    A    
C3    C5    S    
C2    C19   S    
C5    N2    D    
Cu2   N1    S    
Cu1   O5    S    
Cu1   N2    S    
C16   C17   A    
C7    C17   S    
