data_mof_unit_36384.cif
_audit_creation_date              2012-12-10T20:27:14-0500
_audit_creation_method            fapswitch 2.2
_symmetry_space_group_name_H-M    P1
_symmetry_Int_Tables_number       1
_space_group_crystal_system       triclinic
_cell_length_a                    10.586496
_cell_length_b                    10.68584
_cell_length_c                    9.868118
_cell_angle_alpha                 89.81296
_cell_angle_beta                  102.618792
_cell_angle_gamma                 90.846915
_cell_volume                      1089.25285169

loop_
_atom_site_label
_atom_site_type_symbol
_atom_type_description
_atom_site_fract_x
_atom_site_fract_y
_atom_site_fract_z
_atom_type_partial_charge
C1    C     C_R   0.495668 0.260038 0.499468 0.904131
C2    C     C_R   0.578367 0.578993 0.089573 0.690926
C3    C     C_R   0.579011 0.578309 0.946141 -0.193220
C4    C     C_R   0.257872 0.504504 0.443590 0.804327
C5    C     C_R   0.426089 0.414976 0.911391 0.170870
C6    C     C_3   0.282302 0.402868 0.871170 -0.443483
C7    C     C_3   0.282570 0.400379 0.025526 -0.241591
C8    C     C_R   0.492108 0.739723 0.497840 0.930944
C9    C     C_R   0.741925 0.506813 0.556594 0.891465
C10   C     C_2   0.120596 0.529784 0.416919 0.572612
C11   C     C_2   0.075240 0.586068 0.517397 -0.285851
C12   C     C_R   0.473564 0.128793 0.496816 -0.098292
C13   C     C_2   0.881162 0.524413 0.586194 0.402556
C14   C     C_2   0.938045 0.600175 0.506820 -0.177878
C15   C     C_R   0.487394 0.063332 0.620821 0.126255
C16   C     C_2   0.871527 0.700722 0.414651 1.037942
C17   C     C_2   0.238282 0.277432 0.075725 1.003610
C18   C     C_2   0.367717 0.874764 0.232157 0.987046
C19   C     C_2   0.727146 0.889253 0.724256 1.006689
C20   C     C_R   0.430498 0.066462 0.370213 -0.232498
C21   C     C_R   0.422274 0.936373 0.367207 -0.057641
C22   C     C_R   0.469145 0.870980 0.493255 -0.178719
C23   C     C_R   0.492399 0.936300 0.618599 0.048419
C24   C     C_3   0.598179 0.931918 0.747930 -0.246424
C25   C     C_3   0.588044 0.074002 0.753003 -0.468767
C26   C     C_R   0.426883 0.413873 0.054462 0.021775
F1    F     F_    0.653720 0.662900 0.173498 -0.628112
F2    F     F_    0.953853 0.450224 0.684993 -0.647729
F3    F     F_    0.041682 0.497676 0.293329 -0.587094
H1    H     H_    0.675469 0.127894 0.740320 0.233526
H2    H     H_    0.728555 0.826975 0.375412 0.387012
H3    H     H_    0.134679 0.189852 0.197583 0.347989
H4    H     H_    0.355800 0.871829 0.025295 0.345735
H5    H     H_    0.873698 0.767603 0.774947 0.351726
H6    H     H_    0.640813 0.643300 0.906156 0.224343
H7    H     H_    0.236599 0.488109 0.818535 0.222795
H8    H     H_    0.250684 0.314309 0.814113 0.239316
H9    H     H_    0.235436 0.482983 0.060560 0.214664
H10   H     H_    0.138444 0.613455 0.615354 0.154574
H11   H     H_    0.406283 0.118620 0.274265 0.217336
H12   H     H_    0.566618 0.883292 0.834990 0.177890
H13   H     H_    0.545908 0.106643 0.840267 0.226985
N1    N     N_R   0.499160 0.499140 0.142600 -0.167380
N2    N     N_R   0.499160 0.499180 0.856960 -0.141714
O1    O     O_R   0.500020 0.316790 0.614700 -0.607218
O2    O     O_R   0.760862 0.755666 0.441385 -0.799275
O3    O     O_2   0.272484 0.178358 0.034327 -0.618281
O4    O     O_R   0.157299 0.277483 0.170083 -0.737062
O5    O     O_2   0.292010 0.786326 0.226107 -0.606959
O6    O     O_R   0.399332 0.921062 0.110879 -0.760799
O7    O     O_2   0.778474 0.943446 0.640503 -0.598083
O8    O     O_R   0.788439 0.788202 0.800005 -0.783428
O9    O     O_R   0.500000 0.316760 0.385350 -0.617480
O10   O     O_R   0.317820 0.500020 0.571850 -0.662082
O11   O     O_R   0.317800 0.499980 0.342510 -0.566002
O12   O     O_R   0.500000 0.683240 0.614650 -0.632933
O13   O     O_R   0.499980 0.683210 0.385300 -0.548833
O14   O     O_R   0.682200 0.500020 0.657490 -0.568167
O15   O     O_R   0.682180 0.499980 0.428150 -0.586416
O16   O     O_2   0.918084 0.740463 0.319565 -0.501169
Zn1   Zn    Zn3+2 0.500010 0.500020 0.653140 0.984868
Zn2   Zn    Zn3+2 0.499990 0.499980 0.346860 1.062256

loop_
_geom_bond_atom_site_label_1
_geom_bond_atom_site_label_2
_ccdc_geom_bond_type
C25   H13   S    
N1    Zn2   S    
C8    C22   S    
C23   C24   S    
C17   O4    S    
C13   F2    S    
C6    C7    S    
O10   Zn1   S    
N2    Zn1   S    
C18   C21   S    
O9    Zn2   S    
H5    O8    S    
C12   C15   A    
C3    H6    S    
C2    N1    A    
C21   C22   A    
C12   C20   A    
O14   Zn1   S    
C15   C23   A    
C2    C3    A    
C6    H8    S    
O13   Zn2   S    
C13   C14   D    
C24   C25   S    
C11   H10   S    
C24   H12   S    
H3    O4    S    
C10   F3    S    
C1    O1    A    
C2    F1    S    
C1    C12   S    
C7    C26   S    
O1    Zn1   S    
C7    H9    S    
C6    H7    S    
C26   N1    A    
C19   C24   S    
C4    O11   A    
C5    C6    S    
C20   H11   S    
C11   C14   S    
C14   C16   S    
C3    N2    A    
C15   C25   S    
C10   C11   D    
C4    C10   S    
C5    C26   A    
O11   Zn2   S    
C19   O7    D    
C9    C13   S    
C20   C21   A    
C18   O6    S    
C9    O14   A    
C16   O16   D    
C16   O2    S    
C25   H1    S    
C8    O12   A    
O12   Zn1   S    
O15   Zn2   S    
C1    O9    A    
C4    O10   A    
H4    O6    S    
C22   C23   A    
C19   O8    S    
C5    N2    A    
C8    O13   A    
C17   O3    D    
C18   O5    D    
C9    O15   A    
H2    O2    S    
C7    C17   S    
