data_mof_unit_51762.cif
_audit_creation_date              2012-12-11T17:02:13-0500
_audit_creation_method            fapswitch 2.2
_symmetry_space_group_name_H-M    P1
_symmetry_Int_Tables_number       1
_space_group_crystal_system       triclinic
_cell_length_a                    21.641944
_cell_length_b                    7.049681
_cell_length_c                    15.059523
_cell_angle_alpha                 90.000329
_cell_angle_beta                  107.487047
_cell_angle_gamma                 90.000276
_cell_volume                      2191.4289598

loop_
_atom_site_label
_atom_site_type_symbol
_atom_type_description
_atom_site_fract_x
_atom_site_fract_y
_atom_site_fract_z
_atom_type_partial_charge
O1    O     O_R   0.585850 0.505770 0.002130 -0.535025
O2    O     O_R   0.414150 0.005770 0.997870 -0.535023
O3    O     O_R   0.467530 0.173560 0.861970 -0.547930
O4    O     O_R   0.532470 0.673560 0.138030 -0.547922
C1    C     C_R   0.455574 0.344560 0.825591 0.743940
C2    C     C_R   0.544428 0.844561 0.174408 0.743979
O5    O     O_R   0.588690 0.175900 0.993250 -0.545390
O6    O     O_R   0.411310 0.675900 0.006750 -0.545375
O7    O     O_R   0.536170 0.007950 0.130090 -0.540729
O8    O     O_R   0.463830 0.507950 0.869910 -0.540728
C3    C     C_R   0.615916 0.343853 0.002705 0.732746
C4    C     C_R   0.384084 0.843852 0.997296 0.732767
O9    O     O_3   0.482630 0.339970 0.044740 -0.378426
O10   O     O_3   0.517370 0.839970 0.955260 -0.378432
V1    V     V_3+5 0.503220 0.064200 0.991700 1.415648
V2    V     V_3+5 0.496780 0.564200 0.008300 1.415667
C5    C     C_R   0.293225 0.989714 0.041125 0.020397
C6    C     C_R   0.706776 0.489712 0.958876 0.020430
C7    C     C_R   0.314428 0.850907 0.991315 -0.278931
C8    C     C_R   0.685573 0.350909 0.008686 -0.278923
C9    C     C_R   0.267439 0.720121 0.938017 0.318188
C10   C     C_R   0.732561 0.220127 0.061986 0.318188
C11   C     C_R   0.201639 0.734801 0.936071 0.335271
C12   C     C_R   0.798361 0.234806 0.063932 0.335276
C13   C     C_R   0.181389 0.880358 0.987233 -0.316126
C14   C     C_R   0.818611 0.380357 0.012768 -0.316135
C15   C     C_R   0.228922 0.004647 0.039981 0.034777
C16   C     C_R   0.771079 0.504645 0.960020 0.034776
C17   C     C_3   0.232096 0.217526 0.037250 0.116107
C18   C     C_3   0.767905 0.717524 0.962752 0.116106
C19   C     C_3   0.302472 0.198101 0.038869 -0.323891
C20   C     C_3   0.697530 0.698100 0.961133 -0.323904
H1    H     H_    0.199234 0.281331 0.972725 0.165735
H2    H     H_    0.800768 0.781329 0.027279 0.165731
H3    H     H_    0.338859 0.248124 0.103760 0.186249
H4    H     H_    0.661143 0.748122 0.896241 0.186252
H5    H     H_    0.310974 0.246713 0.973305 0.173577
H6    H     H_    0.689028 0.746715 0.026696 0.173572
C21   C     C_R   0.930740 0.876861 0.722783 -0.053768
C22   C     C_R   0.069259 0.376866 0.277218 -0.053777
C23   C     C_R   0.573479 0.851167 0.275176 -0.068899
C24   C     C_R   0.426523 0.351158 0.724822 -0.068868
C25   C     C_R   0.944474 0.785339 0.574890 -0.140766
C26   C     C_R   0.055523 0.285369 0.425113 -0.140761
C27   C     C_R   0.970248 0.812081 0.670830 -0.270261
C28   C     C_R   0.029749 0.312105 0.329173 -0.270263
C29   C     C_R   0.864898 0.910030 0.678619 0.301084
C30   C     C_R   0.135102 0.410023 0.321381 0.301082
C31   C     C_R   0.836099 0.845126 0.585712 -0.076849
C32   C     C_R   0.163900 0.345122 0.414289 -0.076848
C33   C     C_R   0.877343 0.803252 0.531001 0.080080
C34   C     C_R   0.122656 0.303266 0.469000 0.080080
C35   C     C_R   0.767892 0.821647 0.545918 -0.073695
C36   C     C_R   0.232107 0.321632 0.454082 -0.073697
C37   C     C_R   0.740774 0.818066 0.447497 0.003423
C38   C     C_R   0.259225 0.318058 0.552504 0.003422
C39   C     C_R   0.783334 0.794292 0.393147 -0.218207
C40   C     C_R   0.216666 0.294295 0.606853 -0.218215
C41   C     C_R   0.850470 0.777980 0.434176 0.279363
C42   C     C_R   0.149529 0.277995 0.565825 0.279343
C43   C     C_R   0.726121 0.787829 0.601257 0.353907
C44   C     C_R   0.273876 0.287797 0.398742 0.353920
C45   C     C_R   0.659643 0.809064 0.563035 -0.203280
C46   C     C_R   0.340354 0.309017 0.436963 -0.203290
C47   C     C_R   0.632203 0.834960 0.467622 0.025771
C48   C     C_R   0.367796 0.334921 0.532376 0.025776
C49   C     C_R   0.671954 0.830941 0.407819 0.105020
C50   C     C_R   0.328046 0.330927 0.592180 0.105017
C51   C     C_R   0.564696 0.853196 0.431262 -0.218353
C52   C     C_R   0.435303 0.353140 0.568734 -0.218392
C53   C     C_R   0.534896 0.860192 0.335142 0.281488
C54   C     C_R   0.465106 0.360146 0.664853 0.281510
C55   C     C_R   0.641010 0.840104 0.310982 -0.272255
C56   C     C_R   0.358992 0.340108 0.689017 -0.272255
H7    H     H_    0.667856 0.838882 0.261169 0.124004
H8    H     H_    0.332146 0.338910 0.738830 0.124005
H9    H     H_    0.628934 0.793313 0.607774 0.139704
H10   H     H_    0.371063 0.293251 0.392225 0.139703
H11   H     H_    0.977001 0.745258 0.535819 0.161608
H12   H     H_    0.022996 0.245306 0.464185 0.161615
H13   H     H_    0.021372 0.787039 0.704217 0.123703
H14   H     H_    0.978625 0.287074 0.295786 0.123710
H15   H     H_    0.765854 0.779567 0.318553 0.141711
H16   H     H_    0.234146 0.279572 0.681447 0.141717
H17   H     H_    0.534800 0.857333 0.477560 0.117191
H18   H     H_    0.465197 0.357252 0.522434 0.117190
O11   O     O_R   0.036080 0.231270 0.130120 -0.552819
O12   O     O_R   0.963920 0.731270 0.869880 -0.552821
O13   O     O_R   0.911300 0.558970 0.006750 -0.545164
O14   O     O_R   0.088700 0.058970 0.993250 -0.545165
C57   C     C_R   0.885692 0.390085 0.005837 0.704025
C58   C     C_R   0.114308 0.890085 0.994164 0.704023
O15   O     O_R   0.032450 0.561140 0.138040 -0.528938
O16   O     O_R   0.967550 0.061140 0.861960 -0.528934
O17   O     O_R   0.085870 0.728910 0.002130 -0.531828
O18   O     O_R   0.914130 0.228910 0.997870 -0.531830
C59   C     C_R   0.043385 0.391619 0.175361 0.730095
C60   C     C_R   0.956614 0.891618 0.824639 0.730096
O19   O     O_3   0.017320 0.394650 0.955270 -0.372508
O20   O     O_3   0.982680 0.894650 0.044730 -0.372510
V3    V     V_3+5 0.996780 0.670490 0.008300 1.453651
V4    V     V_3+5 0.003220 0.170490 0.991700 1.453655
O21   O     O_3   0.282254 0.583364 0.881898 -0.638844
H19   H     H_    0.322177 0.620010 0.867180 0.278251
O22   O     O_3   0.717745 0.083374 0.118106 -0.638840
H20   H     H_    0.677822 0.120018 0.132822 0.278253
O23   O     O_3   0.831071 0.013461 0.726210 -0.651877
H21   H     H_    0.795342 0.080535 0.680003 0.292137
O24   O     O_3   0.168931 0.513441 0.273790 -0.651878
H22   H     H_    0.204662 0.580515 0.319997 0.292136
O25   O     O_3   0.747615 0.714273 0.689895 -0.624011
H23   H     H_    0.787799 0.641191 0.696033 0.297158
O26   O     O_3   0.252380 0.214239 0.310104 -0.624009
H24   H     H_    0.212194 0.141165 0.303966 0.297154
O27   O     O_3   0.158374 0.609766 0.879053 -0.634729
H25   H     H_    0.114574 0.666753 0.860371 0.273245
O28   O     O_3   0.841626 0.109776 0.120952 -0.634723
H26   H     H_    0.885426 0.166759 0.139629 0.273245
N1    N     N_2   0.226041 0.301263 0.121981 -0.449980
H27   H     H_    0.182426 0.272541 0.133746 0.289284
C61   C     C_3   0.246203 0.497303 0.139322 -0.396454
H28   H     H_    0.203604 0.591911 0.115006 0.198521
H29   H     H_    0.283004 0.537282 0.105017 0.161445
H30   H     H_    0.268873 0.518959 0.214981 0.221471
N2    N     N_2   0.773962 0.801261 0.878022 -0.449983
H31   H     H_    0.817578 0.772542 0.866260 0.289276
C62   C     C_3   0.753801 0.997299 0.860683 -0.396455
H32   H     H_    0.731132 0.018954 0.785025 0.221479
H33   H     H_    0.796399 0.091907 0.884999 0.198520
H34   H     H_    0.716999 0.037278 0.894987 0.161450
N3    N     N_2   0.890668 0.739546 0.376769 -0.532596
H35   H     H_    0.869468 0.651027 0.321412 0.260872
C63   C     C_3   0.917898 0.907240 0.347716 -0.531231
H36   H     H_    0.878673 0.998426 0.303753 0.230341
H37   H     H_    0.950634 0.865132 0.306745 0.207997
H38   H     H_    0.946428 0.989451 0.409179 0.196702
N4    N     N_2   0.109331 0.239586 0.623233 -0.532612
H39   H     H_    0.130521 0.151030 0.678576 0.260876
C64   C     C_3   0.082132 0.407299 0.652316 -0.531237
H40   H     H_    0.121375 0.498453 0.696262 0.230358
H41   H     H_    0.049409 0.365221 0.693312 0.208003
H42   H     H_    0.053597 0.489526 0.590865 0.196710
N5    N     N_2   0.466399 0.879606 0.299232 -0.531962
H43   H     H_    0.447225 0.969146 0.338367 0.259732
C65   C     C_3   0.431543 0.701760 0.280050 -0.549922
H44   H     H_    0.437918 0.621301 0.345704 0.188085
H45   H     H_    0.448773 0.614328 0.230957 0.213155
H46   H     H_    0.379128 0.730422 0.247569 0.198717
N6    N     N_2   0.533605 0.379527 0.700753 -0.531959
H47   H     H_    0.552782 0.468982 0.661588 0.259735
C66   C     C_3   0.568444 0.201659 0.719975 -0.549933
H48   H     H_    0.561983 0.120988 0.654359 0.188081
H49   H     H_    0.551276 0.114430 0.769198 0.213192
H50   H     H_    0.620873 0.230308 0.752317 0.198694

loop_
_geom_bond_atom_site_label_1
_geom_bond_atom_site_label_2
_ccdc_geom_bond_type
C48   C50   A    
C1    C24   S    
C45   C47   A    
C63   H36   S    
O18   V4    S    
C15   C17   S    
O25   H23   S    
O1    C3    A    
O2    C4    A    
C2    O7    A    
O12   V3    S    
O3    V1    S    
C29   C31   A    
N3    C63   S    
C22   C28   A    
C17   N1    S    
C41   N3    S    
C12   O28   S    
C32   C36   A    
C56   H8    S    
N4    H39   S    
C20   H4    S    
C53   N5    S    
C7    C9    A    
C12   C14   A    
N6    C66   S    
C64   H42   S    
C31   C35   A    
C39   C41   A    
O16   C60   A    
C50   C56   A    
O27   H25   S    
C17   H1    S    
C43   C45   A    
C66   H50   S    
C51   C53   A    
O14   V4    S    
C61   H30   S    
C44   C46   A    
C34   C42   A    
C57   O18   A    
C28   H14   S    
C35   C43   A    
N5    C65   S    
C31   C33   A    
C2    C23   S    
C63   H38   S    
C32   C34   A    
C66   H48   S    
C39   H15   S    
C49   C55   A    
C20   H6    S    
O13   C57   A    
C6    C8    A    
C42   N4    S    
C23   C53   A    
C26   C34   A    
C35   C37   A    
C30   O24   S    
C18   N2    S    
O6    V2    S    
C66   H49   S    
C63   H37   S    
C55   H7    S    
C24   C54   A    
C65   H45   S    
C26   C28   A    
C65   H44   S    
C40   C42   A    
N1    C61   S    
C36   C38   A    
C3    C8    S    
C24   C56   A    
C18   H2    S    
C5    C15   A    
C26   H12   S    
C6    C16   A    
C44   O26   S    
O4    C2    A    
O15   V3    S    
C22   C59   S    
C21   C60   S    
O5    V1    S    
C36   C44   A    
C47   C49   A    
C14   C57   S    
C38   C50   A    
C23   C55   A    
C58   O17   A    
C19   H5    S    
C46   C48   A    
O4    V2    S    
O5    C3    A    
C62   H33   S    
C40   H16   S    
O11   V4    S    
N4    C64   S    
O14   C58   A    
O6    C4    A    
O20   V4    S    
O1    V2    S    
N1    H27   S    
O2    V1    S    
C25   C27   A    
C61   H28   S    
O19   V3    S    
C8    C10   A    
C29   O23   S    
C37   C39   A    
N2    H31   S    
C5    C19   S    
C10   C12   A    
C6    C20   S    
O23   H21   S    
C62   H32   S    
C52   H18   S    
O15   C59   A    
C65   H46   S    
C51   H17   S    
C21   C29   A    
O26   H24   S    
C45   H9    S    
C22   C30   A    
C13   C58   S    
O13   V3    S    
C46   H10   S    
C27   H13   S    
O3    C1    A    
C37   C49   A    
C64   H40   S    
C13   C15   A    
C10   O22   S    
O22   H20   S    
C14   C16   A    
C21   C27   A    
C9    C11   A    
O7    V1    S    
C62   H34   S    
C16   C18   S    
C17   C19   S    
O8    V2    S    
N6    H47   S    
C18   C20   S    
C64   H41   S    
C25   C33   A    
C48   C52   A    
C47   C51   A    
C4    C7    S    
C30   C32   A    
O20   V3    S    
C5    C7    A    
C38   C40   A    
C19   H3    S    
C11   C13   A    
N3    H35   S    
C61   H29   S    
C11   O27   S    
C9    O21   S    
O17   V3    S    
C1    O8    A    
O19   V4    S    
C33   C41   A    
O16   V4    S    
C54   N6    S    
O9    V2    S    
O24   H22   S    
O21   H19   S    
N2    C62   S    
O10   V1    S    
C52   C54   A    
O28   H26   S    
C25   H11   S    
O12   C60   A    
N5    H43   S    
O11   C59   A    
C43   O25   S    
