data_mof_unit_32362.cif
_audit_creation_date              2013-03-05T15:55:45-0500
_audit_creation_method            fapswitch 2.2
_symmetry_space_group_name_H-M    P1
_symmetry_Int_Tables_number       1
_space_group_crystal_system       triclinic
_cell_length_a                    10.602975
_cell_length_b                    12.339507
_cell_length_c                    13.166533
_cell_angle_alpha                 116.68836
_cell_angle_beta                  77.635479
_cell_angle_gamma                 101.17987
_cell_volume                      1493.97012603

loop_
_atom_site_label
_atom_site_type_symbol
_atom_site_description
_atom_site_fract_x
_atom_site_fract_y
_atom_site_fract_z
_atom_type_partial_charge
O1    O     O_R   0.537510 0.972500 0.318130 -0.572916
O2    O     O_R   0.487140 0.806530 0.359650 -0.609409
C1    C     C_R   0.511255 0.854908 0.286510 0.804619
O3    O     O_R   0.708330 0.082950 0.479220 -0.584612
O4    O     O_R   0.657960 0.916980 0.520740 -0.600335
C2    C     C_R   0.740372 0.999201 0.499542 0.789572
Cu1   Cu    Cu3+1 0.529830 0.098270 0.475420 0.974511
Cu2   Cu    Cu3+1 0.470170 0.901730 0.524580 1.004645
O5    O     O_R   0.512860 0.193470 0.640350 -0.584975
O6    O     O_R   0.462490 0.027500 0.681870 -0.528925
O7    O     O_R   0.342040 0.083020 0.479260 -0.588643
O8    O     O_R   0.291670 0.917050 0.520780 -0.532964
C3    C     C_R   0.480696 0.145118 0.713564 0.838953
C4    C     C_R   0.259675 0.000407 0.499916 0.804077
C5    C     C_3   0.982323 0.986297 0.396204 -0.145729
C6    C     C_3   0.040565 0.893776 0.417239 -0.148373
H1    H     H_    0.077073 0.807469 0.350088 0.165627
H2    H     H_    0.964468 0.975460 0.311893 0.170544
C7    C     C_3   0.122879 0.000705 0.499316 -0.026333
C8    C     C_3   0.066992 0.093268 0.478238 -0.103215
C9    C     C_3   0.959571 0.105103 0.581459 -0.167793
C10   C     C_3   0.017732 0.012574 0.602491 -0.124267
C11   C     C_3   0.933072 0.905607 0.520442 -0.092104
C12   C     C_3   0.877209 0.998254 0.499434 -0.020049
H3    H     H_    0.124476 0.170156 0.460996 0.184033
H4    H     H_    0.923126 0.191397 0.648655 0.162105
H5    H     H_    0.035598 0.023431 0.686809 0.189838
H6    H     H_    0.875516 0.828621 0.537488 0.177180
C13   C     C_R   0.331414 0.273574 0.025234 0.337341
H7    H     H_    0.337565 0.093099 0.887447 0.227159
H8    H     H_    0.242719 0.462919 0.219924 0.220254
C14   C     C_R   0.453949 0.228032 0.835246 -0.125965
C15   C     C_R   0.595087 0.814580 0.084266 -0.244487
C16   C     C_R   0.619512 0.735263 0.969041 0.676309
C17   C     C_R   0.573675 0.612067 0.931964 -0.239108
C18   C     C_R   0.497369 0.566005 0.009694 0.034425
C19   C     C_R   0.459154 0.650345 0.123888 0.080681
C20   C     C_R   0.456643 0.439388 0.977659 0.089899
C21   C     C_R   0.369656 0.399937 0.056390 0.027257
C22   C     C_R   0.318153 0.487766 0.161964 -0.128743
C23   C     C_R   0.361324 0.610532 0.194721 -0.171556
C24   C     C_R   0.500920 0.350771 0.869482 -0.196518
C25   C     C_R   0.371738 0.189092 0.913531 -0.214583
C26   C     C_R   0.517883 0.772955 0.163233 -0.186783
H9    H     H_    0.571427 0.374646 0.808623 0.161755
H10   H     H_    0.639131 0.908331 0.112039 0.197016
H11   H     H_    0.597352 0.556228 0.841443 0.171644
H12   H     H_    0.313938 0.673917 0.275255 0.168729
C27   C     C_R   0.723069 0.353608 0.342037 0.274847
H13   H     H_    0.741521 0.175213 0.324130 0.167595
N1    N     N_R   0.575030 0.246270 0.438190 -0.231495
C28   C     C_R   0.325408 0.760887 0.646821 0.736885
C29   C     C_R   0.292847 0.668855 0.684077 -0.335468
C30   C     C_R   0.361168 0.567194 0.632968 0.542116
C31   C     C_R   0.462385 0.554203 0.539437 -0.095920
C32   C     C_R   0.495227 0.653923 0.507389 0.032324
C33   C     C_R   0.534931 0.449596 0.478899 -0.081920
C34   C     C_R   0.645879 0.452296 0.396258 -0.094044
C35   C     C_R   0.674331 0.551241 0.366859 0.584112
C36   C     C_R   0.600592 0.648277 0.420939 -0.197433
C37   C     C_R   0.500787 0.340476 0.494448 0.108273
C38   C     C_R   0.683488 0.250934 0.364018 -0.006980
N2    N     N_R   0.425760 0.754330 0.561190 -0.242057
H14   H     H_    0.414348 0.325754 0.548285 0.214959
H15   H     H_    0.215712 0.677740 0.755220 0.213687
H16   H     H_    0.631062 0.718301 0.392070 0.221699
F1    F     F_    0.692559 0.777098 0.893204 -0.637421
F2    F     F_    0.770039 0.553292 0.280568 -0.620378
N3    N     N_R   0.844793 0.358119 0.270165 0.179112
O9    O     O_R   0.937225 0.444392 0.311603 -0.302226
O10   O     O_R   0.873016 0.263307 0.174608 -0.303274
F3    F     F_    0.258629 0.859747 0.699941 -0.640108
F4    F     F_    0.331275 0.488580 0.682673 -0.679587
N4    N     N_R   0.252252 0.229526 0.105268 0.133267
O11   O     O_R   0.282804 0.267739 0.207433 -0.364848
O12   O     O_R   0.164645 0.136201 0.069981 -0.295506

loop_
_geom_bond_atom_site_label_1
_geom_bond_atom_site_label_2
_geom_bond_distance
_ccdc_geom_bond_type
C5    H2    1.110342 S    
C9    H4    1.110327 S    
C3    C14   1.462708 S    
C7    C8    1.533085 S    
N1    C37   1.360631 A    
C31   C32   1.432047 A    
C17   H11   1.076819 S    
Cu1   Cu2   2.709344 S    
C29   C30   1.391605 A    
Cu1   O7    1.955177 S    
N4    O12   1.301640 A    
C18   C19   1.415961 A    
C20   C24   1.399450 A    
O4    C2    1.294966 A    
O7    C4    1.295344 A    
C8    H3    1.110475 S    
C5    C6    1.546658 S    
H8    C22   1.081565 S    
C16   C17   1.390658 A    
N3    O10   1.301359 A    
O5    C3    1.303256 A    
C14   C25   1.396724 A    
C17   C18   1.419389 A    
C6    H1    1.110503 S    
C11   C12   1.533327 S    
C29   H15   1.082939 S    
C36   H16   1.062838 S    
C35   C36   1.382299 A    
C27   N3    1.435537 S    
C9    C10   1.546211 S    
C13   C25   1.399615 A    
C15   H10   1.083395 S    
N1    C38   1.350311 A    
O3    Cu1   1.951430 S    
C5    C8    1.545948 S    
C1    C26   1.471875 S    
N4    O11   1.301668 A    
C7    C10   1.531605 S    
O3    C2    1.295541 A    
C21   C22   1.398630 A    
C13   N4    1.438457 S    
C34   C35   1.401144 A    
O6    C3    1.303704 A    
C27   C34   1.420484 A    
C32   C36   1.401040 A    
O1    C1    1.306384 A    
C24   H9    1.076032 S    
C37   H14   1.071603 S    
C28   F3    1.354656 S    
C35   F2    1.357717 S    
C30   F4    1.353496 S    
Cu2   O8    1.951431 S    
C2    C12   1.452882 S    
C13   C21   1.419665 A    
C15   C16   1.386674 A    
C32   N2    1.386156 A    
C11   H6    1.110534 S    
C22   C23   1.385325 A    
O8    C4    1.295211 A    
C6    C11   1.545898 S    
C10   H5    1.110375 S    
C31   C33   1.446171 A    
H13   C38   1.082233 S    
H7    C25   1.083391 S    
C28   C29   1.387556 A    
Cu1   O5    1.936790 S    
C30   C31   1.420345 A    
C5    C12   1.531720 S    
C27   C38   1.391479 A    
O1    Cu1   1.947758 S    
C15   C26   1.402527 A    
C4    C7    1.452886 S    
O2    Cu2   1.936790 S    
C28   N2    1.359247 A    
C16   F1    1.356532 S    
O4    Cu2   1.955176 S    
C33   C37   1.418757 A    
C19   C26   1.419122 A    
C18   C20   1.424738 A    
O2    C1    1.304179 A    
Cu1   N1    2.041884 S    
C33   C34   1.427621 A    
C20   C21   1.425467 A    
C6    C7    1.532010 S    
C23   H12   1.080631 S    
C19   C23   1.409525 A    
N3    O9    1.301594 A    
Cu2   N2    2.029900 S    
C8    C9    1.545625 S    
Cu2   O6    1.947756 S    
C9    C12   1.531570 S    
C14   C24   1.391197 A    
C10   C11   1.545966 S    
