data_mof_unit_15585.cif
_audit_creation_date              2012-12-10T18:44:59-0500
_audit_creation_method            fapswitch 2.2
_symmetry_space_group_name_H-M    P1
_symmetry_Int_Tables_number       1
_space_group_crystal_system       triclinic
_cell_length_a                    19.363004
_cell_length_b                    18.22992
_cell_length_c                    10.767543
_cell_angle_alpha                 90.14265
_cell_angle_beta                  90.868542
_cell_angle_gamma                 90.050237
_cell_volume                      3800.3420257

loop_
_atom_site_label
_atom_site_type_symbol
_atom_type_description
_atom_site_fract_x
_atom_site_fract_y
_atom_site_fract_z
_atom_type_partial_charge
C1    C     C_R   0.367890 0.499824 0.505386 0.790060
C2    C     C_R   0.632228 0.500004 0.499148 0.819877
C3    C     C_R   0.852078 0.508644 0.531076 0.042885
C4    C     C_R   0.149462 0.508213 0.554224 0.046749
C5    C     C_R   0.809778 0.538863 0.622193 -0.151913
C6    C     C_R   0.181696 0.547686 0.459701 -0.146912
C7    C     C_R   0.738438 0.536332 0.608980 -0.184973
C8    C     C_R   0.252669 0.544582 0.445434 -0.197510
C9    C     C_R   0.707608 0.500375 0.507587 -0.061356
C10   C     C_R   0.292955 0.499295 0.521596 -0.063378
C11   C     C_R   0.963948 0.579921 0.562882 -0.038493
C12   C     C_R   0.037231 0.579666 0.569913 -0.039125
C13   C     C_R   0.073197 0.511956 0.562232 0.038655
C14   C     C_R   0.928042 0.512468 0.548297 0.039760
C15   C     C_R   0.036130 0.446347 0.551466 -0.165705
C16   C     C_R   0.964782 0.446493 0.548097 -0.167958
C17   C     C_R   0.539962 0.720284 0.417689 0.025713
C18   C     C_R   0.460044 0.720952 0.581628 0.024444
C19   C     C_R   0.540873 0.797224 0.415020 0.242127
C20   C     C_R   0.459453 0.797861 0.583609 0.244871
C21   C     C_R   0.500268 0.837291 0.499185 -0.076168
C22   C     C_R   0.495250 0.500000 0.262636 0.814971
C23   C     C_R   0.496271 0.500163 0.737397 0.806764
C24   C     C_R   0.532661 0.959571 0.596914 0.041871
C25   C     C_R   0.467856 0.959136 0.400752 0.039943
C26   C     C_R   0.529906 0.036819 0.598034 -0.226142
C27   C     C_R   0.469985 0.036460 0.400152 -0.224846
C28   C     C_R   0.499812 0.076931 0.499248 0.137250
C29   C     C_R   0.500325 0.919700 0.498845 0.141951
C30   C     C_R   0.452528 0.200820 0.426917 -0.326971
C31   C     C_R   0.547269 0.200869 0.572069 -0.323837
C32   C     C_R   0.454390 0.277883 0.425494 0.495747
C33   C     C_R   0.545761 0.277907 0.573705 0.502328
C34   C     C_R   0.499788 0.160252 0.499514 0.014542
C35   C     C_R   0.396314 0.594454 0.126645 -0.159841
C36   C     C_R   0.396643 0.594042 0.867810 -0.180921
C37   C     C_R   0.351529 0.640151 0.060297 -0.142850
C38   C     C_R   0.351639 0.639907 0.931246 -0.132474
C39   C     C_R   0.444073 0.548705 0.932911 0.093013
C40   C     C_R   0.443631 0.548646 0.064322 0.089234
C41   C     C_R   0.488137 0.499748 0.128831 -0.098937
C42   C     C_R   0.489508 0.500329 0.870963 -0.099739
C43   C     C_R   0.527082 0.448322 0.064861 -0.201626
C44   C     C_R   0.528619 0.449143 0.937335 -0.205867
C45   C     C_R   0.748935 0.466764 0.416756 -0.055651
C46   C     C_R   0.261586 0.456690 0.615261 -0.052532
C47   C     C_R   0.821749 0.472384 0.426993 -0.020566
C48   C     C_R   0.189479 0.461958 0.632761 -0.025196
Cu1   Cu    Cu3+1 0.500000 0.573360 0.500000 0.941791
Cu2   Cu    Cu3+1 0.500000 0.426640 0.500000 1.032034
H1    H     H_    0.558008 0.408527 0.114607 0.187041
H2    H     H_    0.561821 0.410527 0.890456 0.204031
H3    H     H_    0.571496 0.689552 0.353869 0.170479
H4    H     H_    0.428144 0.690902 0.645243 0.159127
H5    H     H_    0.552277 0.065068 0.677272 0.132478
H6    H     H_    0.447478 0.064465 0.321057 0.133576
H7    H     H_    0.413436 0.173664 0.370850 0.175771
H8    H     H_    0.586526 0.173782 0.627509 0.175682
H9    H     H_    0.391532 0.593981 0.226430 0.150770
H10   H     H_    0.391253 0.592151 0.768021 0.141483
H11   H     H_    0.315396 0.674573 0.109245 0.122237
H12   H     H_    0.315506 0.674044 0.879975 0.140805
H13   H     H_    0.832130 0.564722 0.704059 0.143154
H14   H     H_    0.151579 0.580833 0.395594 0.138653
H15   H     H_    0.706925 0.561392 0.679771 0.143316
H16   H     H_    0.276222 0.576815 0.372955 0.136114
H17   H     H_    0.062603 0.394432 0.541823 0.144684
H18   H     H_    0.937914 0.394473 0.541357 0.144005
N1    N     N_R   0.500000 0.683620 0.500000 -0.228598
N2    N     N_R   0.500000 0.316380 0.500000 -0.226022
O1    O     O_R   0.400190 0.561980 0.499980 -0.607619
O2    O     O_R   0.599810 0.561980 0.500020 -0.585709
O3    O     O_R   0.400190 0.438070 0.500040 -0.533386
O4    O     O_R   0.599810 0.438070 0.499960 -0.533128
O5    O     O_R   0.500000 0.561970 0.319650 -0.600563
O6    O     O_R   0.500000 0.561970 0.680350 -0.595294
O7    O     O_R   0.500010 0.438060 0.319710 -0.533179
O8    O     O_R   0.499990 0.438060 0.680290 -0.530648
Cl1   Cl    Cl    0.594830 0.841272 0.308138 -0.698173
Cl2   Cl    Cl    0.405454 0.842615 0.689874 -0.706502
C49   C     C_R   0.570850 0.921868 0.698987 0.135559
C50   C     C_R   0.553451 0.934678 0.823400 -0.124158
C51   C     C_R   0.589222 0.898867 0.919398 -0.112352
C52   C     C_R   0.642879 0.850528 0.892152 -0.074695
C53   C     C_R   0.661319 0.838374 0.768888 -0.156548
C54   C     C_R   0.625818 0.874171 0.672682 -0.151053
H19   H     H_    0.511859 0.971867 0.845833 0.130954
H20   H     H_    0.575449 0.908557 0.014993 0.166470
H21   H     H_    0.670426 0.822839 0.966609 0.149327
H22   H     H_    0.703327 0.801444 0.747876 0.135883
H23   H     H_    0.641593 0.865116 0.577917 0.168324
C55   C     C_R   0.430694 0.920788 0.297712 0.133976
C56   C     C_R   0.448992 0.933416 0.173769 -0.123077
C57   C     C_R   0.414811 0.896288 0.076962 -0.105882
C58   C     C_R   0.361871 0.846792 0.102877 -0.073794
C59   C     C_R   0.342477 0.834866 0.225611 -0.159809
C60   C     C_R   0.376346 0.871997 0.322618 -0.146602
H24   H     H_    0.490195 0.971322 0.152356 0.130865
H25   H     H_    0.429315 0.905775 0.981768 0.166798
H26   H     H_    0.335622 0.818030 0.027794 0.143358
H27   H     H_    0.301011 0.797042 0.245629 0.125159
H28   H     H_    0.359917 0.862954 0.416946 0.166573
Cl3   Cl    Cl    0.396653 0.321831 0.322593 -0.653374
Cl4   Cl    Cl    0.604846 0.321816 0.674469 -0.675498
C61   C     C_R   0.717383 0.426960 0.309654 0.083234
C62   C     C_R   0.692369 0.355288 0.325269 -0.105936
C63   C     C_R   0.672987 0.313107 0.221859 -0.150209
C64   C     C_R   0.679288 0.341827 0.102296 -0.130596
C65   C     C_R   0.702965 0.413607 0.086177 -0.127877
C66   C     C_R   0.721604 0.456263 0.189461 -0.140629
H29   H     H_    0.690219 0.331275 0.417026 0.165416
H30   H     H_    0.654263 0.257692 0.234312 0.141511
H31   H     H_    0.664885 0.308885 0.022229 0.158686
H32   H     H_    0.707241 0.436007 0.993606 0.146312
H33   H     H_    0.741714 0.511061 0.175749 0.127177
C67   C     C_R   0.303790 0.409805 0.699940 0.090744
C68   C     C_R   0.328324 0.341427 0.659564 -0.087749
C69   C     C_R   0.366972 0.296978 0.740179 -0.136809
C70   C     C_R   0.379614 0.319503 0.862591 -0.075500
C71   C     C_R   0.353164 0.386210 0.904739 -0.096857
C72   C     C_R   0.315440 0.431304 0.823753 -0.174028
H34   H     H_    0.317620 0.322792 0.565700 0.161822
H35   H     H_    0.386763 0.244901 0.707937 0.134086
H36   H     H_    0.409378 0.285012 0.925083 0.146248
H37   H     H_    0.362165 0.403149 0.000035 0.166996
H38   H     H_    0.294736 0.482605 0.857595 0.139662
C73   C     C_R   0.865541 0.440999 0.327824 0.114074
C74   C     C_R   0.901492 0.487378 0.247344 -0.138662
C75   C     C_R   0.939710 0.457827 0.150189 -0.136271
C76   C     C_R   0.942282 0.381903 0.132849 -0.109881
C77   C     C_R   0.907336 0.335337 0.213419 -0.124201
C78   C     C_R   0.869111 0.364665 0.310697 -0.135497
H39   H     H_    0.898902 0.546234 0.258223 0.107157
H40   H     H_    0.966743 0.493824 0.087572 0.119109
H41   H     H_    0.970989 0.359143 0.056608 0.123962
H42   H     H_    0.909495 0.276536 0.199992 0.127410
H43   H     H_    0.841935 0.328078 0.372220 0.125153
C79   C     C_R   0.156942 0.418967 0.733340 0.113116
C80   C     C_R   0.133077 0.454124 0.840519 -0.137594
C81   C     C_R   0.106589 0.412921 0.938251 -0.135217
C82   C     C_R   0.103749 0.336460 0.929542 -0.106166
C83   C     C_R   0.127029 0.301107 0.822837 -0.120277
C84   C     C_R   0.153702 0.342099 0.725110 -0.147544
H44   H     H_    0.136598 0.512999 0.849859 0.106260
H45   H     H_    0.089010 0.440216 0.021324 0.124144
H46   H     H_    0.083897 0.304525 0.005705 0.119561
H47   H     H_    0.124912 0.241898 0.816249 0.128380
H48   H     H_    0.172274 0.314082 0.643349 0.123189
C85   C     C_R   0.925363 0.650115 0.573305 0.106251
C86   C     C_R   0.927767 0.690105 0.685028 -0.140766
C87   C     C_R   0.890158 0.755135 0.696626 -0.139911
C88   C     C_R   0.849956 0.780716 0.596962 -0.114510
C89   C     C_R   0.847550 0.741462 0.485350 -0.119249
C90   C     C_R   0.885189 0.676487 0.473297 -0.143991
H49   H     H_    0.958191 0.670455 0.763339 0.121176
H50   H     H_    0.891949 0.785542 0.783071 0.127678
H51   H     H_    0.820666 0.830928 0.606219 0.129120
H52   H     H_    0.816426 0.761335 0.408188 0.143538
H53   H     H_    0.882824 0.646776 0.386419 0.111876
C91   C     C_R   0.076065 0.649945 0.580267 0.112202
C92   C     C_R   0.071892 0.701943 0.484275 -0.143577
C93   C     C_R   0.110115 0.766935 0.492063 -0.143145
C94   C     C_R   0.152764 0.780490 0.595465 -0.092452
C95   C     C_R   0.156995 0.729217 0.691518 -0.124579
C96   C     C_R   0.118711 0.664261 0.684188 -0.148168
H54   H     H_    0.039789 0.691619 0.402849 0.120435
H55   H     H_    0.106954 0.806619 0.417610 0.127872
H56   H     H_    0.182533 0.830698 0.601148 0.141375
H57   H     H_    0.189987 0.739773 0.771646 0.127997
H58   H     H_    0.122235 0.625323 0.759377 0.108840

loop_
_geom_bond_atom_site_label_1
_geom_bond_atom_site_label_2
_ccdc_geom_bond_type
C61   C66   A    
C17   N1    A    
C56   C57   A    
C33   Cl4   S    
C63   H30   S    
C58   C59   A    
C68   H34   S    
C23   O6    A    
C85   C90   A    
C74   C75   A    
C87   H50   S    
C92   C93   A    
C85   C86   A    
C53   C54   A    
C64   C65   A    
C9    C45   A    
C12   C13   A    
C1    O1    A    
C23   C42   S    
C31   H8    S    
C95   C96   A    
C35   C37   A    
C24   C26   A    
C93   C94   A    
C54   H23   S    
Cu2   O4    S    
C11   C14   A    
C22   C41   S    
C62   C63   A    
C15   C16   A    
C30   H7    S    
C89   H52   S    
C67   C68   A    
C5    H13   S    
C35   H9    S    
C6    H14   S    
C4    C13   S    
C69   C70   A    
C17   C19   A    
C24   C29   A    
C76   C77   A    
C11   C85   S    
C76   H41   S    
Cu1   O2    S    
C10   C46   A    
C63   C64   A    
Cu1   O5    S    
C8    H16   S    
C16   H18   S    
C49   C54   A    
C2    O4    A    
C44   H2    S    
C18   N1    A    
C51   H20   S    
C28   C34   S    
Cu1   N1    S    
C59   H27   S    
C26   H5    S    
C41   C43   A    
C95   H57   S    
C42   C44   A    
C22   O5    A    
C2    O2    A    
Cu2   O8    S    
C45   C61   S    
C55   C60   A    
C49   C50   A    
C39   C42   A    
C62   H29   S    
C45   C47   A    
C25   C29   A    
C84   H48   S    
C80   C81   A    
C46   C48   A    
C32   Cl3   S    
C67   C72   A    
C30   C34   A    
C68   C69   A    
C52   C53   A    
C4    C6    A    
C77   H42   S    
Cu2   O3    S    
C39   C40   A    
C5    C7    A    
C20   Cl2   S    
C27   H6    S    
C6    C8    A    
C3    C5    A    
C78   H43   S    
C70   H36   S    
C21   C29   S    
C93   H55   S    
C64   H31   S    
C24   C49   S    
C37   C38   A    
C7    H15   S    
C80   H44   S    
C37   H11   S    
C51   C52   A    
C87   C88   A    
C15   H17   S    
C59   C60   A    
C31   C33   A    
Cu1   O6    S    
C91   C96   A    
C12   C91   S    
C70   C71   A    
C19   Cl1   S    
C73   C78   A    
C3    C14   S    
C82   H46   S    
C65   H32   S    
C40   C41   A    
Cu1   Cu2   S    
C86   H49   S    
C13   C15   A    
C43   C44   A    
C33   N2    A    
C14   C16   A    
C52   H21   S    
C77   C78   A    
Cu2   O7    S    
C17   H3    S    
C31   C34   A    
C71   C72   A    
C75   C76   A    
C4    C48   A    
C96   H58   S    
C7    C9    A    
C88   H51   S    
C25   C55   S    
C19   C21   A    
C58   H26   S    
C83   H47   S    
C36   C39   A    
C1    C10   S    
C60   H28   S    
C22   O7    A    
C36   H10   S    
C81   H45   S    
C32   N2    A    
C53   H22   S    
C47   C73   S    
C73   C74   A    
C48   C79   S    
C25   C27   A    
C61   C62   A    
C26   C28   A    
C46   C67   S    
C79   C84   A    
C1    O3    A    
C91   C92   A    
C36   C38   A    
C35   C40   A    
Cu2   N2    S    
C72   H38   S    
C82   C83   A    
C30   C32   A    
C43   H1    S    
C57   H25   S    
C81   C82   A    
C66   H33   S    
C3    C47   A    
C55   C56   A    
C71   H37   S    
C94   H56   S    
C18   C20   A    
C69   H35   S    
C23   O8    A    
C57   C58   A    
C94   C95   A    
C79   C80   A    
C18   H4    S    
C92   H54   S    
C75   H40   S    
C90   H53   S    
C20   C21   A    
C8    C10   A    
C50   C51   A    
Cu1   O1    S    
C65   C66   A    
C27   C28   A    
C83   C84   A    
C86   C87   A    
C88   C89   A    
C89   C90   A    
C74   H39   S    
C2    C9    S    
C56   H24   S    
C50   H19   S    
C11   C12   A    
C38   H12   S    
