data_mof_unit_52336.cif
_audit_creation_date              2012-12-11T16:44:23-0500
_audit_creation_method            fapswitch 2.2
_symmetry_space_group_name_H-M    P1
_symmetry_Int_Tables_number       1
_space_group_crystal_system       triclinic
_cell_length_a                    27.269337
_cell_length_b                    7.19187
_cell_length_c                    22.764465
_cell_angle_alpha                 90.020385
_cell_angle_beta                  101.481584
_cell_angle_gamma                 89.976668
_cell_volume                      4375.16953254

loop_
_atom_site_label
_atom_site_type_symbol
_atom_type_description
_atom_site_fract_x
_atom_site_fract_y
_atom_site_fract_z
_atom_type_partial_charge
O1    O     O_R   0.707300 0.594030 0.176840 -0.535422
O2    O     O_R   0.292700 0.405970 0.823160 -0.538677
O3    O     O_R   0.792700 0.094030 0.323160 -0.534975
O4    O     O_R   0.207300 0.905970 0.676840 -0.539846
O5    O     O_R   0.697330 0.262360 0.295660 -0.501205
O6    O     O_R   0.302670 0.737640 0.704340 -0.503522
O7    O     O_R   0.802670 0.762360 0.204340 -0.501214
O8    O     O_R   0.197330 0.237640 0.795660 -0.502976
C1    C     C_R   0.684192 0.433029 0.310960 0.826256
C2    C     C_R   0.314750 0.567274 0.687435 0.816897
C3    C     C_R   0.815763 0.932891 0.188997 0.825783
C4    C     C_R   0.185120 0.067487 0.812459 0.844680
O9    O     O_R   0.701410 0.264250 0.175600 -0.536405
O10   O     O_R   0.298590 0.735750 0.824400 -0.537351
O11   O     O_R   0.798590 0.764250 0.324400 -0.535631
O12   O     O_R   0.201410 0.235750 0.675600 -0.543217
O13   O     O_R   0.796800 0.094950 0.202240 -0.557233
O14   O     O_R   0.203200 0.905050 0.797760 -0.522228
O15   O     O_R   0.703200 0.594950 0.297760 -0.558033
O16   O     O_R   0.296800 0.405050 0.702240 -0.561217
C5    C     C_R   0.689685 0.432986 0.153483 0.869317
C6    C     C_R   0.310436 0.566895 0.846476 0.868565
C7    C     C_R   0.810351 0.932984 0.346506 0.864941
C8    C     C_R   0.189557 0.066910 0.653517 0.843786
O17   O     O_3   0.781290 0.427390 0.258880 -0.391859
O18   O     O_3   0.218710 0.572610 0.741120 -0.367926
O19   O     O_3   0.718710 0.927390 0.241120 -0.392290
O20   O     O_3   0.281290 0.072610 0.758880 -0.386711
V1    V     V_3+5 0.744190 0.152150 0.248350 1.605825
V2    V     V_3+5 0.255810 0.847850 0.751650 1.653552
V3    V     V_3+5 0.755810 0.652150 0.251650 1.606228
V4    V     V_3+5 0.244190 0.347850 0.748350 1.636966
C9    C     C_R   0.154291 0.056501 0.595155 -0.327507
C10   C     C_R   0.845010 0.942762 0.405226 -0.381273
C11   C     C_R   0.345641 0.556324 0.904859 -0.332954
C12   C     C_R   0.654953 0.442975 0.094847 -0.336993
C13   C     C_R   0.140668 0.057779 0.486538 0.179958
C14   C     C_R   0.857297 0.934371 0.513586 0.152716
C15   C     C_R   0.359060 0.554217 0.013457 0.182746
C16   C     C_R   0.642204 0.437040 0.986344 0.161251
C17   C     C_R   0.173107 0.050946 0.542528 0.448757
C18   C     C_R   0.825561 0.939769 0.457341 0.593531
C19   C     C_R   0.326738 0.547814 0.957388 0.445718
C20   C     C_R   0.674290 0.439634 0.042612 0.492723
C21   C     C_R   0.102260 0.049960 0.591950 0.653875
C22   C     C_R   0.896977 0.954982 0.409216 0.627002
C23   C     C_R   0.397696 0.551776 0.908174 0.651894
C24   C     C_R   0.603000 0.456697 0.091084 0.624819
C25   C     C_R   0.068481 0.029224 0.535637 -0.117975
C26   C     C_R   0.930181 0.975405 0.465936 -0.072831
C27   C     C_R   0.431417 0.530253 0.964478 -0.111334
C28   C     C_R   0.569692 0.477949 0.034462 -0.099384
C29   C     C_R   0.088177 0.055504 0.482895 -0.266643
C30   C     C_R   0.910178 0.944653 0.518403 -0.322435
C31   C     C_R   0.411564 0.554060 0.017223 -0.267884
C32   C     C_R   0.589662 0.448493 0.981997 -0.269923
C33   C     C_R   0.015754 0.992235 0.529457 -0.216552
C34   C     C_R   0.982789 0.015302 0.472438 -0.205475
C35   C     C_R   0.484203 0.494578 0.970678 -0.213591
C36   C     C_R   0.517029 0.516915 0.027885 -0.207516
C37   C     C_R   0.003476 0.084706 0.424640 0.676095
C38   C     C_R   0.995095 0.924085 0.577349 0.724166
C39   C     C_R   0.496116 0.584369 0.075770 0.680817
C40   C     C_R   0.505062 0.428155 0.922638 0.682511
C41   C     C_R   0.054971 0.089993 0.428339 0.646127
C42   C     C_R   0.943599 0.914736 0.573336 0.589382
C43   C     C_R   0.444598 0.588086 0.071936 0.643418
C44   C     C_R   0.556590 0.419153 0.926949 0.649235
C45   C     C_R   0.889658 0.096286 0.157857 0.035091
C46   C     C_R   0.144390 0.898027 0.888685 0.030254
C47   C     C_R   0.611105 0.599794 0.343061 0.036764
C48   C     C_R   0.353373 0.405069 0.607446 0.010709
C49   C     C_R   0.924756 0.107353 0.120536 0.740977
C50   C     C_R   0.107440 0.888576 0.924047 0.629333
C51   C     C_R   0.576026 0.611313 0.380369 0.744962
C52   C     C_R   0.389735 0.397558 0.571830 0.704994
C53   C     C_R   0.927144 0.969912 0.077434 -0.212531
C54   C     C_R   0.073742 0.035502 0.924751 -0.171824
C55   C     C_R   0.572527 0.471201 0.422201 -0.217463
C56   C     C_R   0.425598 0.538458 0.574400 -0.209916
C57   C     C_R   0.894274 0.817837 0.072692 0.588693
C58   C     C_R   0.076484 0.192032 0.888753 0.607888
C59   C     C_R   0.604352 0.316206 0.425745 0.594132
C60   C     C_R   0.425055 0.688037 0.613932 0.620635
C61   C     C_R   0.858821 0.805286 0.109498 0.543415
C62   C     C_R   0.112457 0.202287 0.852580 0.538114
C63   C     C_R   0.639946 0.303495 0.389130 0.548848
C64   C     C_R   0.389225 0.696674 0.650391 0.569184
C65   C     C_R   0.855369 0.944781 0.152148 -0.398727
C66   C     C_R   0.146960 0.056024 0.851720 -0.352361
C67   C     C_R   0.644472 0.445425 0.347683 -0.400400
C68   C     C_R   0.352780 0.555681 0.648130 -0.395003
C69   C     C_R   0.015769 0.990763 0.063140 0.633289
C70   C     C_R   0.984716 0.021076 0.938603 0.636909
C71   C     C_R   0.483986 0.501870 0.436113 0.632675
C72   C     C_R   0.514603 0.514605 0.561016 0.638409
C73   C     C_R   0.051533 0.010688 0.026766 0.048249
C74   C     C_R   0.948876 0.002618 0.975086 0.045472
C75   C     C_R   0.448203 0.522998 0.472397 0.047726
C76   C     C_R   0.550499 0.495691 0.524635 0.044467
C77   C     C_R   0.036124 0.024494 0.963999 0.009445
C78   C     C_R   0.964357 0.986092 0.037787 0.002623
C79   C     C_R   0.463358 0.527677 0.535339 0.001059
C80   C     C_R   0.535224 0.487757 0.461728 0.002213
F1    F     F_    0.071892 0.145507 0.378916 -0.556310
F2    F     F_    0.927434 0.860245 0.623282 -0.604979
F3    F     F_    0.427448 0.641583 0.121426 -0.556651
F4    F     F_    0.573539 0.364642 0.877424 -0.548193
F5    F     F_    0.031349 0.974237 0.123437 -0.589930
F6    F     F_    0.969301 0.032825 0.878177 -0.582584
F7    F     F_    0.468562 0.493481 0.375613 -0.589351
F8    F     F_    0.529782 0.517183 0.621591 -0.578759
N1    N     N_3   0.103679 0.019144 0.053646 -0.569733
H1    H     H_    0.113193 0.897123 0.078240 0.308900
H2    H     H_    0.109148 0.131011 0.083581 0.290560
N2    N     N_3   0.896623 0.003793 0.948549 -0.546881
H3    H     H_    0.889652 0.894517 0.917713 0.312148
H4    H     H_    0.888527 0.128479 0.925008 0.294480
N3    N     N_3   0.396323 0.542111 0.445258 -0.558194
H5    H     H_    0.385483 0.424511 0.418849 0.310500
H6    H     H_    0.392449 0.657997 0.416990 0.292996
N4    N     N_3   0.602634 0.487797 0.551539 -0.539727
H7    H     H_    0.608284 0.374695 0.580960 0.315212
H8    H     H_    0.611868 0.608946 0.576704 0.295901
F9    F     F_    0.914380 0.924362 0.358187 -0.623727
F10   F     F_    0.085502 0.085390 0.643119 -0.591742
F11   F     F_    0.585736 0.426459 0.142210 -0.624419
F12   F     F_    0.414486 0.589488 0.857188 -0.589397
F13   F     F_    0.775212 0.931592 0.453472 -0.593154
F14   F     F_    0.223322 0.047044 0.545452 -0.680002
F15   F     F_    0.724600 0.429840 0.046311 -0.624549
F16   F     F_    0.276529 0.541339 0.954311 -0.703454
N5    N     N_3   0.161377 0.064328 0.433400 -0.484067
H9    H     H_    0.184193 0.182028 0.435777 0.281307
H10   H     H_    0.183876 0.946830 0.432825 0.276047
N6    N     N_3   0.834206 0.920525 0.564756 -0.503479
H11   H     H_    0.842748 0.791323 0.585212 0.305998
H12   H     H_    0.847349 0.027979 0.594701 0.296940
N7    N     N_3   0.338235 0.557961 0.066535 -0.487294
H13   H     H_    0.316073 0.439417 0.066701 0.272444
H14   H     H_    0.315067 0.674670 0.064449 0.276303
N8    N     N_3   0.663373 0.424015 0.933649 -0.476858
H15   H     H_    0.687505 0.536805 0.933326 0.281782
H16   H     H_    0.684566 0.301971 0.936403 0.283694
F17   F     F_    0.974698 0.164404 0.375643 -0.568312
F18   F     F_    0.024044 0.848696 0.626999 -0.547402
F19   F     F_    0.524649 0.663625 0.125016 -0.567009
F20   F     F_    0.476328 0.353779 0.872666 -0.547092
N9    N     N_3   0.890893 0.239138 0.202094 -0.484706
H17   H     H_    0.891610 0.177722 0.243887 0.281057
H18   H     H_    0.859092 0.322530 0.190264 0.278514
N10   N     N_3   0.180463 0.750623 0.891795 -0.517840
H19   H     H_    0.214396 0.801669 0.916030 0.255292
H20   H     H_    0.170923 0.635709 0.915236 0.326863
N11   N     N_3   0.610734 0.745349 0.299930 -0.485182
H21   H     H_    0.609683 0.686638 0.257666 0.278999
H22   H     H_    0.642933 0.826191 0.312459 0.282852
N12   N     N_3   0.316605 0.260103 0.599287 -0.481897
H23   H     H_    0.322078 0.176451 0.637549 0.289631
H24   H     H_    0.280949 0.319846 0.591689 0.257114
F21   F     F_    0.956169 0.255755 0.125708 -0.555392
F22   F     F_    0.104301 0.735749 0.958244 -0.618167
F23   F     F_    0.545716 0.762770 0.376422 -0.552658
F24   F     F_    0.390286 0.249713 0.534746 -0.589667
F25   F     F_    0.896706 0.680359 0.032473 -0.574582
F26   F     F_    0.044541 0.336687 0.889174 -0.539199
F27   F     F_    0.600762 0.175992 0.464593 -0.569061
F28   F     F_    0.459005 0.827452 0.616750 -0.539687
F29   F     F_    0.826944 0.658276 0.102153 -0.582255
F30   F     F_    0.112887 0.355344 0.817787 -0.566178
F31   F     F_    0.670870 0.153658 0.395490 -0.580574
F32   F     F_    0.390867 0.842525 0.688625 -0.574877

loop_
_geom_bond_atom_site_label_1
_geom_bond_atom_site_label_2
_ccdc_geom_bond_type
O17   V3    S    
C59   C63   A    
C25   C29   A    
O1    C5    A    
C64   F32   S    
C16   N8    S    
N11   H22   S    
C9    C21   A    
C22   F9    S    
O3    C7    A    
C10   C18   A    
C76   C80   A    
C56   C60   A    
C11   C23   A    
C1    C67   S    
C25   C33   A    
C23   F12   S    
C5    C12   S    
C20   F15   S    
O7    C3    A    
C6    C11   S    
C72   F8    S    
C35   C40   A    
C26   C30   A    
C36   C39   A    
C40   C44   A    
O9    V1    S    
C19   F16   S    
C42   F2    S    
C14   C18   A    
C63   C67   A    
N9    H18   S    
C58   F26   S    
C17   F14   S    
C48   C68   A    
C71   C75   A    
O19   V1    S    
C70   C74   A    
O1    V3    S    
C48   N12   S    
N2    H3    S    
O2    V4    S    
C39   F19   S    
O3    V1    S    
C54   C58   A    
C49   F21   S    
C28   C36   A    
C1    O15   A    
C15   C31   A    
C64   C68   A    
C70   C77   A    
C2    O16   A    
C16   C32   A    
O2    C6    A    
C45   C49   A    
C10   C22   A    
C14   N6    S    
C11   C19   A    
C16   C20   A    
C76   N4    S    
C48   C52   A    
C13   C29   A    
C34   C37   A    
O11   C7    A    
O15   V3    S    
C35   C36   A    
O12   C8    A    
C40   F20   S    
C54   C77   S    
N12   H24   S    
C53   C78   S    
C46   C66   A    
O10   V2    S    
C45   C65   A    
C41   F1    S    
C2    C68   S    
C57   C61   A    
O5    V1    S    
N3    H6    S    
N7    H13   S    
C39   C43   A    
O7    V3    S    
C38   C42   A    
C56   C79   S    
C26   C34   A    
C60   C64   A    
C47   N11   S    
C33   C38   A    
C46   N10   S    
N6    H12   S    
C75   C79   A    
C62   C66   A    
C50   F22   S    
C61   C65   A    
O18   V4    S    
C15   C19   A    
C32   C44   A    
C59   F27   S    
C70   F6    S    
C61   F29   S    
O8    V4    S    
C46   C50   A    
C60   F28   S    
C3    C65   S    
C74   N2    S    
C14   C30   A    
C21   C25   A    
C21   F10   S    
O8    C4    A    
C7    C10   S    
C63   F31   S    
O9    C5    A    
O14   V2    S    
C51   F23   S    
O6    V2    S    
N10   H20   S    
C50   C54   A    
N5    H9    S    
C13   N5    S    
C55   C80   S    
C12   C20   A    
C27   C35   A    
C73   N1    S    
C69   C73   A    
N8    H16   S    
C29   C41   A    
C71   C80   A    
N1    H1    S    
O16   V4    S    
C4    C66   S    
C3    O13   A    
C49   C53   A    
C62   F30   S    
C52   C56   A    
O5    C1    A    
N6    H11   S    
C69   C78   A    
O6    C2    A    
C23   C27   A    
N3    H5    S    
O11   V3    S    
C30   C42   A    
O12   V4    S    
C22   C26   A    
C8    C9    S    
C58   C62   A    
C9    C17   A    
O10   C6    A    
O20   V2    S    
C45   N9    S    
C31   C43   A    
C74   C78   A    
O13   V1    S    
C24   F11   S    
C47   C51   A    
N7    H14   S    
C43   F3    S    
C33   C34   A    
N12   H23   S    
C51   C55   A    
O4    C8    A    
C72   C76   A    
C37   F17   S    
N2    H4    S    
C12   C24   A    
C18   F13   S    
C27   C31   A    
C13   C17   A    
O4    V2    S    
C52   F24   S    
C75   N3    S    
C55   C59   A    
C37   C41   A    
C24   C28   A    
C47   C67   A    
N10   H19   S    
C53   C57   A    
C38   F18   S    
C72   C79   A    
C4    O14   A    
N11   H21   S    
N5    H10   S    
C57   F25   S    
N8    H15   S    
C71   F7    S    
C44   F4    S    
N4    H7    S    
N9    H17   S    
N4    H8    S    
C15   N7    S    
C73   C77   A    
C28   C32   A    
C69   F5    S    
N1    H2    S    
