data_mof_unit_28724.cif
_audit_creation_date              2012-12-10T19:11:32-0500
_audit_creation_method            fapswitch 2.2
_symmetry_space_group_name_H-M    P1
_symmetry_Int_Tables_number       1
_space_group_crystal_system       triclinic
_cell_length_a                    7.780016
_cell_length_b                    9.096695
_cell_length_c                    17.423994
_cell_angle_alpha                 89.975739
_cell_angle_beta                  85.207743
_cell_angle_gamma                 90.000919
_cell_volume                      1228.8274734

loop_
_atom_site_label
_atom_site_type_symbol
_atom_type_description
_atom_site_fract_x
_atom_site_fract_y
_atom_site_fract_z
_atom_type_partial_charge
C1    C     C_R   0.499994 0.779989 0.500024 0.846429
C2    C     C_R   0.499998 0.220008 0.499999 0.838342
C3    C     C_1   0.499989 0.934632 0.500025 -0.171853
C4    C     C_1   0.499991 0.065360 0.500015 -0.171170
C5    C     C_R   0.476457 0.499091 0.650324 0.808647
C6    C     C_R   0.523574 0.500449 0.349909 0.828713
C7    C     C_R   0.461921 0.492829 0.734631 -0.139011
C8    C     C_R   0.539535 0.495794 0.266025 -0.113841
C9    C     C_R   0.610492 0.461528 0.771952 -0.270381
C10   C     C_R   0.410565 0.425145 0.228490 -0.300296
C11   C     C_R   0.602448 0.451457 0.851419 -0.147760
C12   C     C_R   0.421023 0.418648 0.148818 -0.151258
C13   C     C_R   0.445777 0.475610 0.895578 0.114258
C14   C     C_R   0.558370 0.487280 0.105257 0.123672
C15   C     C_R   0.296111 0.503839 0.858764 -0.255919
C16   C     C_R   0.689518 0.555300 0.142649 -0.257674
C17   C     C_R   0.302903 0.514944 0.778510 0.492582
C18   C     C_R   0.683564 0.557285 0.223124 0.485468
C19   C     C_2   0.433148 0.469715 0.980096 -0.192011
C20   C     C_2   0.570244 0.489717 0.020740 -0.193956
Cu1   Cu    Cu3+1 0.330920 0.500000 0.500000 1.016878
Cu2   Cu    Cu3+1 0.669080 0.500000 0.500000 1.019569
H1    H     H_    0.173558 0.518170 0.892325 0.132952
H2    H     H_    0.794972 0.609604 0.109331 0.135686
H3    H     H_    0.321591 0.359055 0.122176 0.135617
H4    H     H_    0.719082 0.421976 0.877374 0.144640
H5    H     H_    0.733487 0.442095 0.739635 0.204880
H6    H     H_    0.302426 0.372876 0.260961 0.166895
H7    H     H_    0.694728 0.517637 0.991727 0.137922
H8    H     H_    0.305237 0.457221 0.009199 0.137411
N1    N     N_1   0.923170 0.500000 0.500010 -0.045197
N2    N     N_1   0.076830 0.500000 0.499990 -0.044801
O1    O     O_R   0.357240 0.711600 0.500000 -0.582364
O2    O     O_R   0.642760 0.288400 0.500000 -0.582161
O3    O     O_R   0.642760 0.711600 0.500000 -0.572246
O4    O     O_R   0.357240 0.288400 0.500000 -0.580732
O5    O     O_R   0.340660 0.500000 0.613590 -0.534549
O6    O     O_R   0.659340 0.500000 0.386410 -0.551299
O7    O     O_R   0.626230 0.500000 0.613600 -0.596879
O8    O     O_R   0.373770 0.500000 0.386400 -0.605037
O9    O     O_3   0.807817 0.632603 0.259887 -0.572326
C21   C     C_3   0.965416 0.555417 0.249754 -0.269263
H9    H     H_    0.950156 0.438283 0.267775 0.152751
H10   H     H_    0.058021 0.606728 0.286776 0.204746
H11   H     H_    0.022587 0.562690 0.189239 0.145613
O10   O     O_3   0.152268 0.537018 0.743178 -0.569357
C22   C     C_3   0.106882 0.686826 0.749408 -0.301978
H12   H     H_    0.991494 0.705477 0.717323 0.196999
H13   H     H_    0.211983 0.758613 0.723195 0.153435
H14   H     H_    0.072302 0.718629 0.810389 0.149211

loop_
_geom_bond_atom_site_label_1
_geom_bond_atom_site_label_2
_ccdc_geom_bond_type
C2    C4    S    
C5    C7    S    
C5    O5    A    
C11   C13   A    
O9    C21   S    
C19   C20   D    
C12   H3    S    
C2    O2    A    
C15   H1    S    
C1    O1    A    
C22   H13   S    
Cu1   O4    S    
Cu1   Cu2   S    
Cu2   O3    S    
C9    C11   A    
C9    H5    S    
Cu1   O8    S    
C21   H10   S    
Cu2   O7    S    
C10   C12   A    
C8    C10   A    
C12   C14   A    
C22   H14   S    
C6    O8    A    
C20   H7    S    
C13   C15   A    
Cu2   O2    S    
Cu1   N2    S    
C14   C16   A    
Cu1   O1    S    
C21   H9    S    
C13   C19   S    
C10   H6    S    
C3    C4    T    
Cu2   O6    S    
C22   H12   S    
C7    C9    A    
Cu1   O5    S    
C17   O10   S    
C1    O3    A    
C14   C20   S    
C16   H2    S    
Cu2   N1    S    
C18   O9    S    
C2    O4    A    
C15   C17   A    
C5    O7    A    
O10   C22   S    
C6    C8    S    
C11   H4    S    
C1    C3    S    
C6    O6    A    
C19   H8    S    
C16   C18   A    
C8    C18   A    
N1    N2    T    
C7    C17   A    
C21   H11   S    
