data_mof_unit_67770.cif
_audit_creation_date              2012-12-10T16:50:54-0500
_audit_creation_method            fapswitch 2.2
_symmetry_space_group_name_H-M    P1
_symmetry_Int_Tables_number       1
_space_group_crystal_system       triclinic
_cell_length_a                    7.920543
_cell_length_b                    8.574606
_cell_length_c                    10.694268
_cell_angle_alpha                 92.753462
_cell_angle_beta                  84.701013
_cell_angle_gamma                 93.149573
_cell_volume                      721.435981225

loop_
_atom_site_label
_atom_site_type_symbol
_atom_type_description
_atom_site_fract_x
_atom_site_fract_y
_atom_site_fract_z
_atom_type_partial_charge
C1    C     C_R   0.543855 0.793621 0.499181 0.906709
C2    C     C_R   0.940869 0.394648 0.025360 -0.134048
C3    C     C_R   0.037575 0.515587 0.082297 -0.083761
C4    C     C_R   0.962425 0.484409 0.917703 -0.083760
C5    C     C_R   0.180761 0.467623 0.132508 -0.199298
C6    C     C_R   0.819238 0.532373 0.867492 -0.199298
C7    C     C_R   0.343119 0.493160 0.070937 0.087091
C8    C     C_R   0.656881 0.506837 0.929063 0.087090
C9    C     C_R   0.358818 0.558052 0.952958 0.088355
C10   C     C_R   0.641182 0.441945 0.047042 0.088355
C11   C     C_R   0.489698 0.455403 0.124163 -0.252648
C12   C     C_R   0.456145 0.206379 0.500819 0.906708
C13   C     C_R   0.510302 0.544594 0.875837 -0.252648
C14   C     C_R   0.689186 0.991272 0.368441 0.158316
C15   C     C_R   0.853352 0.047625 0.392349 -0.082910
C16   C     C_R   0.983736 0.051784 0.295143 -0.196661
C17   C     C_R   0.951660 0.996350 0.174368 -0.144546
C18   C     C_R   0.787995 0.941716 0.149407 -0.159435
C19   C     C_R   0.656897 0.939851 0.245912 -0.159719
C20   C     C_R   0.310814 0.008728 0.631559 0.158317
C21   C     C_R   0.343104 0.060145 0.754088 -0.159721
C22   C     C_R   0.212008 0.058275 0.850595 -0.159437
C23   C     C_2   0.561253 0.952930 0.474727 -0.246725
C24   C     C_R   0.048342 0.003641 0.825634 -0.144548
C25   C     C_R   0.016265 0.948212 0.704858 -0.196660
C26   C     C_R   0.146648 0.952376 0.607651 -0.082907
C27   C     C_2   0.438747 0.047070 0.525273 -0.246726
C28   C     C_R   0.503840 0.520158 0.739734 0.870832
C29   C     C_R   0.496160 0.479842 0.260266 0.870833
C30   C     C_R   0.222039 0.635818 0.916590 -0.203208
C31   C     C_R   0.777961 0.364178 0.083410 -0.203207
C32   C     C_R   0.059130 0.605348 0.974640 -0.134048
H1    H     H_    0.034394 0.424627 0.839260 0.190091
H2    H     H_    0.988787 0.624094 0.592040 0.175997
H3    H     H_    0.880680 0.084549 0.486835 0.137161
H4    H     H_    0.110645 0.093729 0.314179 0.126093
H5    H     H_    0.054453 0.993771 0.101038 0.122046
H6    H     H_    0.762814 0.896777 0.056397 0.123682
H7    H     H_    0.532344 0.891025 0.226746 0.125982
H8    H     H_    0.467657 0.108970 0.773254 0.125983
H9    H     H_    0.237189 0.103210 0.943605 0.123683
H10   H     H_    0.945550 0.006216 0.898965 0.122046
H11   H     H_    0.889356 0.906265 0.685823 0.126092
H12   H     H_    0.965605 0.575369 0.160740 0.190091
H13   H     H_    0.119319 0.915453 0.513165 0.137159
H14   H     H_    0.238377 0.713821 0.839144 0.176542
H15   H     H_    0.761623 0.286176 0.160857 0.176540
H16   H     H_    0.997496 0.716255 0.985390 0.150815
H17   H     H_    0.002504 0.283741 0.014611 0.150817
H18   H     H_    0.159640 0.389941 0.209805 0.149233
H19   H     H_    0.840360 0.610056 0.790195 0.149234
H20   H     H_    0.011213 0.375906 0.407959 0.175996
N1    N     N_2   0.950330 0.457950 0.466250 -0.181274
N2    N     N_2   0.049670 0.542050 0.533750 -0.181274
O1    O     O_R   0.389250 0.738570 0.508280 -0.616394
O2    O     O_R   0.610750 0.261430 0.491720 -0.616395
O3    O     O_R   0.678390 0.711630 0.486650 -0.621765
O4    O     O_R   0.321610 0.288370 0.513350 -0.621766
O5    O     O_R   0.355430 0.513480 0.694040 -0.612985
O6    O     O_R   0.644570 0.486520 0.305960 -0.612985
O7    O     O_R   0.644570 0.486540 0.672410 -0.622443
O8    O     O_R   0.355430 0.513460 0.327590 -0.622443
Zn1   Zn    Zn3+2 0.306940 0.517990 0.514440 0.928876
Zn2   Zn    Zn3+2 0.693060 0.482010 0.485560 0.928875

loop_
_geom_bond_atom_site_label_1
_geom_bond_atom_site_label_2
_ccdc_geom_bond_type
C14   C23   S    
C12   O2    A    
O7    Zn2   S    
C2    C4    A    
O2    Zn2   S    
C13   C28   S    
C1    C23   S    
C8    C13   A    
C10   C31   A    
C2    H17   S    
C1    O3    A    
C6    H19   S    
C4    C32   A    
C24   H10   S    
O5    Zn1   S    
C14   C15   A    
C29   O6    A    
O6    Zn2   S    
C12   O4    A    
C28   O7    A    
C25   H11   S    
C17   C18   A    
C18   H6    S    
C25   C26   A    
C31   H15   S    
C21   C22   A    
H20   N1    S    
C30   C32   A    
C32   H16   S    
O8    Zn1   S    
C21   H8    S    
C20   C26   A    
C9    C30   A    
C19   H7    S    
C8    C10   A    
C20   C27   S    
H2    N2    S    
C2    C3    A    
C23   C27   D    
C1    O1    A    
C3    C32   A    
C3    H12   S    
N1    Zn2   S    
C22   C24   A    
C5    H18   S    
C22   H9    S    
C10   C11   A    
C17   H5    S    
C12   C27   S    
C15   C16   A    
C7    C9    A    
C24   C25   A    
C11   C29   S    
O3    Zn2   S    
C4    C6    A    
C18   C19   A    
N2    Zn1   S    
C28   O5    A    
C15   H3    S    
O4    Zn1   S    
C5    C7    A    
C4    H1    S    
C9    C13   A    
C29   O8    A    
C16   C17   A    
C7    C11   A    
C6    C8    A    
C26   H13   S    
C20   C21   A    
N1    N2    D    
C14   C19   A    
C30   H14   S    
C16   H4    S    
C2    C31   A    
C3    C5    A    
O1    Zn1   S    
