data_mof_unit_8979.cif
_audit_creation_date              2012-12-10T18:11:07-0500
_audit_creation_method            fapswitch 2.2
_symmetry_space_group_name_H-M    P1
_symmetry_Int_Tables_number       1
_space_group_crystal_system       triclinic
_cell_length_a                    10.774714
_cell_length_b                    9.521582
_cell_length_c                    10.635881
_cell_angle_alpha                 88.875037
_cell_angle_beta                  92.263215
_cell_angle_gamma                 89.909528
_cell_volume                      1090.09540287

loop_
_atom_site_label
_atom_site_type_symbol
_atom_type_description
_atom_site_fract_x
_atom_site_fract_y
_atom_site_fract_z
_atom_type_partial_charge
C1    C     C_R   0.259481 0.500430 0.499172 0.812931
C2    C     C_3   0.502860 0.499829 0.121990 0.029562
C3    C     C_3   0.075415 0.605985 0.597386 -0.368157
C4    C     C_3   0.072487 0.354686 0.542296 -0.401340
C5    C     C_3   0.932267 0.611738 0.595214 -0.342628
C6    C     C_3   0.930437 0.353575 0.548465 -0.381553
C7    C     C_3   0.058606 0.539316 0.361305 0.002897
C8    C     C_3   0.120024 0.501546 0.497441 0.010256
C9    C     C_3   0.876606 0.498823 0.506196 0.121542
C10   C     C_3   0.913859 0.529504 0.369971 -0.427618
C11   C     C_3   0.621439 0.082126 0.550265 -0.296217
C12   C     C_3   0.618027 0.915250 0.559415 -0.277016
C13   C     C_3   0.406627 0.081553 0.587320 -0.188940
C14   C     C_3   0.399894 0.915523 0.578938 -0.233177
C15   C     C_3   0.475625 0.087383 0.374073 0.277311
C16   C     C_3   0.489418 0.921000 0.372386 0.236123
C17   C     C_R   0.501284 0.500624 0.259440 0.867060
C18   C     C_R   0.739346 0.499518 0.507312 0.748468
C19   C     C_R   0.501447 0.498812 0.740364 0.768160
C20   C     C_3   0.594870 0.581903 0.042666 -0.186877
C21   C     C_3   0.393052 0.546005 0.034888 -0.115422
C22   C     C_3   0.484795 0.628783 0.953783 -0.189652
C23   C     C_3   0.503204 0.496579 0.877152 0.025659
C24   C     C_3   0.613323 0.449533 0.963427 -0.154115
C25   C     C_3   0.411759 0.413711 0.956132 -0.166192
C26   C     C_3   0.521703 0.366882 0.045043 -0.148472
Cu1   Cu    Cu3+1 0.499860 0.642410 0.500060 0.923855
Cu2   Cu    Cu3+1 0.499860 0.357590 0.500060 0.930692
H1    H     H_    0.469493 0.735999 0.913080 0.133003
H2    H     H_    0.866655 0.627615 0.334446 0.167318
H3    H     H_    0.871776 0.446543 0.310289 0.193617
H4    H     H_    0.647399 0.125127 0.644172 0.166570
H5    H     H_    0.630238 0.880056 0.659565 0.162938
H6    H     H_    0.696609 0.114338 0.487137 0.145531
H7    H     H_    0.699608 0.874108 0.511089 0.159646
H8    H     H_    0.430625 0.109412 0.686499 0.136083
H9    H     H_    0.406894 0.869891 0.675975 0.151802
H10   H     H_    0.552931 0.126167 0.315957 0.046748
H11   H     H_    0.579110 0.898983 0.327087 0.085563
H12   H     H_    0.314150 0.129535 0.568788 0.164274
H13   H     H_    0.307632 0.882216 0.541468 0.144584
H14   H     H_    0.669763 0.650822 0.080817 0.128835
H15   H     H_    0.301473 0.584044 0.063684 0.198251
H16   H     H_    0.703238 0.409702 0.930894 0.126214
H17   H     H_    0.336993 0.344604 0.917999 0.121917
H18   H     H_    0.538028 0.259074 0.083825 0.113759
H19   H     H_    0.113888 0.712897 0.583460 0.204104
H20   H     H_    0.100773 0.271311 0.478929 0.179351
H21   H     H_    0.110523 0.571120 0.692873 0.148980
H22   H     H_    0.114235 0.326722 0.636990 0.161575
H23   H     H_    0.899646 0.593881 0.692228 0.138740
H24   H     H_    0.903552 0.327823 0.646239 0.158847
H25   H     H_    0.900301 0.718312 0.563795 0.204662
H26   H     H_    0.892771 0.269447 0.486624 0.179953
N1    N     N_3   0.500250 0.143650 0.502780 -0.140258
N2    N     N_3   0.500250 0.856350 0.502780 -0.152499
O1    O     O_R   0.317570 0.620260 0.500070 -0.597190
O2    O     O_R   0.317570 0.379740 0.500070 -0.551046
O3    O     O_R   0.499850 0.620240 0.316900 -0.550731
O4    O     O_R   0.499850 0.379760 0.316900 -0.582919
O5    O     O_R   0.682190 0.620260 0.500030 -0.601577
O6    O     O_R   0.682190 0.379740 0.500030 -0.602316
O7    O     O_R   0.499910 0.620280 0.683200 -0.595671
O8    O     O_R   0.499910 0.379720 0.683200 -0.597688
N3    N     N_2   0.361986 0.148348 0.313034 -0.349964
H27   H     H_    0.374712 0.195116 0.226290 0.260671
C27   C     C_3   0.237645 0.091595 0.320824 -0.682039
H28   H     H_    0.170040 0.177512 0.313136 0.244231
H29   H     H_    0.222426 0.033530 0.408858 0.203737
H30   H     H_    0.214312 0.025500 0.238777 0.229856
N4    N     N_2   0.394744 0.854886 0.293821 -0.357290
H31   H     H_    0.310226 0.832229 0.330216 0.298640
C28   C     C_3   0.404245 0.873120 0.158707 -0.700595
H32   H     H_    0.327323 0.817896 0.108879 0.258236
H33   H     H_    0.494478 0.831595 0.129608 0.222775
H34   H     H_    0.399371 0.985051 0.129262 0.198153
C29   C     C_2   0.086367 0.689695 0.316420 0.779877
O9    O     O_2   0.137032 0.711452 0.216974 -0.634159
O10   O     O_R   0.040870 0.803900 0.381421 -0.813098
H35   H     H_    0.048370 0.896032 0.333385 0.322178
C30   C     C_2   0.105057 0.438221 0.262254 0.784022
O11   O     O_2   0.216136 0.431363 0.243962 -0.619041
O12   O     O_R   0.022856 0.357976 0.188121 -0.798820
H36   H     H_    0.066643 0.299688 0.124452 0.324517

loop_
_geom_bond_atom_site_label_1
_geom_bond_atom_site_label_2
_ccdc_geom_bond_type
C7    C10   S    
C14   N2    S    
C22   H1    S    
C1    C8    S    
C28   H32   S    
C4    C8    S    
C6    C9    S    
C30   O11   D    
C3    H21   S    
C7    C8    S    
C29   O9    D    
C5    H25   S    
C24   C26   S    
C15   C16   S    
C15   N3    S    
C13   H12   S    
Cu1   O5    S    
C21   H15   S    
C10   H3    S    
C20   C24   S    
C19   O7    A    
N3    C27   S    
C23   C24   S    
C9    C10   S    
C7    C29   S    
Cu2   O4    S    
C21   C22   S    
C2    C17   S    
C28   H33   S    
C16   N4    S    
C6    H26   S    
C30   O12   S    
Cu2   N1    S    
C29   O10   S    
C2    C20   S    
C27   H28   S    
C13   H8    S    
C4    C6    S    
C3    C8    S    
Cu1   O1    S    
N4    C28   S    
Cu1   N2    S    
C18   O6    A    
C17   O4    A    
C25   C26   S    
C4    H22   S    
C27   H29   S    
C15   N1    S    
C19   C23   S    
C16   N2    S    
C15   H10   S    
C5    C9    S    
C1    O1    A    
C10   H2    S    
O12   H36   S    
C19   O8    A    
C2    C21   S    
C2    C26   S    
C12   H7    S    
C12   N2    S    
Cu1   O7    S    
C17   O3    A    
C14   H13   S    
Cu2   O8    S    
C7    C30   S    
C20   C22   S    
C11   H4    S    
C24   H16   S    
C28   H34   S    
C25   H17   S    
C11   N1    S    
C4    H20   S    
C21   C25   S    
C11   H6    S    
C3    C5    S    
C20   H14   S    
C11   C12   S    
C18   O5    A    
Cu2   O2    S    
C27   H30   S    
N4    H31   S    
Cu1   O3    S    
C1    O2    A    
C14   H9    S    
C3    H19   S    
C23   C25   S    
C26   H18   S    
C16   H11   S    
O10   H35   S    
C9    C18   S    
N3    H27   S    
Cu1   Cu2   S    
C22   C23   S    
C5    H23   S    
C6    H24   S    
C12   H5    S    
C13   C14   S    
C13   N1    S    
Cu2   O6    S    
