data_mof_unit_40560.cif
_audit_creation_date              2012-12-10T16:44:13-0500
_audit_creation_method            fapswitch 2.2
_symmetry_space_group_name_H-M    P1
_symmetry_Int_Tables_number       1
_space_group_crystal_system       triclinic
_cell_length_a                    7.434441
_cell_length_b                    8.736372
_cell_length_c                    13.310679
_cell_angle_alpha                 94.466487
_cell_angle_beta                  77.101625
_cell_angle_gamma                 103.170675
_cell_volume                      820.215455874

loop_
_atom_site_label
_atom_site_type_symbol
_atom_type_description
_atom_site_fract_x
_atom_site_fract_y
_atom_site_fract_z
_atom_type_partial_charge
C1    C     C_R   0.545959 0.799865 0.502903 0.778058
C2    C     C_R   0.327918 0.479947 0.808140 -0.211143
C3    C     C_2   0.577436 0.967682 0.501532 0.290927
C4    C     C_R   0.397193 0.491548 0.694985 0.879607
C5    C     C_2   0.431850 0.032671 0.498707 -0.476907
C6    C     C_R   0.455522 0.199955 0.496770 0.890210
C7    C     C_R   0.602168 0.510935 0.305465 0.820214
C8    C     C_R   0.849476 0.717310 0.060339 0.594692
C9    C     C_R   0.664327 0.541413 0.195048 -0.164436
C10   C     C_R   0.149479 0.384603 0.847595 0.417498
C11   C     C_R   0.095874 0.352962 0.952236 -0.287542
C12   C     C_R   0.404025 0.499548 0.979500 -0.031671
C13   C     C_R   0.220888 0.405395 0.018991 0.445312
C14   C     C_3   0.884481 0.400855 0.795300 -0.281471
C15   C     C_3   0.064436 0.232206 0.149412 -0.229021
C16   C     C_3   0.469149 0.874208 0.796234 -0.337274
C17   C     C_3   0.813576 0.076577 0.586688 -0.117562
C18   C     C_R   0.443764 0.553659 0.877235 -0.156401
C19   C     C_R   0.547670 0.547232 0.038302 0.029530
C20   C     C_R   0.709436 0.666965 0.001693 -0.062068
C21   C     C_R   0.725599 0.739041 0.909223 -0.271795
C22   C     C_R   0.591840 0.687135 0.848771 0.507111
C23   C     C_R   0.538250 0.477755 0.131560 -0.175322
C24   C     C_R   0.824393 0.657192 0.157779 -0.196978
Cu1   Cu    Cu3+1 0.321300 0.483160 0.488710 1.043776
Cu2   Cu    Cu3+1 0.678700 0.516840 0.511290 1.055161
F1    F     F_    0.978400 0.367087 0.399356 -0.499175
F2    F     F_    0.005004 0.831110 0.026051 -0.713129
H1    H     H_    0.924078 0.707067 0.206035 0.189416
H2    H     H_    0.133455 0.145333 0.098297 0.172976
H3    H     H_    0.911851 0.210030 0.148032 0.173152
H4    H     H_    0.074785 0.212763 0.229027 0.242641
H5    H     H_    0.325071 0.808377 0.832292 0.196514
H6    H     H_    0.454149 0.928714 0.727073 0.153380
H7    H     H_    0.521144 0.969942 0.849660 0.185292
H8    H     H_    0.837889 0.966466 0.612216 0.177015
H9    H     H_    0.707145 0.122822 0.646367 0.115679
H10   H     H_    0.948429 0.165018 0.579405 0.214458
H11   H     H_    0.290357 0.961679 0.501141 0.153058
H12   H     H_    0.008273 0.613928 0.582230 0.166125
H13   H     H_    0.840840 0.838055 0.883863 0.207795
H14   H     H_    0.432241 0.375135 0.158568 0.200724
H15   H     H_    0.954709 0.285664 0.981367 0.162499
H16   H     H_    0.942932 0.529253 0.784981 0.164336
H17   H     H_    0.785720 0.378936 0.871353 0.155441
H18   H     H_    0.801635 0.359798 0.735149 0.181805
N1    N     N_2   0.947230 0.542220 0.528320 -0.150725
N2    N     N_2   0.052770 0.457780 0.471680 0.192474
O1    O     O_R   0.383920 0.714220 0.492660 -0.635429
O2    O     O_3   0.153185 0.389960 0.124645 -0.568949
O3    O     O_3   0.599617 0.775697 0.765618 -0.598445
O4    O     O_3   0.762030 0.055046 0.489842 -0.529024
O5    O     O_R   0.685730 0.742660 0.511730 -0.560037
O6    O     O_R   0.275440 0.478800 0.636790 -0.586588
O7    O     O_R   0.577250 0.507240 0.655860 -0.590298
O8    O     O_R   0.314270 0.257340 0.488270 -0.585720
O9    O     O_R   0.616080 0.285780 0.507340 -0.493526
O10   O     O_R   0.422750 0.492760 0.344140 -0.545309
O11   O     O_R   0.724560 0.521200 0.363210 -0.516011
O12   O     O_3   0.029035 0.316407 0.783114 -0.584919

loop_
_geom_bond_atom_site_label_1
_geom_bond_atom_site_label_2
_ccdc_geom_bond_type
F1    N2    S    
H12   N1    S    
C10   O12   S    
C3    O4    S    
C16   O3    S    
C9    C24   A    
C11   H15   S    
C17   H8    S    
C16   H5    S    
C2    C18   A    
C14   O12   S    
Cu2   O11   S    
C7    O10   A    
C2    C4    S    
C19   C20   A    
C6    O9    A    
Cu1   O8    S    
C4    O6    A    
Cu2   O7    S    
C15   H4    S    
C14   H18   S    
C17   H9    S    
C21   C22   A    
C12   C13   A    
C15   H3    S    
C11   C13   A    
Cu1   N2    S    
C8    C20   A    
C23   H14   S    
Cu2   N1    S    
C21   H13   S    
C17   O4    S    
C7    O11   A    
C8    C24   A    
C14   H17   S    
C17   H10   S    
C5    H11   S    
C16   H7    S    
Cu1   O6    S    
C5    C6    S    
C8    F2    S    
Cu2   O9    S    
Cu1   O1    S    
C10   C11   A    
C13   O2    S    
C2    C10   A    
Cu2   O5    S    
C3    C5    D    
C19   C23   A    
C20   C21   A    
C12   C19   A    
C15   H2    S    
C14   H16   S    
Cu1   O10   S    
C15   O2    S    
C12   C18   A    
C4    O7    A    
C7    C9    S    
C1    O5    A    
C24   H1    S    
C9    C23   A    
C16   H6    S    
Cu1   Cu2   S    
C18   C22   A    
C1    O1    A    
N1    N2    D    
C6    O8    A    
C22   O3    S    
C1    C3    S    
