data_mof_unit_67578.cif
_audit_creation_date              2013-03-05T15:41:32-0500
_audit_creation_method            fapswitch 2.2
_symmetry_space_group_name_H-M    P1
_symmetry_Int_Tables_number       1
_space_group_crystal_system       triclinic
_cell_length_a                    15.811641
_cell_length_b                    8.785428
_cell_length_c                    7.621862
_cell_angle_alpha                 103.802669
_cell_angle_beta                  95.915438
_cell_angle_gamma                 93.533754
_cell_volume                      1018.63674304

loop_
_atom_site_label
_atom_site_type_symbol
_atom_site_description
_atom_site_fract_x
_atom_site_fract_y
_atom_site_fract_z
_atom_type_partial_charge
O1    O     O_R   0.506070 0.286130 0.619780 -0.524096
O2    O     O_R   0.493930 0.713870 0.380220 -0.525474
O3    O     O_R   0.490300 0.256770 0.308360 -0.624809
O4    O     O_R   0.509700 0.743230 0.691640 -0.563765
C1    C     C_R   0.493089 0.199508 0.452836 0.748745
C2    C     C_R   0.503175 0.799501 0.546491 0.824129
O5    O     O_R   0.386960 0.514660 0.655680 -0.599339
O6    O     O_R   0.613040 0.485340 0.344320 -0.546100
O7    O     O_R   0.371190 0.485310 0.344260 -0.578173
O8    O     O_R   0.628810 0.514690 0.655740 -0.564424
C3    C     C_R   0.340442 0.504145 0.500374 0.801251
C4    C     C_R   0.659206 0.492840 0.499270 0.828608
Cu1   Cu    Cu3+1 0.509330 0.517380 0.684380 1.003812
Cu2   Cu    Cu3+1 0.490670 0.482620 0.315620 1.000814
C5    C     C_2   0.479192 0.029244 0.431208 0.145019
C6    C     C_2   0.514408 0.967487 0.566408 0.218832
C7    C     C_3   0.978506 0.364871 0.559073 -0.157479
C8    C     C_3   0.018816 0.626600 0.445872 -0.267885
C9    C     C_3   0.027863 0.372591 0.396973 0.379840
C10   C     C_3   0.969647 0.616565 0.609766 0.327890
C11   C     C_1   0.251252 0.515651 0.502546 -0.134850
C12   C     C_1   0.747667 0.475011 0.496863 -0.169853
C13   C     C_3   0.034124 0.511000 0.675414 0.299660
C14   C     C_3   0.962741 0.476830 0.329395 0.337183
C15   C     C_3   0.083996 0.519206 0.512638 -0.172424
C16   C     C_3   0.914466 0.468928 0.492335 -0.098495
N1    N     N_2   0.476600 0.456420 0.038510 -0.202608
N2    N     N_2   0.523400 0.543580 0.961490 -0.238729
C17   C     C_1   0.176033 0.522599 0.506991 0.028977
C18   C     C_1   0.822565 0.464373 0.493643 0.130351
O9    O     O_3   0.059893 0.234583 0.299260 -0.582214
C19   C     C_3   0.093772 0.259338 0.143144 0.138111
H1    H     H_    0.129500 0.375361 0.167179 0.167019
H2    H     H_    0.041634 0.247108 0.030322 0.226264
C20   C     C_3   0.156804 0.138403 0.085965 -0.791167
H3    H     H_    0.211954 0.155487 0.193726 0.243685
H4    H     H_    0.125429 0.018266 0.063912 0.227551
H5    H     H_    0.180459 0.151581 0.957639 0.242230
O10   O     O_3   0.925494 0.737203 0.709272 -0.581902
C21   C     C_3   0.980467 0.843135 0.847274 0.046528
H6    H     H_    0.027628 0.908765 0.788624 0.208014
H7    H     H_    0.015417 0.782671 0.939165 0.176793
C22   C     C_3   0.927148 0.957010 0.962793 -0.706468
H8    H     H_    0.962974 0.009682 0.098333 0.277151
H9    H     H_    0.910727 0.052535 0.897105 0.241963
H10   H     H_    0.867259 0.894710 0.983304 0.255094
C23   C     C_2   0.957050 0.213661 0.607229 0.961906
O11   O     O_2   0.013928 0.148617 0.672211 -0.599655
O12   O     O_R   0.873196 0.144084 0.568964 -0.788726
H11   H     H_    0.867597 0.035383 0.592437 0.348860
C24   C     C_2   0.040122 0.788233 0.420137 0.868547
O13   O     O_2   0.983457 0.861980 0.369549 -0.584751
O14   O     O_R   0.123697 0.858388 0.468001 -0.772361
H12   H     H_    0.129829 0.968661 0.448851 0.367021
O15   O     O_3   0.923554 0.423790 0.147452 -0.600755
C25   C     C_3   0.899098 0.548275 0.072651 0.132882
H13   H     H_    0.888110 0.502050 0.922561 0.192994
H14   H     H_    0.950288 0.644479 0.099499 0.182579
C26   C     C_3   0.815851 0.607711 0.134453 -0.779914
H15   H     H_    0.826848 0.679321 0.277168 0.260459
H16   H     H_    0.790276 0.682548 0.046921 0.232967
H17   H     H_    0.767795 0.507083 0.122473 0.251407
O16   O     O_3   0.065140 0.524994 0.859944 -0.610080
C27   C     C_3   0.148927 0.599916 0.900595 0.031719
H18   H     H_    0.157212 0.700223 0.835774 0.149308
H19   H     H_    0.194151 0.511614 0.854040 0.233753
C28   C     C_3   0.170774 0.666109 0.104574 -0.779837
H20   H     H_    0.122645 0.619973 0.177269 0.258665
H21   H     H_    0.234704 0.634795 0.152003 0.263637
H22   H     H_    0.171214 0.795973 0.139752 0.229726
O17   O     O_3   0.417143 0.935038 0.298054 -0.607533
C29   C     C_3   0.416696 0.968983 0.126074 0.112945
H23   H     H_    0.482695 0.982241 0.089074 0.194710
H24   H     H_    0.382648 0.075529 0.124252 0.183763
C30   C     C_3   0.366501 0.835897 0.981558 -0.713330
H25   H     H_    0.298009 0.835752 0.999313 0.221737
H26   H     H_    0.373703 0.853363 0.844214 0.214335
H27   H     H_    0.389298 0.721470 0.992213 0.274650
O18   O     O_3   0.563164 0.059168 0.721893 -0.545976
C31   C     C_3   0.650502 0.051832 0.700135 0.065404
H28   H     H_    0.664954 0.085478 0.573530 0.121888
H29   H     H_    0.669914 0.931428 0.695998 0.168544
C32   C     C_3   0.702869 0.167154 0.861423 -0.667368
H30   H     H_    0.691283 0.135282 0.989999 0.246016
H31   H     H_    0.771837 0.164464 0.846674 0.215815
H32   H     H_    0.684689 0.288340 0.868098 0.244348
C33   C     C_2   0.405752 0.359010 0.933470 1.096799
O19   O     O_2   0.335105 0.407710 0.932778 -0.670192
O20   O     O_R   0.414373 0.201504 0.853061 -0.758857
H33   H     H_    0.358464 0.142428 0.787707 0.297630
C34   C     C_2   0.590769 0.665526 0.047249 1.038835
O21   O     O_2   0.626328 0.734334 0.950117 -0.606473
O22   O     O_R   0.618417 0.713039 0.231640 -0.762355
H34   H     H_    0.665549 0.802409 0.265186 0.289053

loop_
_geom_bond_atom_site_label_1
_geom_bond_atom_site_label_2
_geom_bond_distance
_ccdc_geom_bond_type
O15   C25   1.405295 S    
O22   H34   1.014906 S    
C20   H3    1.111285 S    
C22   H8    1.105085 S    
C9    O9    1.415541 S    
C23   O12   1.397128 S    
O14   H12   1.013944 S    
C14   O15   1.415301 S    
O5    C3    1.307943 A    
C7    C13   1.537775 S    
O1    C1    1.305833 A    
C7    C16   1.532848 S    
C20   H4    1.105427 S    
C14   C16   1.536162 S    
C31   C32   1.521770 S    
C5    C6    1.360899 D    
C4    C12   1.418508 S    
C25   H13   1.110152 S    
O4    Cu1   1.971348 S    
C30   H26   1.109689 S    
C21   C22   1.524314 S    
C23   O11   1.219522 D    
Cu1   N2    2.056278 S    
Cu2   N1    2.056277 S    
C21   H7    1.100920 S    
C26   H15   1.109164 S    
Cu1   Cu2   2.736496 S    
O2    C2    1.298736 A    
C8    C15   1.565931 S    
C29   C30   1.516944 S    
O2    Cu2   1.969051 S    
C22   H10   1.108222 S    
C8    C24   1.501985 S    
C15   C17   1.459012 S    
C26   H16   1.107860 S    
C28   H20   1.098379 S    
C19   C20   1.520257 S    
C20   H5    1.110875 S    
O18   C31   1.411303 S    
C29   H24   1.110404 S    
O10   C21   1.404542 S    
C10   O10   1.415155 S    
C29   H23   1.115098 S    
C11   C17   1.198184 T    
C3    C11   1.421571 S    
C24   O13   1.220956 D    
C28   H21   1.111112 S    
C27   H19   1.108321 S    
C30   H25   1.105108 S    
C27   C28   1.519127 S    
C34   O22   1.382551 S    
C22   H9    1.105865 S    
C32   H30   1.110835 S    
C10   C13   1.543603 S    
O6    C4    1.308132 A    
O7    Cu2   1.924897 S    
N1    C33   1.413598 S    
O7    C3    1.309490 A    
O3    Cu2   1.971348 S    
O8    C4    1.307823 A    
O4    C2    1.312509 A    
C21   H6    1.107713 S    
C32   H31   1.108863 S    
C16   C18   1.452317 S    
C33   O20   1.394557 S    
C8    C14   1.562744 S    
O1    Cu1   1.969051 S    
C34   O21   1.219455 D    
C26   H17   1.109788 S    
O6    Cu2   1.922685 S    
C12   C18   1.195973 T    
O9    C19   1.410900 S    
C7    C23   1.489067 S    
C31   H28   1.115339 S    
O3    C1    1.313263 A    
O8    Cu1   1.924897 S    
C5    O17   1.404068 S    
C25   C26   1.523896 S    
C28   H22   1.107376 S    
C19   H1    1.100123 S    
C6    O18   1.388225 S    
C9    C14   1.547978 S    
O17   C29   1.411415 S    
C27   H18   1.115648 S    
C10   C16   1.546059 S    
C13   O16   1.414794 S    
C7    C9    1.540240 S    
C31   H29   1.113657 S    
C25   H14   1.100159 S    
N2    C34   1.446162 S    
C8    C10   1.554645 S    
C13   C15   1.550337 S    
C9    C15   1.542735 S    
C30   H27   1.106675 S    
C1    C5    1.465388 S    
C2    C6    1.444953 S    
O16   C27   1.412430 S    
O5    Cu1   1.922685 S    
C32   H32   1.110692 S    
C33   O19   1.220524 D    
O12   H11   1.013012 S    
N1    N2    1.308710 D    
C24   O14   1.397199 S    
O20   H33   1.014046 S    
C19   H2    1.108823 S    
