data_mof_unit_56504.cif
_audit_creation_date              2012-10-26T19:45:11-0400
_audit_creation_method            fapswitch 2.2
_symmetry_space_group_name_H-M    P1
_symmetry_Int_Tables_number       1
_space_group_crystal_system       triclinic
_cell_length_a                    9.580303
_cell_length_b                    10.824313
_cell_length_c                    13.917101
_cell_angle_alpha                 91.478997
_cell_angle_beta                  83.852574
_cell_angle_gamma                 89.687011
_cell_volume                      1434.38001503

loop_
_atom_site_label
_atom_site_type_symbol
_atom_type_description
_atom_site_fract_x
_atom_site_fract_y
_atom_site_fract_z
_atom_type_partial_charge
C1    C     C_R   0.499678 0.737666 0.502131 0.553501
C2    C     C_R   0.937015 0.414265 0.444965 0.122316
C3    C     C_1   0.539219 0.500018 0.214180 0.028663
C4    C     C_1   0.460781 0.499981 0.785820 0.028666
C5    C     C_2   0.559148 0.500973 0.023475 0.027881
C6    C     C_2   0.440852 0.499026 0.976524 0.027881
C7    C     C_1   0.450648 0.499630 0.872584 -0.019217
C8    C     C_1   0.549352 0.500370 0.127416 -0.019217
C9    C     C_R   0.602941 0.938930 0.547060 0.086947
C10   C     C_R   0.397071 0.061070 0.452930 0.086960
C11   C     C_R   0.602562 0.067209 0.542464 -0.120734
C12   C     C_R   0.500322 0.262335 0.497869 0.553485
C13   C     C_R   0.397446 0.932792 0.457531 -0.120722
C14   C     C_2   0.120603 0.681755 0.617428 0.250842
C15   C     C_2   0.879397 0.318246 0.382571 0.250840
C16   C     C_2   0.294558 0.495955 0.025604 0.229902
C17   C     C_2   0.705442 0.504044 0.974396 0.229902
C18   C     C_R   0.500168 0.128293 0.496652 0.028971
C19   C     C_R   0.499836 0.871708 0.503345 0.028981
C20   C     C_R   0.476281 0.500191 0.682822 0.546251
C21   C     C_R   0.523719 0.499809 0.317178 0.546243
C22   C     C_R   0.914823 0.584407 0.554281 0.070091
C23   C     C_R   0.085177 0.415593 0.445719 0.070093
C24   C     C_R   0.062985 0.585735 0.555035 0.122316
Cu1   Cu    Cu3+1 0.359340 0.499980 0.500000 0.969460
Cu2   Cu    Cu3+1 0.640660 0.500020 0.500000 0.969466
H1    H     H_    0.849004 0.650227 0.598269 0.190056
H2    H     H_    0.651716 0.840827 0.660237 0.231671
H3    H     H_    0.222181 0.060084 0.379036 0.258935
H4    H     H_    0.348336 0.159241 0.339777 0.231659
H5    H     H_    0.150996 0.349773 0.401731 0.190053
H6    H     H_    0.680273 0.119809 0.576908 0.146119
H7    H     H_    0.319736 0.880190 0.423088 0.146119
H8    H     H_    0.222102 0.672800 0.642555 0.166146
H9    H     H_    0.777898 0.327199 0.357445 0.166143
H10   H     H_    0.207154 0.495155 0.981912 0.117420
H11   H     H_    0.792846 0.504844 0.018087 0.117420
H12   H     H_    0.777908 0.939902 0.620877 0.258962
N1    N     N_R   0.147930 0.499970 0.499980 -0.280925
N2    N     N_R   0.852070 0.500030 0.500020 -0.280925
N3    N     N_3   0.705002 0.877148 0.597875 -0.576457
N4    N     N_3   0.295025 0.122850 0.402103 -0.576436
O1    O     O_R   0.381260 0.680340 0.500000 -0.534946
O2    O     O_2   0.947759 0.225421 0.356578 -0.528470
O3    O     O_2   0.268561 0.494156 0.113346 -0.491159
O4    O     O_2   0.731439 0.505842 0.886654 -0.491158
O5    O     O_R   0.618740 0.319660 0.500000 -0.534945
O6    O     O_R   0.618830 0.680370 0.500010 -0.465792
O7    O     O_R   0.381170 0.319630 0.499990 -0.465810
O8    O     O_R   0.364420 0.499960 0.637840 -0.534491
O9    O     O_R   0.635580 0.500040 0.362160 -0.534491
O10   O     O_R   0.601990 0.499990 0.637850 -0.472990
O11   O     O_R   0.398010 0.500010 0.362150 -0.472995
O12   O     O_2   0.052242 0.774580 0.643420 -0.528484

loop_
_geom_bond_atom_site_label_1
_geom_bond_atom_site_label_2
_ccdc_geom_bond_type
C16   O3    D    
C14   H8    S    
C5    C8    S    
C1    O6    A    
C13   H7    S    
C6    C7    S    
Cu2   O10   S    
H3    N4    S    
C10   N4    S    
C9    N3    S    
Cu2   O6    S    
C22   N2    A    
Cu1   O1    S    
C12   C18   S    
C12   O7    A    
C11   C18   A    
C17   H11   S    
Cu2   O9    S    
Cu1   N1    S    
C21   O11   A    
C2    C15   S    
C9    C11   A    
Cu2   N2    S    
Cu2   O5    S    
C10   C18   A    
C4    C7    T    
C23   N1    A    
C15   H9    S    
C14   O12   D    
Cu1   O11   S    
C11   H6    S    
Cu1   O7    S    
C22   H1    S    
C12   O5    A    
C5    C6    D    
C22   C24   A    
C3    C21   S    
C5    C17   S    
C13   C19   A    
C6    C16   S    
C4    C20   S    
C2    N2    A    
H2    N3    S    
C21   O9    A    
C24   N1    A    
C17   O4    D    
H12   N3    S    
C20   O10   A    
C3    C8    T    
C14   C24   S    
C2    C23   A    
C15   O2    D    
Cu1   O8    S    
H4    N4    S    
C20   O8    A    
Cu1   Cu2   S    
C1    C19   S    
C1    O1    A    
C16   H10   S    
C9    C19   A    
C10   C13   A    
C23   H5    S    
