data_mof_unit_30920.cif
_audit_creation_date              2013-03-05T15:50:13-0500
_audit_creation_method            fapswitch 2.2
_symmetry_space_group_name_H-M    P1
_symmetry_Int_Tables_number       1
_space_group_crystal_system       triclinic
_cell_length_a                    15.033225
_cell_length_b                    15.778484
_cell_length_c                    9.667647
_cell_angle_alpha                 88.669862
_cell_angle_beta                  89.615713
_cell_angle_gamma                 90.677801
_cell_volume                      2292.34612147

loop_
_atom_site_label
_atom_site_type_symbol
_atom_site_description
_atom_site_fract_x
_atom_site_fract_y
_atom_site_fract_z
_atom_type_partial_charge
O1    O     O_R   0.409820 0.909830 0.618810 -0.482408
O2    O     O_R   0.409820 0.090170 0.618810 -0.542202
O3    O     O_R   0.909820 0.409830 0.618810 -0.546315
O4    O     O_R   0.909820 0.590170 0.618810 -0.538228
O5    O     O_R   0.409840 0.909830 0.381240 -0.549068
O6    O     O_R   0.409840 0.090170 0.381240 -0.480343
O7    O     O_R   0.909840 0.409830 0.381240 -0.498397
O8    O     O_R   0.909840 0.590170 0.381240 -0.514399
C1    C     C_R   0.387378 0.875893 0.502361 0.877426
C2    C     C_R   0.385538 0.122927 0.501461 0.853317
C3    C     C_R   0.887249 0.375952 0.502657 0.869827
C4    C     C_R   0.888860 0.624898 0.499629 0.864234
Cu1   Cu    Cu3+1 0.499990 0.000000 0.640660 1.141129
Cu2   Cu    Cu3+1 0.999990 0.500000 0.640660 1.125857
Cu3   Cu    Cu3+1 0.500010 0.000000 0.359340 1.077325
Cu4   Cu    Cu3+1 0.000010 0.500000 0.359340 1.084542
O9    O     O_R   0.590170 0.090170 0.618760 -0.523236
O10   O     O_R   0.590170 0.909830 0.618760 -0.525318
O11   O     O_R   0.090170 0.590170 0.618760 -0.466711
O12   O     O_R   0.090170 0.409830 0.618760 -0.539801
O13   O     O_R   0.590190 0.090180 0.381190 -0.612520
O14   O     O_R   0.590190 0.909820 0.381190 -0.638251
O15   O     O_R   0.090190 0.590180 0.381190 -0.630602
O16   O     O_R   0.090190 0.409820 0.381190 -0.614108
C5    C     C_R   0.615770 0.121612 0.498044 0.836884
C6    C     C_R   0.620768 0.882503 0.502445 0.874542
C7    C     C_R   0.117279 0.619611 0.497327 0.854107
C8    C     C_R   0.114503 0.377787 0.501649 0.832355
C9    C     C_R   0.347402 0.241793 0.761626 0.234577
C10   C     C_R   0.419132 0.693585 0.621357 0.244594
C11   C     C_R   0.884814 0.754422 0.732633 0.292587
C12   C     C_R   0.808332 0.285390 0.768033 0.352183
C13   C     C_R   0.321878 0.301384 0.860588 0.340100
C14   C     C_R   0.440035 0.605926 0.630480 0.336594
C15   C     C_R   0.861163 0.789718 0.860448 0.336869
C16   C     C_R   0.745222 0.277892 0.877616 0.280429
C17   C     C_R   0.774808 0.816625 0.880157 -0.221599
C18   C     C_R   0.654894 0.268651 0.847333 -0.150597
C19   C     C_R   0.231641 0.316437 0.873947 -0.201772
C20   C     C_R   0.381711 0.546358 0.576923 -0.081916
H1    H     H_    0.753763 0.839587 0.979795 0.175792
H2    H     H_    0.606069 0.264763 0.929789 0.252535
H3    H     H_    0.204070 0.342666 0.967147 0.160734
H4    H     H_    0.396989 0.479434 0.582557 0.193509
C21   C     C_R   0.717675 0.823806 0.768891 -0.031722
C22   C     C_R   0.629225 0.248465 0.714681 -0.125355
C23   C     C_R   0.176856 0.299026 0.764109 -0.040211
C24   C     C_R   0.299059 0.571196 0.530986 -0.048967
H5    H     H_    0.653811 0.847651 0.796346 0.220150
H6    H     H_    0.560231 0.233161 0.695269 0.188855
H7    H     H_    0.106346 0.307060 0.779133 0.231905
H8    H     H_    0.253226 0.522246 0.498569 0.172152
C25   C     C_R   0.742845 0.799260 0.633792 0.122678
C26   C     C_R   0.693910 0.241352 0.610880 0.020591
C27   C     C_R   0.215186 0.280062 0.634736 0.051862
C28   C     C_R   0.275942 0.657259 0.525336 0.030211
C29   C     C_R   0.296441 0.235820 0.635386 -0.107532
C30   C     C_R   0.340390 0.720629 0.552405 -0.130423
C31   C     C_R   0.821472 0.750776 0.622621 -0.123494
C32   C     C_R   0.777393 0.279482 0.630039 -0.106656
C33   C     C_R   0.321377 0.193770 0.508697 -0.234051
C34   C     C_R   0.321620 0.806228 0.507445 -0.187049
C35   C     C_R   0.834178 0.702743 0.500588 -0.195647
C36   C     C_R   0.828480 0.300468 0.510146 -0.209810
C37   C     C_R   0.278488 0.217775 0.384613 0.699700
C38   C     C_R   0.238513 0.825127 0.449759 0.695376
C39   C     C_R   0.786239 0.724771 0.381445 0.691320
C40   C     C_R   0.814431 0.253900 0.390990 0.732631
H9    H     H_    0.685615 0.799522 0.289795 0.195884
H10   H     H_    0.736870 0.156984 0.296324 0.208925
H11   H     H_    0.182952 0.296107 0.285621 0.209359
H12   H     H_    0.109103 0.779347 0.398401 0.218785
C41   C     C_R   0.719644 0.784157 0.385443 -0.238312
C42   C     C_R   0.743366 0.196663 0.385386 -0.128522
C43   C     C_R   0.210416 0.275928 0.384208 -0.181206
C44   C     C_R   0.173179 0.763048 0.441328 -0.136248
C45   C     C_R   0.693767 0.819842 0.509989 -0.110459
C46   C     C_R   0.681320 0.191134 0.494273 -0.159608
C47   C     C_R   0.177561 0.307239 0.507742 -0.164140
C48   C     C_R   0.189759 0.680954 0.488849 -0.136630
C49   C     C_R   0.661611 0.012456 0.145942 -0.314643
C50   C     C_R   0.161995 0.507663 0.146964 -0.298197
H13   H     H_    0.665654 0.003247 0.253638 0.265431
H14   H     H_    0.167218 0.502719 0.255392 0.248817
C51   C     C_R   0.743675 0.022677 0.080385 0.096529
C52   C     C_R   0.243124 0.520452 0.080486 0.149169
C53   C     C_R   0.745273 0.028961 0.937541 0.524370
C54   C     C_R   0.245091 0.523795 0.938348 0.520057
C55   C     C_R   0.667755 0.018182 0.861858 0.462647
C56   C     C_R   0.167777 0.511459 0.863065 0.505301
C57   C     C_R   0.580987 0.010596 0.925558 -0.093071
C58   C     C_R   0.081261 0.504532 0.926371 -0.068756
C59   C     C_R   0.579839 0.009565 0.074792 0.039014
C60   C     C_R   0.080183 0.503654 0.075487 0.030959
N1    N     N_R   0.501200 0.000000 0.147910 -0.247946
N2    N     N_R   0.001200 0.500000 0.147910 -0.240120
C61   C     C_R   0.425570 0.981525 0.073672 0.317962
C62   C     C_R   0.923109 0.500716 0.072262 0.350859
C63   C     C_R   0.427143 0.978183 0.926942 0.779819
C64   C     C_R   0.923948 0.500169 0.925161 0.693819
N3    N     N_R   0.501270 0.000000 0.852040 -0.224174
N4    N     N_R   0.001270 0.500000 0.852040 -0.220136
F1    F     F_    0.304001 0.187523 0.260518 -0.561091
F2    F     F_    0.219327 0.905210 0.405871 -0.566033
F3    F     F_    0.803220 0.688847 0.258903 -0.580175
F4    F     F_    0.873575 0.259965 0.284917 -0.553471
F5    F     F_    0.823976 0.036375 0.868029 -0.526298
F6    F     F_    0.324448 0.529600 0.870940 -0.583894
F7    F     F_    0.686869 0.002726 0.729800 -0.613645
F8    F     F_    0.185816 0.498203 0.731017 -0.651589
F9    F     F_    0.352003 0.955164 0.859866 -0.543277
F10   F     F_    0.845894 0.498603 0.855580 -0.599455
N5    N     N_R   0.380958 0.168103 0.828025 0.138584
O17   O     O_R   0.459838 0.170561 0.882084 -0.399385
O18   O     O_R   0.321672 0.116470 0.882241 -0.255742
N6    N     N_R   0.470919 0.751184 0.699218 0.115570
O19   O     O_R   0.434381 0.786456 0.805451 -0.270001
O20   O     O_R   0.556562 0.743923 0.696016 -0.395852
N7    N     N_R   0.976214 0.736332 0.707785 0.131155
O21   O     O_R   0.017668 0.778760 0.610100 -0.357195
O22   O     O_R   0.022033 0.695298 0.800794 -0.314365
N8    N     N_R   0.902149 0.280276 0.796260 0.159392
O23   O     O_R   0.936504 0.317005 0.902761 -0.328374
O24   O     O_R   0.952923 0.234126 0.719499 -0.322336
N9    N     N_R   0.381490 0.325352 0.968478 0.191266
O25   O     O_R   0.462731 0.348039 0.937480 -0.276552
O26   O     O_R   0.352602 0.334605 0.094253 -0.266595
N10   N     N_R   0.516665 0.575702 0.703567 0.182171
O27   O     O_R   0.564631 0.516124 0.651090 -0.312727
O28   O     O_R   0.527582 0.594400 0.832827 -0.161791
N11   N     N_R   0.925714 0.805239 0.966395 0.170214
O29   O     O_R   0.001008 0.842451 0.934236 -0.183679
O30   O     O_R   0.902232 0.799967 0.096054 -0.268969
N12   N     N_R   0.771800 0.265700 0.017961 0.162548
O31   O     O_R   0.830984 0.208549 0.046130 -0.219235
O32   O     O_R   0.718957 0.289658 0.116296 -0.310495
N13   N     N_R   0.343529 0.961420 0.142742 0.187871
O33   O     O_R   0.305891 0.887907 0.124152 -0.256267
O34   O     O_R   0.296612 0.021807 0.194187 -0.159871
N14   N     N_R   0.838033 0.504868 0.138667 0.177284
O35   O     O_R   0.802112 0.435297 0.187921 -0.243717
O36   O     O_R   0.784634 0.564751 0.098920 -0.207564
N15   N     N_R   0.825008 0.021304 0.159598 0.195509
O37   O     O_R   0.823124 0.004408 0.292061 -0.333356
O38   O     O_R   0.902024 0.034054 0.099964 -0.124875
N16   N     N_R   0.324156 0.525438 0.158134 0.191586
O39   O     O_R   0.333693 0.479379 0.270211 -0.367789
O40   O     O_R   0.390853 0.571844 0.113033 -0.193795

loop_
_geom_bond_atom_site_label_1
_geom_bond_atom_site_label_2
_geom_bond_distance
_ccdc_geom_bond_type
C30   C34   1.440874 A    
C13   N9    1.434188 S    
C50   C60   1.416238 A    
C9    C13   1.411392 A    
Cu4   O16   1.985629 S    
O10   C6    1.297019 A    
H12   C44   1.082826 S    
N10   O27   1.301660 A    
C51   N15   1.447181 S    
C25   C31   1.420413 A    
C10   N6    1.421808 S    
O7    C3    1.319148 A    
C23   H7    1.078298 S    
N13   O34   1.298409 A    
C13   C19   1.385647 A    
Cu1   O10   1.990656 S    
C14   C20   1.389052 A    
C12   C16   1.419333 A    
C19   C23   1.378862 A    
C15   C17   1.383960 A    
N14   O36   1.300025 A    
N5    O17   1.299612 A    
C24   H8    1.082144 S    
Cu3   N1    2.043990 S    
C54   F6    1.356661 S    
C52   C54   1.374032 A    
Cu2   N4    2.043768 S    
C40   C42   1.392879 A    
N15   O37   1.302043 A    
C55   F7    1.335350 S    
C49   C59   1.413452 A    
N6    O19   1.300937 A    
C20   C24   1.380415 A    
C11   C31   1.433999 A    
O2    Cu1   1.985410 S    
C8    C47   1.471007 S    
O13   C5    1.302845 A    
C61   C63   1.420788 A    
O6    Cu3   1.990552 S    
Cu3   O14   1.985629 S    
N15   O38   1.301343 A    
C28   C30   1.414056 A    
N2    C62   1.387310 A    
H10   C42   1.080542 S    
C44   C48   1.390171 A    
H9    C41   1.083704 S    
C39   C41   1.380261 A    
O15   C7    1.291501 A    
O4    C4    1.306423 A    
O11   C7    1.312962 A    
C58   N4    1.406948 A    
C51   C53   1.382250 A    
C21   C25   1.421042 A    
O8    Cu4   1.990552 S    
O4    Cu2   1.985410 S    
C40   F4    1.353697 S    
C57   N3    1.407661 A    
C52   N16   1.437483 S    
C61   N13   1.427421 S    
C49   H13   1.050180 S    
C32   C36   1.416740 A    
N16   O40   1.301363 A    
N7    O22   1.301546 A    
C35   C39   1.401926 A    
Cu4   N2    2.043990 S    
C6    C45   1.486787 S    
O5    Cu3   1.960376 S    
C10   C14   1.422879 A    
C5    C46   1.465532 S    
C38   F2    1.358401 S    
O1    C1    1.302598 A    
N14   O35   1.296773 A    
C3    C36   1.474647 S    
C4    C35   1.486216 S    
C34   C38   1.404023 A    
C39   F3    1.349254 S    
C19   H3    1.082257 S    
O12   C8    1.302563 A    
C50   C52   1.385251 A    
C1    C34   1.469371 S    
N10   O28   1.301655 A    
C25   C45   1.442856 A    
O5    C1    1.316515 A    
Cu2   O12   1.990656 S    
C57   C59   1.442439 A    
C27   C47   1.414832 A    
C56   C58   1.435615 A    
C21   H5    1.069355 S    
O8    C4    1.318358 A    
C63   F9    1.356264 S    
C22   C26   1.399984 A    
C58   C60   1.441331 A    
C60   N2    1.374313 A    
C11   N7    1.426598 S    
O3    Cu2   1.969392 S    
C14   N10   1.435970 S    
O7    Cu4   1.960376 S    
C63   N3    1.361324 A    
C64   N4    1.356482 A    
C9    C29   1.449644 A    
C64   F10   1.356703 S    
Cu4   O15   1.969606 S    
C50   H14   1.052859 S    
Cu1   Cu3   2.719699 S    
O14   C6    1.326541 A    
N9    O25   1.299737 A    
C11   C15   1.412156 A    
C2    C33   1.487590 S    
O1    Cu1   1.969392 S    
C37   F1    1.356093 S    
C17   C21   1.384438 A    
N11   O29   1.301423 A    
O2    C2    1.292382 A    
C36   C40   1.396569 A    
N8    O24   1.301624 A    
C12   N8    1.441161 S    
C23   C27   1.413397 A    
N16   O39   1.300282 A    
C24   C28   1.405612 A    
C9    N5    1.414920 S    
C41   C45   1.395890 A    
Cu2   O11   1.960477 S    
O16   C8    1.314537 A    
C54   C56   1.389620 A    
N11   O30   1.300504 A    
C16   N12   1.426372 S    
O6    C2    1.333457 A    
N12   O32   1.300543 A    
N7    O21   1.296636 A    
N1    C61   1.380423 A    
C29   C33   1.455439 A    
N12   O31   1.299903 A    
N13   O33   1.301303 A    
C22   H6    1.080792 S    
C31   C35   1.429912 A    
C28   C48   1.397959 A    
Cu1   O9    1.960477 S    
C26   C32   1.400635 A    
O9    C5    1.311029 A    
C27   C29   1.414051 A    
C15   N11   1.438796 S    
H11   C43   1.083764 S    
Cu3   O13   1.969606 S    
C43   C47   1.392693 A    
C10   C30   1.427250 A    
C16   C18   1.397691 A    
C37   C43   1.382488 A    
N6    O20   1.294150 A    
Cu2   Cu4   2.719699 S    
C17   H1    1.083539 S    
C62   C64   1.422314 A    
C18   C22   1.384805 A    
O3    C3    1.300196 A    
C18   H2    1.080182 S    
C33   C37   1.411833 A    
C20   H4    1.083514 S    
C53   F5    1.359259 S    
C7    C48   1.449472 S    
C59   N1    1.378280 A    
C55   C57   1.441236 A    
C42   C46   1.402292 A    
C62   N14   1.430071 S    
N9    O26   1.300430 A    
C53   C55   1.390980 A    
C12   C32   1.420512 A    
C26   C46   1.405444 A    
N8    O23   1.300163 A    
Cu1   N3    2.043768 S    
C49   C51   1.389146 A    
C38   C44   1.383036 A    
N5    O18   1.299814 A    
C56   F8    1.325165 S    
