data_mof_unit_14188.cif
_audit_creation_date              2012-12-10T17:07:43-0500
_audit_creation_method            fapswitch 2.2
_symmetry_space_group_name_H-M    P1
_symmetry_Int_Tables_number       1
_space_group_crystal_system       triclinic
_cell_length_a                    10.644444
_cell_length_b                    10.659969
_cell_length_c                    10.068128
_cell_angle_alpha                 88.746886
_cell_angle_beta                  89.996391
_cell_angle_gamma                 89.785779
_cell_volume                      1142.14367117

loop_
_atom_site_label
_atom_site_type_symbol
_atom_type_description
_atom_site_fract_x
_atom_site_fract_y
_atom_site_fract_z
_atom_type_partial_charge
C1    C     C_R   0.512308 0.262803 0.501122 0.895946
C2    C     C_2   0.444679 0.583585 0.071405 0.022145
C3    C     C_R   0.258054 0.501798 0.500190 0.900598
C4    C     C_R   0.498681 0.737405 0.498499 0.970207
C5    C     C_R   0.742041 0.499589 0.500050 0.901237
C6    C     C_3   0.071142 0.518138 0.644043 -0.397490
C7    C     C_3   0.928784 0.523312 0.642665 -0.503110
C8    C     C_3   0.072265 0.611689 0.407495 -0.122529
C9    C     C_3   0.075583 0.375203 0.448316 -0.444169
C10   C     C_3   0.121708 0.503039 0.500419 0.019016
C11   C     C_3   0.878612 0.499623 0.499449 0.001687
C12   C     C_3   0.926705 0.606208 0.402140 0.240626
C13   C     C_3   0.929856 0.369389 0.450202 0.444904
C14   C     C_2   0.568739 0.930133 0.403830 -0.244556
C15   C     C_2   0.497300 0.870022 0.493173 -0.329349
C16   C     C_2   0.561753 0.066245 0.393294 0.471690
C17   C     C_2   0.551446 0.132730 0.505582 -0.135696
C18   C     C_2   0.423708 0.563666 0.924523 0.633064
H1    H     H_    0.108647 0.604093 0.690210 0.223828
H2    H     H_    0.110940 0.362178 0.345345 0.214630
H3    H     H_    0.117251 0.297085 0.509210 0.138690
H4    H     H_    0.805054 0.308240 0.322428 0.370010
H5    H     H_    0.562706 0.058637 0.200420 0.329635
H6    H     H_    0.662681 0.130498 0.669209 0.205510
H7    H     H_    0.512618 0.086262 0.698096 0.197569
H8    H     H_    0.265228 0.654308 0.928794 0.317304
H9    H     H_    0.657792 0.423320 0.839689 0.372936
H10   H     H_    0.337516 0.675463 0.204875 0.228259
H11   H     H_    0.473145 0.750298 0.158038 0.225298
H12   H     H_    0.107460 0.594815 0.305036 0.144473
H13   H     H_    0.082498 0.761412 0.536959 0.204936
H14   H     H_    0.096001 0.801609 0.374540 0.226463
H15   H     H_    0.871991 0.744908 0.515278 0.335756
H16   H     H_    0.934340 0.265561 0.628731 0.167117
H17   H     H_    0.910045 0.180206 0.494015 0.207051
H18   H     H_    0.901513 0.579729 0.299225 0.195056
H19   H     H_    0.624670 0.879394 0.332077 0.185742
H20   H     H_    0.435869 0.917944 0.561757 0.155702
H21   H     H_    0.101856 0.437080 0.708009 0.201134
H22   H     H_    0.518258 0.414744 0.108260 0.228669
H23   H     H_    0.892170 0.452556 0.715501 0.210109
H24   H     H_    0.896686 0.615149 0.680277 0.198178
N1    N     N_2   0.501360 0.501330 0.852150 0.020161
N2    N     N_2   0.501390 0.501360 0.147810 -0.182968
N3    N     N_3   0.588012 0.078241 0.632169 -0.468310
N4    N     N_3   0.397188 0.697447 0.125499 -0.474597
N5    N     N_3   0.121332 0.734206 0.446797 -0.462290
N6    N     N_3   0.886776 0.265263 0.537956 -0.500530
O1    O     O_R   0.499980 0.319060 0.613040 -0.644436
O2    O     O_3   0.557389 0.124002 0.268853 -0.757143
O3    O     O_3   0.321985 0.618955 0.861123 -0.783847
O4    O     O_3   0.611436 0.469128 0.908583 -0.749341
O5    O     O_3   0.868142 0.723627 0.420368 -0.783898
O6    O     O_R   0.500020 0.319100 0.386900 -0.554939
O7    O     O_R   0.314770 0.499960 0.613070 -0.581862
O8    O     O_R   0.314820 0.500000 0.386930 -0.649165
O9    O     O_R   0.499980 0.680900 0.613100 -0.574331
O10   O     O_R   0.500020 0.680940 0.386960 -0.633092
O11   O     O_R   0.685180 0.500000 0.613070 -0.643970
O12   O     O_R   0.685230 0.500040 0.386930 -0.593577
O13   O     O_3   0.889151 0.348157 0.318901 -0.773830
Zn1   Zn    Zn3+2 0.499970 0.499970 0.650990 1.006177
Zn2   Zn    Zn3+2 0.500030 0.500030 0.349010 0.977514

loop_
_geom_bond_atom_site_label_1
_geom_bond_atom_site_label_2
_ccdc_geom_bond_type
C4    O9    A    
C6    C10   S    
C13   N6    S    
C2    N2    D    
C11   C12   S    
C15   H20   S    
C6    C7    S    
C12   H18   S    
C9    C10   S    
C9    H2    S    
C1    C17   S    
C12   O5    S    
C8    C12   S    
H11   N4    S    
C1    O6    A    
C8    H12   S    
C4    C15   S    
C18   N1    D    
O8    Zn2   S    
C13   O13   S    
O9    Zn1   S    
C3    C10   S    
H13   N5    S    
H8    O3    S    
C2    N4    S    
H4    O13   S    
C7    C11   S    
C6    H1    S    
C11   C13   S    
H10   N4    S    
H17   N6    S    
C3    O7    A    
O12   Zn2   S    
H6    N3    S    
C17   N3    S    
C18   O3    S    
C5    C11   S    
C7    H23   S    
N2    Zn2   S    
H15   O5    S    
H14   N5    S    
C14   C16   S    
N1    O4    S    
C8    N5    S    
C2    C18   S    
O6    Zn2   S    
C5    O11   A    
C9    H3    S    
O7    Zn1   S    
H7    N3    S    
H22   N2    S    
H16   N6    S    
H9    O4    S    
C8    C10   S    
C3    O8    A    
C7    H24   S    
C4    O10   A    
O10   Zn2   S    
C9    C13   S    
C6    H21   S    
H5    O2    S    
O1    Zn1   S    
O11   Zn1   S    
C5    O12   A    
C14   C15   D    
C1    O1    A    
N1    Zn1   S    
C16   O2    S    
C16   C17   D    
C14   H19   S    
