data_mof_unit_55719.cif
_audit_creation_date              2012-12-10T16:49:26-0500
_audit_creation_method            fapswitch 2.2
_symmetry_space_group_name_H-M    P1
_symmetry_Int_Tables_number       1
_space_group_crystal_system       triclinic
_cell_length_a                    19.353738
_cell_length_b                    8.7014
_cell_length_c                    7.608067
_cell_angle_alpha                 102.577274
_cell_angle_beta                  96.174197
_cell_angle_gamma                 95.293302
_cell_volume                      1234.36926099

loop_
_atom_site_label
_atom_site_type_symbol
_atom_type_description
_atom_site_fract_x
_atom_site_fract_y
_atom_site_fract_z
_atom_type_partial_charge
C1    C     C_R   0.497163 0.200234 0.453676 0.870163
C2    C     C_R   0.502837 0.799766 0.546324 0.870163
C3    C     C_2   0.493597 0.031686 0.428720 -0.370348
C4    C     C_2   0.506403 0.968314 0.571280 -0.370349
C5    C     C_R   0.367725 0.499743 0.499259 0.768297
C6    C     C_R   0.632275 0.500257 0.500741 0.768298
C7    C     C_R   0.261588 0.497730 0.658006 -0.189603
C8    C     C_R   0.738413 0.502279 0.341998 -0.189604
C9    C     C_R   0.189649 0.497688 0.658288 -0.157945
C10   C     C_R   0.810352 0.502320 0.341716 -0.157944
C11   C     C_R   0.146266 0.500914 0.499145 0.059191
C12   C     C_R   0.853734 0.499086 0.500856 0.059191
C13   C     C_R   0.176377 0.504756 0.339892 -0.153694
C14   C     C_R   0.823622 0.495234 0.660106 -0.153694
C15   C     C_R   0.248396 0.504750 0.339730 -0.185805
C16   C     C_R   0.751603 0.495241 0.660267 -0.185805
C17   C     C_R   0.291647 0.500470 0.498582 -0.020536
C18   C     C_R   0.708353 0.499530 0.501418 -0.020536
C19   C     C_R   0.929903 0.499482 0.500447 0.411310
C20   C     C_R   0.070097 0.500516 0.499554 0.411310
Cu1   Cu    Cu3+1 0.507710 0.517380 0.684380 0.929181
Cu2   Cu    Cu3+1 0.492290 0.482620 0.315620 0.929181
H1    H     H_    0.144423 0.508050 0.215162 0.155840
H2    H     H_    0.855575 0.491932 0.784834 0.155839
H3    H     H_    0.479398 0.959377 0.291874 0.164913
H4    H     H_    0.520601 0.040623 0.708127 0.164914
N1    N     N_R   0.027823 0.503472 0.346279 -0.231766
N2    N     N_R   0.972177 0.496526 0.653722 -0.231766
N3    N     N_R   0.959109 0.502980 0.346736 -0.236381
N4    N     N_R   0.040891 0.497019 0.653265 -0.236381
N5    N     N_2   0.480680 0.456420 0.038530 -0.075051
N6    N     N_2   0.519320 0.543580 0.961470 -0.075050
O1    O     O_R   0.505010 0.286130 0.619770 -0.608613
O2    O     O_R   0.494990 0.713870 0.380230 -0.608613
O3    O     O_R   0.491990 0.256780 0.308370 -0.587252
O4    O     O_R   0.508010 0.743220 0.691630 -0.587251
O5    O     O_R   0.406650 0.514660 0.655750 -0.603488
O6    O     O_R   0.593350 0.485340 0.344250 -0.603488
O7    O     O_R   0.393640 0.485310 0.344340 -0.578777
O8    O     O_R   0.606360 0.514690 0.655660 -0.578777
H5    H     H_    0.293563 0.495377 0.782892 0.149290
H6    H     H_    0.706438 0.504640 0.217114 0.149290
H7    H     H_    0.168169 0.495101 0.783447 0.149471
H8    H     H_    0.831832 0.504915 0.216559 0.149472
H9    H     H_    0.270058 0.509427 0.215504 0.143635
H10   H     H_    0.729940 0.490557 0.784492 0.143635
C21   C     C_3   0.440943 0.309472 0.930513 -0.045856
C22   C     C_3   0.372410 0.267348 0.000698 -0.841180
H11   H     H_    0.380674 0.226006 0.127787 0.274944
H12   H     H_    0.341754 0.369804 0.018503 0.240593
H13   H     H_    0.340545 0.167925 0.898908 0.203363
H14   H     H_    0.422350 0.318350 0.794310 0.212055
H15   H     H_    0.473469 0.210816 0.927471 0.154046
C23   C     C_3   0.559058 0.690528 0.069487 -0.045853
C24   C     C_3   0.627589 0.732653 0.999302 -0.841180
H16   H     H_    0.658245 0.630196 0.981490 0.240596
H17   H     H_    0.619325 0.773999 0.872215 0.274942
H18   H     H_    0.659455 0.832072 0.101093 0.203362
H19   H     H_    0.526531 0.789184 0.072532 0.154045
H20   H     H_    0.577650 0.681649 0.205691 0.212054

loop_
_geom_bond_atom_site_label_1
_geom_bond_atom_site_label_2
_ccdc_geom_bond_type
C2    C4    S    
C24   H16   S    
C6    O6    A    
C15   C17   A    
C21   H14   S    
C19   N2    A    
C20   N1    A    
C5    O5    A    
N1    N3    A    
C11   C13   A    
C4    H4    S    
C21   C22   S    
C13   C15   A    
C21   H15   S    
C2    O2    A    
C22   H12   S    
C1    O1    A    
N2    N4    A    
Cu1   O4    S    
C23   H20   S    
Cu1   Cu2   S    
C20   N4    A    
Cu2   O3    S    
C9    C11   A    
C1    O3    A    
Cu1   O8    S    
C10   C12   A    
C14   H2    S    
C6    C18   S    
Cu2   O7    S    
C12   C19   S    
N6    C23   S    
C22   H11   S    
C8    H6    S    
C6    O8    A    
C23   H19   S    
C24   H17   S    
Cu2   O2    S    
Cu1   N6    S    
C14   C16   A    
C11   C20   S    
C9    H7    S    
Cu1   O1    S    
Cu2   N5    S    
C15   H9    S    
C10   H8    S    
C3    C4    D    
C19   N3    A    
C2    O4    A    
C3    H3    S    
C5    C17   S    
C13   H1    S    
Cu1   O5    S    
C16   C18   A    
C24   H18   S    
C16   H10   S    
C22   H13   S    
C7    C9    A    
C5    O7    A    
C23   C24   S    
N5    C21   S    
C1    C3    S    
C8    C10   A    
C8    C18   A    
N5    N6    D    
C7    H5    S    
C12   C14   A    
C7    C17   A    
Cu2   O6    S    
