data_mof_unit_42422.cif
_audit_creation_date              2012-10-26T18:49:36-0400
_audit_creation_method            fapswitch 2.2
_symmetry_space_group_name_H-M    P1
_symmetry_Int_Tables_number       1
_space_group_crystal_system       triclinic
_cell_length_a                    19.397394
_cell_length_b                    11.01801
_cell_length_c                    9.814316
_cell_angle_alpha                 111.8764
_cell_angle_beta                  96.498962
_cell_angle_gamma                 90.806801
_cell_volume                      1930.36817998

loop_
_atom_site_label
_atom_site_type_symbol
_atom_type_description
_atom_site_fract_x
_atom_site_fract_y
_atom_site_fract_z
_atom_type_partial_charge
C1    C     C_R   0.498682 0.253550 0.439145 0.565587
C2    C     C_R   0.632699 0.502080 0.496531 0.535275
C3    C     C_R   0.263536 0.599160 0.641077 -0.015483
C4    C     C_R   0.738525 0.511441 0.363501 -0.012314
C5    C     C_R   0.191449 0.617443 0.631081 0.224294
C6    C     C_R   0.810271 0.543241 0.375832 0.232760
C7    C     C_R   0.147294 0.545973 0.498752 0.020787
C8    C     C_R   0.854651 0.554858 0.505623 0.016558
C9    C     C_R   0.176631 0.475756 0.369133 0.224660
C10   C     C_R   0.824697 0.566890 0.634176 0.228314
C11   C     C_R   0.248109 0.460348 0.378771 -0.159728
C12   C     C_R   0.501258 0.746062 0.560874 0.552014
C13   C     C_R   0.752937 0.544864 0.625175 -0.159770
C14   C     C_R   0.292260 0.520178 0.511984 -0.075043
C15   C     C_R   0.708891 0.515993 0.492018 -0.080529
C16   C     C_R   0.931338 0.551107 0.504229 0.341845
C17   C     C_R   0.071015 0.543293 0.498994 0.350841
C18   C     C_3   0.306115 0.657887 0.792751 -0.209233
C19   C     C_3   0.307855 0.558067 0.868031 -0.290764
C20   C     C_3   0.335829 0.621754 0.031580 -0.446364
C21   C     C_3   0.696787 0.466961 0.210520 -0.205865
C22   C     C_3   0.680000 0.318192 0.148555 -0.293990
C23   C     C_2   0.500477 0.111953 0.401234 0.232360
C24   C     C_3   0.622420 0.276317 0.018007 -0.424922
C25   C     C_3   0.139601 0.812629 0.735781 0.016117
C26   C     C_3   0.194977 0.926061 0.802393 -0.285138
C27   C     C_3   0.167683 0.052100 0.792293 -0.478316
C28   C     C_3   0.853568 0.691168 0.287957 0.026291
C29   C     C_3   0.789628 0.761010 0.255340 -0.294777
C30   C     C_3   0.809567 0.902652 0.279366 -0.492023
C31   C     C_3   0.149161 0.458342 0.126871 0.008086
C32   C     C_3   0.101666 0.568268 0.126830 -0.273342
C33   C     C_3   0.115715 0.620503 0.008305 -0.440021
C34   C     C_2   0.501342 0.887491 0.599902 0.251698
C35   C     C_3   0.855900 0.724943 0.866306 0.018571
C36   C     C_3   0.889783 0.829518 0.821836 -0.275544
C37   C     C_3   0.882256 0.967429 0.933020 -0.481748
C38   C     C_3   0.372807 0.901693 0.377184 0.020259
C39   C     C_3   0.329393 0.812271 0.427012 -0.272596
C40   C     C_3   0.252795 0.841817 0.417779 -0.497565
C41   C     C_3   0.624117 0.156352 0.623142 0.026579
C42   C     C_3   0.663200 0.035041 0.619004 -0.274649
C43   C     C_3   0.741464 0.060986 0.630242 -0.491530
C44   C     C_3   0.465332 0.981017 0.827660 0.010516
C45   C     C_2   0.514384 0.066265 0.511311 0.240593
C46   C     C_3   0.422939 0.097064 0.828007 -0.269501
C47   C     C_3   0.369992 0.123560 0.937971 -0.493705
C48   C     C_3   0.533231 0.945757 0.195799 0.009050
C49   C     C_3   0.594214 0.019525 0.167210 -0.299323
C50   C     C_3   0.636211 0.926874 0.053432 -0.486889
C51   C     C_2   0.484567 0.936004 0.494588 0.245579
C52   C     C_2   0.503974 0.513901 0.081688 -0.036033
C53   C     C_2   0.494710 0.488466 0.918832 -0.027168
C54   C     C_R   0.367737 0.505498 0.504767 0.536000
Cu1   Cu    Cu3+1 0.512140 0.521810 0.644910 0.904189
Cu2   Cu    Cu3+1 0.487860 0.478190 0.355090 0.905034
H1    H     H_    0.269084 0.398134 0.280143 0.141220
H2    H     H_    0.254462 0.515171 0.858885 0.167883
H3    H     H_    0.340409 0.476738 0.812348 0.168076
H4    H     H_    0.359030 0.693453 0.787575 0.145258
H5    H     H_    0.283101 0.747429 0.863735 0.167300
H6    H     H_    0.626149 0.336895 0.950537 0.161758
H7    H     H_    0.626051 0.171738 0.947662 0.179093
H8    H     H_    0.571065 0.287221 0.058801 0.185368
H9    H     H_    0.727764 0.267991 0.111534 0.161136
H10   H     H_    0.663974 0.285243 0.234968 0.166056
H11   H     H_    0.650395 0.524152 0.212232 0.144455
H12   H     H_    0.731882 0.549850 0.724621 0.146154
H13   H     H_    0.725535 0.487751 0.129425 0.175802
H14   H     H_    0.122273 0.797908 0.618088 0.112115
H15   H     H_    0.093257 0.840420 0.795154 0.162216
H16   H     H_    0.211185 0.942650 0.920583 0.165855
H17   H     H_    0.240967 0.900548 0.741612 0.151038
H18   H     H_    0.151919 0.038394 0.674862 0.146344
H19   H     H_    0.209067 0.132301 0.840684 0.143409
H20   H     H_    0.122359 0.081075 0.854703 0.160458
H21   H     H_    0.892628 0.695813 0.215302 0.164468
H22   H     H_    0.878545 0.744862 0.403868 0.111319
H23   H     H_    0.456906 0.412067 0.845682 0.151529
H24   H     H_    0.765716 0.708828 0.138865 0.154690
H25   H     H_    0.750630 0.760931 0.329972 0.151518
H26   H     H_    0.837153 0.954834 0.392603 0.152011
H27   H     H_    0.762173 0.954259 0.265712 0.150992
H28   H     H_    0.843975 0.905683 0.197787 0.140125
H29   H     H_    0.138464 0.376219 0.017499 0.149351
H30   H     H_    0.204468 0.493108 0.137243 0.106502
H31   H     H_    0.046501 0.530282 0.105189 0.212678
H32   H     H_    0.110276 0.650121 0.236777 0.157805
H33   H     H_    0.169466 0.665526 0.031893 0.162453
H34   H     H_    0.541143 0.591482 0.154917 0.143567
H35   H     H_    0.078783 0.696371 0.007343 0.173282
H36   H     H_    0.108798 0.539998 0.897404 0.199088
H37   H     H_    0.881238 0.735949 0.977789 0.152370
H38   H     H_    0.799972 0.742063 0.877141 0.113060
H39   H     H_    0.945923 0.813127 0.815581 0.182462
H40   H     H_    0.864807 0.822619 0.711380 0.139936
H41   H     H_    0.826525 0.985377 0.943741 0.145042
H42   H     H_    0.904603 0.040448 0.894426 0.161636
H43   H     H_    0.910649 0.980704 0.042863 0.151911
H44   H     H_    0.349871 0.894410 0.265397 0.168812
H45   H     H_    0.565721 0.627088 0.934736 0.188908
H46   H     H_    0.369616 0.006296 0.450974 0.105554
H47   H     H_    0.334450 0.708363 0.355603 0.195946
H48   H     H_    0.348866 0.825969 0.542972 0.134006
H49   H     H_    0.246259 0.944399 0.491637 0.151026
H50   H     H_    0.222736 0.774661 0.452903 0.144435
H51   H     H_    0.231717 0.827116 0.302359 0.141786
H52   H     H_    0.649176 0.242935 0.716956 0.158761
H53   H     H_    0.630036 0.178246 0.523148 0.090986
H54   H     H_    0.652429 0.007376 0.712679 0.203151
H55   H     H_    0.645302 0.951538 0.513777 0.133222
H56   H     H_    0.433579 0.374675 0.065741 0.196764
H57   H     H_    0.753646 0.095804 0.542599 0.152666
H58   H     H_    0.767985 0.969279 0.616814 0.145035
H59   H     H_    0.761384 0.136431 0.740301 0.158206
H60   H     H_    0.486770 0.999185 0.942805 0.177347
H61   H     H_    0.430559 0.890012 0.790325 0.103228
H62   H     H_    0.458452 0.185548 0.858362 0.190922
H63   H     H_    0.394990 0.075850 0.715849 0.144588
H64   H     H_    0.335994 0.034237 0.912850 0.143148
H65   H     H_    0.337334 0.203485 0.930944 0.125762
H66   H     H_    0.396927 0.153404 0.052639 0.196100
H67   H     H_    0.339927 0.545999 0.080907 0.150613
H68   H     H_    0.509433 0.869290 0.089637 0.157014
H69   H     H_    0.553446 0.891810 0.266144 0.137010
H70   H     H_    0.574354 0.095677 0.127490 0.187978
H71   H     H_    0.629183 0.069195 0.271966 0.124570
H72   H     H_    0.655286 0.848132 0.090321 0.128656
H73   H     H_    0.681530 0.982390 0.040233 0.142766
H74   H     H_    0.603732 0.881602 0.944339 0.193652
H75   H     H_    0.387802 0.671906 0.046721 0.192343
H76   H     H_    0.299376 0.694009 0.089740 0.138101
N1    N     N_R   0.027504 0.525454 0.374399 -0.206693
N2    N     N_R   0.974916 0.564671 0.627891 -0.186680
N3    N     N_R   0.959245 0.528394 0.376871 -0.194902
N4    N     N_R   0.043225 0.560747 0.625327 -0.215741
N5    N     N_2   0.469620 0.445420 0.137370 -0.365230
N6    N     N_2   0.530380 0.554580 0.862630 -0.357779
O1    O     O_R   0.506480 0.332340 0.577400 -0.473466
O2    O     O_3   0.836808 0.556808 0.256397 -0.556512
O3    O     O_3   0.134566 0.409769 0.236485 -0.542069
O4    O     O_3   0.865999 0.595991 0.768485 -0.539149
O5    O     O_3   0.441557 0.860526 0.366603 -0.577677
O6    O     O_3   0.553623 0.143368 0.644611 -0.554634
O7    O     O_3   0.522077 0.969704 0.745459 -0.583358
O8    O     O_3   0.479944 0.029998 0.254492 -0.586870
O9    O     O_R   0.493520 0.667660 0.422600 -0.469712
O10   O     O_R   0.485980 0.295500 0.332650 -0.482360
O11   O     O_R   0.514020 0.704500 0.667350 -0.499928
O12   O     O_R   0.410390 0.518410 0.622410 -0.505241
O13   O     O_R   0.589610 0.481590 0.377590 -0.501528
O14   O     O_R   0.389900 0.481570 0.377660 -0.501933
O15   O     O_R   0.610100 0.518430 0.622340 -0.498550
O16   O     O_3   0.164073 0.698864 0.755926 -0.581819

loop_
_geom_bond_atom_site_label_1
_geom_bond_atom_site_label_2
_ccdc_geom_bond_type
Cu1   Cu2   S    
Cu2   O10   S    
C23   C45   D    
C41   H52   S    
C26   H16   S    
C41   C42   S    
C52   H34   S    
C19   C20   S    
C28   O2    S    
C16   N2    A    
C37   H41   S    
C39   H48   S    
C54   O12   A    
C49   H70   S    
C34   C51   D    
Cu1   N6    S    
C31   H29   S    
C12   O9    A    
C36   C37   S    
C53   H23   S    
C33   H35   S    
C43   H58   S    
C38   C39   S    
C34   O7    S    
C47   H65   S    
C45   C51   S    
C5    O16   S    
C32   H32   S    
C26   H17   S    
Cu1   O1    S    
C46   H62   S    
C3    C18   S    
C7    C9    A    
C18   C19   S    
C10   O4    S    
C30   H27   S    
C22   H10   S    
C20   H67   S    
C50   H74   S    
C43   H59   S    
C48   H69   S    
C35   C36   S    
C7    C17   S    
C48   O8    S    
C45   O6    S    
C25   H15   S    
Cu2   N5    S    
Cu2   O14   S    
C27   H18   S    
C28   H22   S    
C1    O1    A    
C24   H8    S    
C31   H30   S    
C41   H53   S    
C21   C22   S    
C21   H11   S    
C6    O2    S    
C20   H76   S    
C27   H19   S    
C12   O11   A    
C37   H42   S    
C44   C46   S    
Cu1   O11   S    
C35   H37   S    
C19   H2    S    
C49   H71   S    
C23   O8    S    
C53   N6    D    
C41   O6    S    
C38   H44   S    
C33   H36   S    
C39   C40   S    
C5    C7    A    
C9    O3    S    
C47   H66   S    
N2    N4    A    
C19   H3    S    
C25   C26   S    
C32   H31   S    
C21   H13   S    
C31   O3    S    
C52   N5    D    
C42   H55   S    
C22   H9    S    
C29   H25   S    
C29   C30   S    
C2    C15   S    
C50   H73   S    
C33   H33   S    
C36   H40   S    
C31   C32   S    
C17   N4    A    
C44   O7    S    
C26   C27   S    
Cu2   O13   S    
C28   H21   S    
C9    C11   A    
C3    C14   A    
C38   O5    S    
C6    C8    A    
C4    C6    A    
C48   C49   S    
C14   C54   S    
C1    C23   S    
C24   H7    S    
C40   H51   S    
C17   N1    A    
C22   C24   S    
C50   H72   S    
C42   C43   S    
C20   H75   S    
C12   C34   S    
C27   H20   S    
C37   H43   S    
C52   C53   S    
Cu1   O12   S    
C40   H50   S    
C35   H38   S    
C18   H4    S    
C2    O13   A    
Cu1   O15   S    
C46   C47   S    
C28   C29   S    
C24   H6    S    
C30   H26   S    
C25   O16   S    
H56   N5    S    
C8    C10   A    
C3    C5    A    
C10   C13   A    
C48   H68   S    
C54   O14   A    
H45   N6    S    
C18   H5    S    
C39   H47   S    
C51   O5    S    
C2    O15   A    
C32   C33   S    
Cu2   O9    S    
C13   C15   A    
C42   H54   S    
C38   H46   S    
C43   H57   S    
C4    C21   S    
C36   H39   S    
C29   H24   S    
C44   H61   S    
C4    C15   A    
C11   C14   A    
C46   H63   S    
C30   H28   S    
C35   O4    S    
C44   H60   S    
C8    C16   S    
C49   C50   S    
N1    N3    A    
C47   H64   S    
C1    O10   A    
C25   H14   S    
C11   H1    S    
C16   N3    A    
C40   H49   S    
C13   H12   S    
