data_mof_unit_58731.cif
_audit_creation_date              2012-12-11T14:21:01-0500
_audit_creation_method            fapswitch 2.2
_symmetry_space_group_name_H-M    P1
_symmetry_Int_Tables_number       1
_space_group_crystal_system       triclinic
_cell_length_a                    21.930203
_cell_length_b                    7.204581
_cell_length_c                    14.911389
_cell_angle_alpha                 90.006175
_cell_angle_beta                  107.773173
_cell_angle_gamma                 90.020409
_cell_volume                      2243.52363035

loop_
_atom_site_label
_atom_site_type_symbol
_atom_type_description
_atom_site_fract_x
_atom_site_fract_y
_atom_site_fract_z
_atom_type_partial_charge
O1    O     O_R   0.584770 0.505770 0.002090 -0.541105
O2    O     O_R   0.415230 0.005770 0.997910 -0.538141
O3    O     O_R   0.467060 0.173340 0.861950 -0.532370
O4    O     O_R   0.532940 0.673340 0.138050 -0.536933
C1    C     C_R   0.454640 0.343891 0.825609 0.686261
C2    C     C_R   0.545366 0.844576 0.174341 0.704849
O5    O     O_R   0.587510 0.175890 0.993210 -0.535265
O6    O     O_R   0.412490 0.675890 0.006790 -0.540939
O7    O     O_R   0.536540 0.008150 0.130100 -0.517974
O8    O     O_R   0.463460 0.508150 0.869900 -0.542024
C3    C     C_R   0.613022 0.344952 0.997703 0.765028
C4    C     C_R   0.387003 0.844941 0.002414 0.702135
O9    O     O_3   0.483140 0.340040 0.044760 -0.376492
O10   O     O_3   0.516860 0.840040 0.955240 -0.383357
V1    V     V_3+5 0.503130 0.064190 0.991700 1.518928
V2    V     V_3+5 0.496870 0.564190 0.008300 1.492423
C5    C     C_2   0.213794 0.727345 0.002345 -0.085963
C6    C     C_2   0.786088 0.227175 0.997211 -0.053334
C7    C     C_2   0.180254 0.886695 0.995883 -0.224341
C8    C     C_2   0.819706 0.386497 0.003883 -0.261306
H1    H     H_    0.190610 0.596406 0.007703 0.146802
H2    H     H_    0.809227 0.096241 0.991795 0.143644
H3    H     H_    0.201855 0.019082 0.989293 0.156186
H4    H     H_    0.798097 0.518919 0.010248 0.129849
C9    C     C_2   0.281676 0.714421 0.002038 -0.085012
C10   C     C_2   0.718077 0.214367 0.996919 -0.019106
C11   C     C_2   0.319849 0.861424 0.003077 -0.263269
C12   C     C_2   0.680237 0.361396 0.997318 -0.245767
H5    H     H_    0.300761 0.575411 0.001784 0.155423
H6    H     H_    0.698646 0.075404 0.995698 0.153049
H7    H     H_    0.302028 0.001296 0.004031 0.160876
H8    H     H_    0.698368 0.501270 0.997771 0.128086
C13   C     C_R   0.926266 0.892160 0.722614 -0.053327
C14   C     C_R   0.073644 0.381246 0.277145 -0.049967
C15   C     C_R   0.573557 0.858159 0.276558 -0.054261
C16   C     C_R   0.426272 0.345638 0.723124 -0.054019
C17   C     C_R   0.936960 0.948475 0.568438 -0.124056
C18   C     C_R   0.061574 0.330206 0.430893 -0.118712
C19   C     C_R   0.964879 0.921119 0.664795 -0.158070
C20   C     C_R   0.034424 0.364154 0.334892 -0.164904
C21   C     C_R   0.859542 0.892730 0.683676 -0.132862
C22   C     C_R   0.140066 0.363191 0.315681 -0.123653
C23   C     C_R   0.830204 0.940744 0.588303 0.104613
C24   C     C_R   0.168117 0.311271 0.410730 0.103827
C25   C     C_R   0.870034 0.958265 0.529782 0.066935
C26   C     C_R   0.128032 0.304679 0.469279 0.047398
C27   C     C_R   0.762639 0.963963 0.548400 -0.039634
C28   C     C_R   0.234978 0.275289 0.450463 -0.044898
C29   C     C_R   0.735605 0.962862 0.448033 -0.090952
C30   C     C_R   0.262031 0.273877 0.550797 -0.110401
C31   C     C_R   0.776886 0.003725 0.392593 0.400168
C32   C     C_R   0.219974 0.242313 0.606014 0.456336
C33   C     C_R   0.843158 0.994314 0.434033 -0.249293
C34   C     C_R   0.154047 0.264856 0.564806 -0.223667
C35   C     C_R   0.720878 0.998779 0.603388 0.271433
C36   C     C_R   0.275799 0.230866 0.395260 0.273401
C37   C     C_R   0.654784 0.988359 0.562275 -0.190599
C38   C     C_R   0.341977 0.229456 0.436311 -0.191893
C39   C     C_R   0.628323 0.946031 0.467182 0.079104
C40   C     C_R   0.369381 0.268619 0.531598 0.080457
C41   C     C_R   0.668454 0.929250 0.409027 0.104173
C42   C     C_R   0.329800 0.295110 0.589936 0.120238
C43   C     C_R   0.561649 0.926144 0.428916 -0.135595
C44   C     C_R   0.436343 0.274257 0.569957 -0.138174
C45   C     C_R   0.534346 0.887017 0.333491 -0.167351
C46   C     C_R   0.464538 0.306959 0.665790 -0.162362
C47   C     C_R   0.640139 0.870267 0.315282 -0.070387
C48   C     C_R   0.359545 0.349505 0.684172 -0.089637
H9    H     H_    0.874379 0.021259 0.391393 0.158232
H10   H     H_    0.122325 0.245348 0.607387 0.171440
H11   H     H_    0.669107 0.834223 0.271173 0.172924
H12   H     H_    0.331584 0.391142 0.728837 0.169132
H13   H     H_    0.482712 0.880815 0.303874 0.117928
H14   H     H_    0.516149 0.299739 0.695539 0.116520
H15   H     H_    0.623702 0.015334 0.605105 0.152561
H16   H     H_    0.372342 0.195025 0.393341 0.154061
H17   H     H_    0.967769 0.967709 0.524499 0.123179
H18   H     H_    0.030442 0.319935 0.474876 0.123089
H19   H     H_    0.016547 0.924383 0.694457 0.135798
H20   H     H_    0.982889 0.375693 0.305524 0.126182
H21   H     H_    0.831494 0.854661 0.728933 0.154635
H22   H     H_    0.169020 0.394098 0.270702 0.152654
H23   H     H_    0.530556 0.944565 0.472479 0.117734
H24   H     H_    0.466887 0.248003 0.526277 0.117804
O11   O     O_R   0.036450 0.233070 0.130130 -0.529803
O12   O     O_R   0.963550 0.733070 0.869870 -0.538921
O13   O     O_R   0.912470 0.560570 0.006790 -0.545513
O14   O     O_R   0.087530 0.060570 0.993210 -0.535799
C49   C     C_R   0.886996 0.391831 0.002640 0.738780
C50   C     C_R   0.113002 0.891903 0.997331 0.744690
O15   O     O_R   0.032920 0.562940 0.138050 -0.539728
O16   O     O_R   0.967080 0.062940 0.861950 -0.530843
O17   O     O_R   0.084790 0.730500 0.002090 -0.541240
O18   O     O_R   0.915210 0.230500 0.997910 -0.536522
C51   C     C_R   0.045368 0.394188 0.174839 0.692343
C52   C     C_R   0.954679 0.894738 0.825130 0.698708
O19   O     O_3   0.016820 0.396170 0.955260 -0.377489
O20   O     O_3   0.983180 0.896170 0.044740 -0.381383
V3    V     V_3+5 0.996880 0.672090 0.008300 1.466688
V4    V     V_3+5 0.003120 0.172090 0.991700 1.499394
S1    S     S_3+6 0.751243 0.114567 0.280337 -0.024393
O21   O     O_2   0.687977 0.210298 0.264917 -0.318256
O22   O     O_2   0.799758 0.257908 0.274496 -0.335935
O23   O     O_3   0.744884 0.957458 0.194504 -0.522243
H25   H     H_    0.788785 0.908342 0.205972 0.328088
S2    S     S_3+6 0.243168 0.125492 0.716622 -0.033619
O24   O     O_2   0.251191 0.264129 0.794757 -0.364175
O25   O     O_2   0.191508 0.990581 0.719723 -0.331034
O26   O     O_3   0.311650 0.006454 0.732467 -0.509137
H26   H     H_    0.321982 0.954553 0.796865 0.354629
Br1   Br    Br    0.747145 0.111909 0.726595 -0.615032
Br2   Br    Br    0.246948 0.119462 0.271715 -0.606376

loop_
_geom_bond_atom_site_label_1
_geom_bond_atom_site_label_2
_ccdc_geom_bond_type
C43   C45   A    
S1    O21   D    
C22   H22   S    
O2    C4    A    
C2    O7    A    
C38   H16   S    
C27   C29   A    
O5    C3    A    
C13   C19   A    
C14   C20   A    
C16   C46   A    
C37   C39   A    
S2    O24   D    
C15   C45   A    
C38   C40   A    
C46   H14   S    
C1    C16   S    
O16   C52   A    
C45   H13   S    
C2    C15   S    
C40   C42   A    
C49   O18   A    
C44   H24   S    
C8    H4    S    
C24   C26   A    
C14   C22   A    
C29   C31   A    
C6    C10   S    
C30   C32   A    
C20   H20   S    
C15   C47   A    
O17   V3    S    
C47   H11   S    
C48   H12   S    
C28   C30   A    
C33   H9    S    
O6    V2    S    
C21   C23   A    
C22   C24   A    
O23   H25   S    
C32   C34   A    
O13   V3    S    
C9    H5    S    
C39   C41   A    
C29   C41   A    
C4    C11   S    
C11   H7    S    
C32   S2    S    
C12   H8    S    
C14   C51   S    
O4    C2    A    
C18   H18   S    
C17   H17   S    
C25   C33   A    
C5    H1    S    
C43   H23   S    
C31   C33   A    
C44   C46   A    
O4    V2    S    
C7    H3    S    
O2    V1    S    
C41   C47   A    
C34   H10   S    
O18   V4    S    
O6    C4    A    
C21   H21   S    
C26   C34   A    
O1    V2    S    
O12   V3    S    
C23   C25   A    
O14   V4    S    
O12   C52   A    
O14   C50   A    
C10   H6    S    
S1    O23   S    
O13   C49   A    
C30   C42   A    
C9    C11   D    
C17   C25   A    
C13   C52   S    
O19   V4    S    
O3    V1    S    
O16   V4    S    
C50   O17   A    
C27   C35   A    
C28   C36   A    
C35   Br1   S    
C6    H2    S    
C10   C12   D    
O3    C1    A    
C16   C48   A    
C31   S1    S    
C8    C49   S    
C39   C43   A    
C42   C48   A    
C40   C44   A    
C13   C21   A    
C37   H15   S    
C35   C37   A    
O7    V1    S    
C5    C9    S    
C1    O8    A    
C17   C19   A    
C7    C50   S    
O8    V2    S    
O26   H26   S    
C18   C20   A    
O11   C51   A    
S2    O25   D    
C3    C12   S    
O5    V1    S    
C5    C7    D    
C36   C38   A    
C6    C8    D    
C18   C26   A    
O15   C51   A    
S1    O22   D    
O20   V3    S    
O9    V2    S    
O11   V4    S    
O10   V1    S    
O1    C3    A    
O15   V3    S    
C23   C27   A    
C36   Br2   S    
C24   C28   A    
C19   H19   S    
S2    O26   S    
