data_mof_unit_36307.cif
_audit_creation_date              2012-12-10T18:41:21-0500
_audit_creation_method            fapswitch 2.2
_symmetry_space_group_name_H-M    P1
_symmetry_Int_Tables_number       1
_space_group_crystal_system       triclinic
_cell_length_a                    15.152427
_cell_length_b                    13.807307
_cell_length_c                    10.839036
_cell_angle_alpha                 90.51115
_cell_angle_beta                  89.746401
_cell_angle_gamma                 90.385524
_cell_volume                      2267.51718073

loop_
_atom_site_label
_atom_site_type_symbol
_atom_type_description
_atom_site_fract_x
_atom_site_fract_y
_atom_site_fract_z
_atom_type_partial_charge
C1    C     C_R   0.329549 0.499641 0.499164 0.796354
C2    C     C_R   0.669909 0.500209 0.498336 0.827820
C3    C     C_R   0.183868 0.412576 0.482110 0.438081
C4    C     C_R   0.811949 0.438094 0.414648 0.451349
C5    C     C_R   0.092007 0.414632 0.489241 -0.264196
C6    C     C_R   0.905170 0.442011 0.416381 -0.295069
C7    C     C_R   0.047260 0.502590 0.502439 0.069455
C8    C     C_R   0.950188 0.503646 0.498808 0.091234
C9    C     C_R   0.572871 0.107122 0.455576 -0.270929
C10   C     C_R   0.428012 0.106758 0.547098 -0.260763
C11   C     C_R   0.571216 0.209104 0.455397 0.033637
C12   C     C_R   0.429774 0.208745 0.547679 0.088217
C13   C     C_R   0.499996 0.054398 0.500046 0.246370
C14   C     C_R   0.442568 0.891998 0.422204 0.290601
C15   C     C_R   0.557880 0.894312 0.576583 0.302875
C16   C     C_R   0.445936 0.789574 0.421889 -0.052325
C17   C     C_R   0.554719 0.791603 0.577211 -0.069942
C18   C     C_R   0.499819 0.945472 0.499855 -0.067211
C19   C     C_R   0.500937 0.499359 0.261829 0.858300
C20   C     C_R   0.504216 0.500344 0.737622 0.837188
C21   C     C_R   0.506698 0.585252 0.064585 0.077262
C22   C     C_R   0.508642 0.586294 0.937813 0.062739
C23   C     C_R   0.509995 0.498019 0.128389 -0.272682
C24   C     C_R   0.517402 0.500738 0.869944 -0.283550
C25   C     C_R   0.528311 0.411620 0.061600 0.336357
C26   C     C_R   0.539660 0.415204 0.933014 0.304721
C27   C     C_3   0.441695 0.664768 0.930503 -0.416449
C28   C     C_3   0.439413 0.663956 0.070617 -0.440142
C29   C     C_R   0.095619 0.588903 0.515247 -0.180704
C30   C     C_R   0.902519 0.565194 0.577259 -0.169447
C31   C     C_R   0.187382 0.587113 0.514864 -0.267926
C32   C     C_R   0.811034 0.564465 0.574492 -0.293443
C33   C     C_R   0.232547 0.499257 0.498928 -0.131005
C34   C     C_R   0.765944 0.500677 0.495496 -0.090753
Cu1   Cu    Cu3+1 0.500000 0.596430 0.500000 0.927110
Cu2   Cu    Cu3+1 0.500000 0.403570 0.500000 0.991601
H1    H     H_    0.405173 0.748453 0.358314 0.147349
H2    H     H_    0.596136 0.751745 0.639591 0.137637
H3    H     H_    0.469985 0.732694 0.892168 0.204945
H4    H     H_    0.375165 0.638929 0.109299 0.179792
H5    H     H_    0.378872 0.639870 0.887621 0.189287
H6    H     H_    0.466261 0.731518 0.113054 0.211984
H7    H     H_    0.062603 0.657950 0.523954 0.135109
H8    H     H_    0.935895 0.612762 0.642163 0.134967
H9    H     H_    0.222920 0.654925 0.526185 0.167120
H10   H     H_    0.775095 0.612166 0.636446 0.148404
H11   H     H_    0.055813 0.346899 0.481999 0.141644
H12   H     H_    0.944089 0.398529 0.353563 0.105929
N1    N     N_R   0.500000 0.258690 0.500000 -0.176456
N2    N     N_R   0.500000 0.741330 0.500000 -0.205719
O1    O     O_R   0.371460 0.581430 0.500010 -0.598336
O2    O     O_R   0.628540 0.581430 0.499990 -0.594668
O3    O     O_R   0.371470 0.418560 0.500010 -0.556144
O4    O     O_R   0.628530 0.418560 0.499990 -0.566527
O5    O     O_R   0.499990 0.581450 0.319660 -0.585455
O6    O     O_R   0.500010 0.581450 0.680340 -0.587428
O7    O     O_R   0.500010 0.418580 0.319660 -0.536076
O8    O     O_R   0.499990 0.418580 0.680340 -0.543927
O9    O     O_3   0.535563 0.323422 0.120325 -0.547912
C35   C     C_3   0.456088 0.270542 0.103577 0.101232
H13   H     H_    0.433308 0.270164 0.005930 0.159535
H14   H     H_    0.403120 0.301908 0.162591 0.131777
C36   C     C_3   0.470177 0.165697 0.139869 -0.730565
H15   H     H_    0.409328 0.122725 0.121725 0.204400
H16   H     H_    0.485576 0.161521 0.239311 0.253893
H17   H     H_    0.525482 0.134263 0.085516 0.254850
O10   O     O_3   0.562671 0.331288 0.870438 -0.545926
C37   C     C_3   0.653239 0.336710 0.839799 0.120101
H18   H     H_    0.694399 0.352477 0.922574 0.120189
H19   H     H_    0.665625 0.393762 0.769766 0.128402
C38   C     C_3   0.682131 0.239988 0.785779 -0.746950
H20   H     H_    0.642541 0.222132 0.702639 0.264639
H21   H     H_    0.752961 0.243665 0.759389 0.182312
H22   H     H_    0.672690 0.181989 0.855050 0.249930
O11   O     O_3   0.392346 0.939608 0.335675 -0.572133
C39   C     C_3   0.301457 0.926494 0.361259 0.067791
H23   H     H_    0.279497 0.983297 0.427582 0.146943
H24   H     H_    0.284491 0.854369 0.400678 0.116302
C40   C     C_3   0.249850 0.936757 0.242125 -0.803839
H25   H     H_    0.267548 0.877299 0.177080 0.244156
H26   H     H_    0.177942 0.932988 0.261873 0.196312
H27   H     H_    0.265446 0.007162 0.198273 0.252454
O12   O     O_3   0.612345 0.946032 0.656193 -0.566243
C41   C     C_3   0.701356 0.919351 0.637639 0.071092
H28   H     H_    0.717624 0.908395 0.537932 0.129465
H29   H     H_    0.715890 0.852018 0.689018 0.137374
C42   C     C_3   0.760934 0.999737 0.686888 -0.798401
H30   H     H_    0.747356 0.012576 0.786455 0.252010
H31   H     H_    0.831154 0.978925 0.675176 0.194535
H32   H     H_    0.749097 0.067570 0.635369 0.245891
O13   O     O_3   0.225182 0.325026 0.460682 -0.580472
C43   C     C_3   0.222121 0.304793 0.332719 0.063794
H33   H     H_    0.262506 0.358632 0.280846 0.126428
H34   H     H_    0.153135 0.305371 0.297366 0.127483
C44   C     C_3   0.259203 0.204552 0.307896 -0.798814
H35   H     H_    0.254864 0.187542 0.207802 0.187379
H36   H     H_    0.329345 0.201830 0.335984 0.261795
H37   H     H_    0.220877 0.149601 0.360159 0.247256
O14   O     O_3   0.761901 0.378684 0.335582 -0.583665
C45   C     C_3   0.812137 0.315509 0.260322 0.023192
H38   H     H_    0.853129 0.266847 0.317661 0.140623
H39   H     H_    0.854019 0.357708 0.195186 0.144613
C46   C     C_3   0.750474 0.252253 0.183466 -0.744399
H40   H     H_    0.705445 0.298441 0.129810 0.284114
H41   H     H_    0.789514 0.206895 0.118389 0.184699
H42   H     H_    0.711000 0.203869 0.243747 0.235654
H43   H     H_    0.630147 0.069679 0.419522 0.136339
H44   H     H_    0.371277 0.069052 0.584788 0.122996
H45   H     H_    0.627252 0.248346 0.419238 0.182411
H46   H     H_    0.374310 0.247657 0.586094 0.166793

loop_
_geom_bond_atom_site_label_1
_geom_bond_atom_site_label_2
_ccdc_geom_bond_type
C15   C18   A    
C42   H30   S    
C36   H16   S    
C7    C29   A    
C11   H45   S    
C14   C18   A    
C10   H44   S    
C44   H35   S    
C41   C42   S    
C20   O6    A    
C12   H46   S    
C12   N1    A    
C44   H37   S    
C1    C33   S    
C7    C8    S    
C19   O7    A    
C5    H11   S    
C6    H12   S    
C13   C18   S    
C35   C36   S    
C26   O10   S    
C3    O13   S    
C39   H24   S    
Cu2   O8    S    
C3    C33   A    
C35   H14   S    
C9    C13   A    
C45   H38   S    
C1    O3    A    
Cu2   O3    S    
O14   C45   S    
C27   H3    S    
C37   H18   S    
C31   C33   A    
C16   H1    S    
C2    C34   S    
C23   C25   A    
C36   H17   S    
O9    C35   S    
C21   C22   A    
C29   H7    S    
C30   H8    S    
C10   C12   A    
C45   H39   S    
C4    C34   A    
Cu1   O5    S    
O10   C37   S    
C20   C24   S    
C39   H23   S    
C4    C6    A    
Cu2   O7    S    
C2    O4    A    
O13   C43   S    
C5    C7    A    
C15   O12   S    
C25   C26   A    
C45   C46   S    
C40   H25   S    
C35   H13   S    
Cu1   Cu2   S    
C32   C34   A    
C19   C23   S    
O11   C39   S    
C11   N1    A    
C40   H27   S    
C1    O1    A    
C27   H5    S    
O12   C41   S    
Cu1   N2    S    
C43   H34   S    
C46   H41   S    
C41   H28   S    
C9    C11   A    
C2    O2    A    
C21   C28   S    
C22   C27   S    
C42   H31   S    
Cu1   O1    S    
C14   C16   A    
C42   H32   S    
C20   O8    A    
Cu1   O2    S    
C38   H21   S    
C19   O5    A    
C15   C17   A    
Cu1   O6    S    
C32   H10   S    
C24   C26   A    
C3    C5    A    
C10   C13   A    
C17   N2    A    
C38   H22   S    
C6    C8    A    
C44   H36   S    
C9    H43   S    
C40   H26   S    
C8    C30   A    
C14   O11   S    
C21   C23   A    
C38   H20   S    
C29   C31   A    
C30   C32   A    
C37   C38   S    
C28   H6    S    
C43   H33   S    
C46   H42   S    
C22   C24   A    
C17   H2    S    
C43   C44   S    
C16   N2    A    
Cu2   O4    S    
C36   H15   S    
C39   C40   S    
C37   H19   S    
C31   H9    S    
C4    O14   S    
C46   H40   S    
C28   H4    S    
C41   H29   S    
C25   O9    S    
Cu2   N1    S    
C27   C28   S    
