data_mof_unit_53547.cif
_audit_creation_date              2012-10-26T21:14:55-0400
_audit_creation_method            fapswitch 2.2
_symmetry_space_group_name_H-M    P1
_symmetry_Int_Tables_number       1
_space_group_crystal_system       triclinic
_cell_length_a                    15.049088
_cell_length_b                    10.826967
_cell_length_c                    13.76036
_cell_angle_alpha                 91.541549
_cell_angle_beta                  88.540671
_cell_angle_gamma                 88.674938
_cell_volume                      2239.88330289

loop_
_atom_site_label
_atom_site_type_symbol
_atom_type_description
_atom_site_fract_x
_atom_site_fract_y
_atom_site_fract_z
_atom_type_partial_charge
C1    C     C_R   0.498240 0.262236 0.498666 0.549635
C2    C     C_R   0.571951 0.885507 0.669990 0.027810
C3    C     C_R   0.457984 0.076862 0.234933 0.292079
C4    C     C_R   0.532538 0.912210 0.762679 0.315065
C5    C     C_R   0.420725 0.130118 0.152856 -0.139034
C6    C     C_R   0.566152 0.852853 0.844467 -0.143708
C7    C     C_R   0.352429 0.218945 0.163216 -0.116260
C8    C     C_R   0.640544 0.773728 0.834945 -0.117097
C9    C     C_R   0.464985 0.930483 0.423383 -0.083620
C10   C     C_R   0.531926 0.068995 0.576983 -0.092088
C11   C     C_R   0.500983 0.871539 0.503207 0.013433
C12   C     C_R   0.501030 0.737683 0.501280 0.554245
C13   C     C_R   0.496945 0.128202 0.496586 0.006516
C14   C     C_R   0.534378 0.941277 0.581815 0.018707
C15   C     C_R   0.463345 0.058278 0.417658 -0.000128
C16   C     C_R   0.328924 0.498053 0.501142 0.582861
C17   C     C_R   0.671072 0.502131 0.498888 0.586166
C18   C     C_R   0.559719 0.427944 0.790192 0.010252
C19   C     C_R   0.440060 0.571791 0.209947 0.046848
C20   C     C_R   0.439958 0.575357 0.796531 0.402272
C21   C     C_R   0.560825 0.426299 0.203373 0.388114
C22   C     C_R   0.436743 0.576509 0.900693 0.019958
C23   C     C_R   0.042805 0.341545 0.623742 -0.031565
C24   C     C_R   0.564728 0.427016 0.099390 0.013395
C25   C     C_R   0.499978 0.502337 0.948267 -0.051073
C26   C     C_R   0.501468 0.500936 0.051795 -0.044947
C27   C     C_R   0.561642 0.428622 0.892358 -0.071988
C28   C     C_R   0.438959 0.572737 0.107748 -0.057075
C29   C     C_R   0.373857 0.649104 0.959067 0.283062
C30   C     C_R   0.628997 0.357750 0.040841 0.255782
C31   C     C_R   0.375378 0.643698 0.061322 -0.112702
C32   C     C_R   0.624643 0.356661 0.939063 -0.127631
C33   C     C_R   0.814426 0.582962 0.435786 0.223265
C34   C     C_R   0.957194 0.658810 0.376361 -0.041076
C35   C     C_R   0.185581 0.416898 0.563923 0.232131
C36   C     C_R   0.767593 0.503333 0.496548 0.031269
C37   C     C_R   0.232399 0.497099 0.503632 0.034860
C38   C     C_R   0.812424 0.424301 0.557995 -0.085577
C39   C     C_R   0.187547 0.576938 0.442829 -0.078339
C40   C     C_R   0.904978 0.421990 0.560479 0.045904
C41   C     C_R   0.095000 0.578941 0.440085 0.047730
C42   C     C_R   0.953196 0.500892 0.499246 -0.011243
C43   C     C_R   0.046791 0.499692 0.501036 -0.011512
C44   C     C_R   0.907921 0.581389 0.436524 0.004156
C45   C     C_R   0.318005 0.252408 0.255512 0.257776
C46   C     C_R   0.092076 0.418862 0.563494 0.009095
C47   C     C_R   0.950409 0.342778 0.622863 0.245869
C48   C     C_R   0.049572 0.658107 0.377665 0.247584
C49   C     C_3   0.300750 0.838457 0.949674 0.014853
C50   C     C_3   0.246675 0.914029 0.879613 -0.288777
C51   C     C_3   0.775448 0.352530 0.076956 0.019402
C52   C     C_3   0.847219 0.279916 0.128328 -0.315885
C53   C     C_3   0.601158 0.019961 0.190850 0.013401
C54   C     C_3   0.657217 0.909989 0.151942 -0.346254
C55   C     C_3   0.470326 0.087619 0.836644 -0.045941
C56   C     C_R   0.682233 0.752436 0.744038 0.261409
C57   C     C_3   0.402758 0.190650 0.818884 -0.324195
C58   C     C_R   0.353539 0.199278 0.338074 -0.057700
C59   C     C_R   0.648256 0.808097 0.661807 -0.072619
C60   C     C_R   0.425170 0.113349 0.329083 0.028339
Cl1   Cl    Cl    0.755320 0.689234 0.363957 -0.636955
Cl2   Cl    Cl    0.244689 0.309440 0.634721 -0.621562
Cl3   Cl    Cl    0.370214 0.676383 0.732974 -0.482554
Cl4   Cl    Cl    0.630814 0.325601 0.266574 -0.580022
Cl5   Cl    Cl    0.894688 0.243037 0.702113 -0.589500
Cl6   Cl    Cl    0.105289 0.758290 0.298774 -0.582754
Cl7   Cl    Cl    0.228430 0.358569 0.266905 -0.588446
Cl8   Cl    Cl    0.776874 0.655047 0.733351 -0.578248
Cu1   Cu    Cu3+1 0.500010 0.499980 0.597420 1.055282
Cu2   Cu    Cu3+1 0.499990 0.500020 0.402580 1.066944
H1    H     H_    0.436214 0.876227 0.365245 0.169238
H2    H     H_    0.924750 0.720676 0.327265 0.209162
H3    H     H_    0.324681 0.259256 0.099172 0.154878
H4    H     H_    0.665717 0.728934 0.898410 0.149395
H5    H     H_    0.325532 0.225022 0.409263 0.161647
H6    H     H_    0.680421 0.789849 0.591369 0.163462
H7    H     H_    0.443717 0.100563 0.080713 0.097545
H8    H     H_    0.534275 0.866649 0.915394 0.101361
H9    H     H_    0.368106 0.878606 0.953901 0.123572
H10   H     H_    0.266491 0.847145 0.022088 0.146709
H11   H     H_    0.280874 0.914240 0.807191 0.232866
H12   H     H_    0.559428 0.122640 0.636259 0.134904
H13   H     H_    0.179752 0.874350 0.871785 0.194837
H14   H     H_    0.238701 0.010668 0.908082 0.096436
H15   H     H_    0.767264 0.445066 0.114139 0.170701
H16   H     H_    0.798241 0.364395 0.000205 0.158281
H17   H     H_    0.857416 0.187252 0.092646 0.173555
H18   H     H_    0.910705 0.330085 0.124834 0.137422
H19   H     H_    0.827447 0.268541 0.205823 0.201977
H20   H     H_    0.635633 0.062708 0.253344 0.211781
H21   H     H_    0.596136 0.087511 0.131452 0.177567
H22   H     H_    0.624885 0.866435 0.088371 0.139158
H23   H     H_    0.606525 0.370362 0.747248 0.142895
H24   H     H_    0.724154 0.941053 0.128922 0.138897
H25   H     H_    0.664568 0.840576 0.209296 0.223506
H26   H     H_    0.538055 0.126562 0.828423 0.121405
H27   H     H_    0.460079 0.056814 0.912230 0.116334
H28   H     H_    0.334328 0.154891 0.822667 0.189764
H29   H     H_    0.408418 0.265496 0.874955 0.108327
H30   H     H_    0.415056 0.229130 0.745953 0.216054
H31   H     H_    0.392535 0.628045 0.253035 0.147745
H32   H     H_    0.325032 0.693359 0.105418 0.139805
H33   H     H_    0.672274 0.299911 0.896330 0.144142
H34   H     H_    0.773874 0.364418 0.603691 0.181224
H35   H     H_    0.226100 0.637267 0.397513 0.183405
H36   H     H_    0.075263 0.279526 0.672713 0.212261
N1    N     N_R   0.499960 0.499900 0.743810 -0.245944
N2    N     N_R   0.500040 0.500100 0.256190 -0.233366
O1    O     O_R   0.500000 0.319630 0.582270 -0.526508
O2    O     O_3   0.695374 0.287023 0.081161 -0.546121
O3    O     O_3   0.517583 0.978016 0.222686 -0.583121
O4    O     O_3   0.457106 0.988355 0.770087 -0.539050
O5    O     O_R   0.500000 0.680370 0.417730 -0.507787
O6    O     O_R   0.499990 0.319660 0.417730 -0.467200
O7    O     O_R   0.500010 0.680340 0.582270 -0.463913
O8    O     O_R   0.370260 0.499960 0.582280 -0.408398
O9    O     O_R   0.629740 0.500040 0.417720 -0.403649
O10   O     O_R   0.370250 0.499990 0.417740 -0.517799
O11   O     O_R   0.629750 0.500010 0.582260 -0.516004
O12   O     O_3   0.304689 0.713412 0.916660 -0.490754

loop_
_geom_bond_atom_site_label_1
_geom_bond_atom_site_label_2
_ccdc_geom_bond_type
C40   C47   A    
C38   C40   A    
Cu1   O8    S    
C22   C29   A    
C55   O4    S    
C19   H31   S    
C15   C60   S    
C51   H15   S    
Cu1   N1    S    
C50   H14   S    
C39   C41   A    
C53   C54   S    
Cu2   O6    S    
C30   O2    S    
C7    C45   A    
C35   C37   A    
C24   C26   A    
C11   C14   A    
C6    H8    S    
C49   O12   S    
Cu2   O9    S    
C58   C60   A    
C57   H29   S    
C33   C36   A    
C18   N1    A    
C21   Cl4   S    
C38   H34   S    
C1    O1    A    
Cu1   O1    S    
C3    O3    S    
C22   C25   A    
C45   Cl7   S    
C17   C36   S    
C17   O9    A    
C16   C37   S    
C20   N1    A    
C3    C60   A    
C53   O3    S    
C40   C42   A    
C4    O4    S    
C23   C46   A    
C41   C43   A    
C8    C56   A    
C52   H19   S    
C42   C44   A    
C16   O8    A    
C51   H16   S    
C50   H13   S    
C28   C31   A    
Cu2   O5    S    
C29   O12   S    
C45   C58   A    
C23   C47   A    
C51   C52   S    
C31   H32   S    
C7    H3    S    
C52   H18   S    
C34   C44   A    
C4    C6    A    
C10   C14   A    
C5    C7    A    
C2    C59   A    
C6    C8    A    
C25   C26   A    
C56   Cl8   S    
C23   H36   S    
C10   H12   S    
C49   H9    S    
C2    C4    A    
C54   H22   S    
C16   O10   A    
C55   H27   S    
C8    H4    S    
C32   H33   S    
C19   C28   A    
C9    C11   A    
C54   H25   S    
C53   H21   S    
C33   Cl1   S    
C20   C22   A    
C51   O2    S    
C55   C57   S    
C1    C13   S    
C1    O6    A    
C5    H7    S    
C34   H2    S    
C12   O5    A    
C39   H35   S    
Cu1   O7    S    
C27   C32   A    
C33   C44   A    
C52   H17   S    
C18   C27   A    
C9    H1    S    
C55   H26   S    
C3    C5    A    
C10   C13   A    
C11   C12   S    
C56   C59   A    
C25   C27   A    
C26   C28   A    
C49   H10   S    
C12   O7    A    
C20   Cl3   S    
C13   C15   A    
C9    C15   A    
C29   C31   A    
Cu2   N2    S    
C19   N2    A    
C30   C32   A    
C57   H30   S    
Cu2   O10   S    
C57   H28   S    
C36   C38   A    
C41   C48   A    
Cu1   O11   S    
C35   Cl2   S    
Cu1   Cu2   S    
C2    C14   S    
C43   C46   A    
C24   C30   A    
C54   H24   S    
C21   N2    A    
C17   O11   A    
C34   C48   A    
C37   C39   A    
C49   C50   S    
C42   C43   A    
C21   C24   A    
C53   H20   S    
C18   H23   S    
C48   Cl6   S    
C35   C46   A    
C59   H6    S    
C47   Cl5   S    
C50   H11   S    
C58   H5    S    
