data_mof_unit_11853.cif
_audit_creation_date              2012-12-11T16:52:10-0500
_audit_creation_method            fapswitch 2.2
_symmetry_space_group_name_H-M    P1
_symmetry_Int_Tables_number       1
_space_group_crystal_system       triclinic
_cell_length_a                    7.198423
_cell_length_b                    26.023079
_cell_length_c                    28.776996
_cell_angle_alpha                 90.000617
_cell_angle_beta                  90.001251
_cell_angle_gamma                 90.000403
_cell_volume                      5390.65452662

loop_
_atom_site_label
_atom_site_type_symbol
_atom_type_description
_atom_site_fract_x
_atom_site_fract_y
_atom_site_fract_z
_atom_type_partial_charge
O1    O     O_R   0.601030 0.796770 0.202460 -0.534041
O2    O     O_R   0.398970 0.203230 0.797540 -0.530581
O3    O     O_R   0.398970 0.203230 0.702460 -0.534041
O4    O     O_R   0.601030 0.796770 0.297540 -0.530584
O5    O     O_R   0.101030 0.703230 0.297540 -0.534032
O6    O     O_R   0.898970 0.296770 0.702460 -0.530582
O7    O     O_R   0.898970 0.296770 0.797540 -0.534043
O8    O     O_R   0.101030 0.703230 0.202460 -0.530579
O9    O     O_R   0.271290 0.802910 0.297210 -0.540397
O10   O     O_R   0.728710 0.197090 0.702790 -0.548584
O11   O     O_R   0.728710 0.197090 0.797210 -0.540429
O12   O     O_R   0.271290 0.802910 0.202790 -0.548592
O13   O     O_R   0.771290 0.697090 0.202790 -0.540427
O14   O     O_R   0.228710 0.302910 0.797210 -0.548587
O15   O     O_R   0.228710 0.302910 0.702790 -0.540421
O16   O     O_R   0.771290 0.697090 0.297210 -0.548613
C1    C     C_R   0.439728 0.814681 0.312748 0.694715
C2    C     C_R   0.560441 0.183805 0.687873 0.675378
C3    C     C_R   0.560276 0.185322 0.812752 0.694690
C4    C     C_R   0.439556 0.816192 0.187871 0.675360
C5    C     C_R   0.939723 0.685322 0.187249 0.694695
C6    C     C_R   0.060445 0.316193 0.812128 0.675384
C7    C     C_R   0.060274 0.314679 0.687249 0.694701
C8    C     C_R   0.939557 0.683810 0.312131 0.675375
O17   O     O_3   0.434520 0.717290 0.250000 -0.372082
O18   O     O_3   0.565480 0.282710 0.750000 -0.372074
O19   O     O_3   0.934520 0.782710 0.250000 -0.372059
O20   O     O_3   0.065480 0.217290 0.750000 -0.372079
V1    V     V_3+5 0.159680 0.756060 0.250000 1.391504
V2    V     V_3+5 0.840320 0.243940 0.750000 1.391421
V3    V     V_3+5 0.659680 0.743940 0.250000 1.391436
V4    V     V_3+5 0.340320 0.256060 0.750000 1.391435
C9    C     C_R   0.973303 0.400818 0.657380 -0.226968
C10   C     C_R   0.107157 0.643893 0.378864 -0.220435
C11   C     C_R   0.026695 0.599183 0.157379 -0.226962
C12   C     C_R   0.892830 0.356127 0.878847 -0.220445
C13   C     C_R   0.473215 0.099191 0.842625 -0.226968
C14   C     C_R   0.607157 0.856116 0.121145 -0.220439
C15   C     C_R   0.526218 0.900860 0.342609 -0.226945
C16   C     C_R   0.392794 0.143843 0.621167 -0.220410
H1    H     H_    0.920991 0.410269 0.691637 0.120976
H2    H     H_    0.218775 0.670965 0.373121 0.142496
H3    H     H_    0.079012 0.589733 0.191635 0.120978
H4    H     H_    0.781191 0.329064 0.873096 0.142537
H5    H     H_    0.420830 0.089748 0.808373 0.120997
H6    H     H_    0.718782 0.829048 0.126892 0.142523
H7    H     H_    0.578141 0.910364 0.308329 0.120889
H8    H     H_    0.281139 0.170900 0.626916 0.142512
C17   C     C_R   0.963956 0.437773 0.622144 -0.040108
C18   C     C_R   0.123735 0.609602 0.415926 -0.086407
C19   C     C_R   0.036047 0.562230 0.122141 -0.040111
C20   C     C_R   0.876258 0.390417 0.915909 -0.086468
C21   C     C_R   0.463863 0.062236 0.877862 -0.040137
C22   C     C_R   0.623729 0.890405 0.084082 -0.086441
C23   C     C_R   0.535580 0.937798 0.377860 -0.039953
C24   C     C_R   0.376213 0.109537 0.584115 -0.086454
H9    H     H_    0.905572 0.475118 0.630014 0.156500
H10   H     H_    0.245888 0.611684 0.437806 0.154140
H11   H     H_    0.094439 0.524886 0.130010 0.156504
H12   H     H_    0.754095 0.388340 0.937785 0.154152
H13   H     H_    0.405399 0.024900 0.869996 0.156514
H14   H     H_    0.745876 0.888321 0.062202 0.154181
H15   H     H_    0.593591 0.975184 0.369981 0.156384
H16   H     H_    0.254020 0.111592 0.562247 0.154030
C25   C     C_R   0.031725 0.426958 0.577438 0.136723
C26   C     C_R   0.983303 0.573872 0.425283 0.123941
C27   C     C_R   0.968276 0.573045 0.077436 0.136714
C28   C     C_R   0.016706 0.426141 0.925272 0.123966
C29   C     C_R   0.531725 0.073040 0.922561 0.136711
C30   C     C_R   0.483300 0.926136 0.074725 0.123940
C31   C     C_R   0.468298 0.926913 0.422596 0.136799
C32   C     C_R   0.516695 0.073825 0.574751 0.124025
C33   C     C_R   0.109205 0.378326 0.568750 -0.153446
C34   C     C_R   0.825821 0.573032 0.396505 -0.130856
C35   C     C_R   0.890787 0.621676 0.068749 -0.153430
C36   C     C_R   0.174198 0.426975 0.896499 -0.130853
C37   C     C_R   0.609295 0.121663 0.931244 -0.153412
C38   C     C_R   0.325826 0.926977 0.103504 -0.130836
C39   C     C_R   0.391292 0.878228 0.431302 -0.153567
C40   C     C_R   0.674215 0.073012 0.603515 -0.130896
H17   H     H_    0.157702 0.369234 0.534061 0.121918
H18   H     H_    0.720178 0.544745 0.403944 0.165335
H19   H     H_    0.842292 0.630768 0.034059 0.121925
H20   H     H_    0.279849 0.455259 0.903941 0.165334
H21   H     H_    0.657855 0.130747 0.965929 0.121926
H22   H     H_    0.220189 0.955267 0.096067 0.165328
H23   H     H_    0.343151 0.869091 0.466011 0.121896
H24   H     H_    0.779896 0.044738 0.596069 0.165342
C41   C     C_R   0.118335 0.340602 0.603788 0.137059
C42   C     C_R   0.805510 0.607309 0.358590 0.112230
C43   C     C_R   0.881650 0.659399 0.103788 0.137075
C44   C     C_R   0.194506 0.392696 0.858584 0.112222
C45   C     C_R   0.618424 0.159388 0.896208 0.137057
C46   C     C_R   0.305515 0.892699 0.141418 0.112215
C47   C     C_R   0.382164 0.840520 0.396249 0.137071
C48   C     C_R   0.694508 0.107295 0.641427 0.112229
C49   C     C_R   0.051292 0.352315 0.648868 -0.046338
C50   C     C_R   0.948854 0.644282 0.350083 -0.096143
C51   C     C_R   0.948700 0.647685 0.148868 -0.046354
C52   C     C_R   0.051150 0.355727 0.850075 -0.096136
C53   C     C_R   0.551297 0.147684 0.851132 -0.046358
C54   C     C_R   0.448854 0.855724 0.149923 -0.096135
C55   C     C_R   0.448715 0.852303 0.351140 -0.046234
C56   C     C_R   0.551138 0.144260 0.649934 -0.096135
C57   C     C_R   0.174815 0.475051 0.510776 -0.275696
C58   C     C_R   0.844890 0.528383 0.494144 -0.293893
C59   C     C_R   0.825194 0.524956 0.010769 -0.275698
C60   C     C_R   0.155119 0.471627 0.994136 -0.293897
C61   C     C_R   0.674832 0.024934 0.989213 -0.275718
C62   C     C_R   0.344862 0.971637 0.005872 -0.293905
C63   C     C_R   0.325299 0.974930 0.489313 -0.275673
C64   C     C_R   0.655029 0.028386 0.505856 -0.293904
H25   H     H_    0.303913 0.454687 0.516706 0.203634
H26   H     H_    0.715647 0.548708 0.488318 0.193516
H27   H     H_    0.696096 0.545319 0.016699 0.203630
H28   H     H_    0.284362 0.451303 0.988310 0.193508
H29   H     H_    0.803948 0.045284 0.983273 0.203692
H30   H     H_    0.215601 0.951326 0.011707 0.193564
H31   H     H_    0.196285 0.954515 0.483418 0.203418
H32   H     H_    0.784195 0.048757 0.511651 0.193330
C65   C     C_R   0.164882 0.510290 0.474051 0.640052
C66   C     C_R   0.854842 0.493111 0.530829 0.644119
C67   C     C_R   0.835131 0.489722 0.974041 0.640045
C68   C     C_R   0.145165 0.506897 0.030824 0.644120
C69   C     C_R   0.664897 0.989700 0.025942 0.640043
C70   C     C_R   0.354813 0.006907 0.969185 0.644126
C71   C     C_R   0.335223 0.010174 0.526035 0.640111
C72   C     C_R   0.645073 0.993116 0.469168 0.644176
C73   C     C_R   0.999028 0.537367 0.465163 -0.129831
C74   C     C_R   0.020343 0.465898 0.539527 -0.135673
C75   C     C_R   0.000984 0.462646 0.965153 -0.129821
C76   C     C_R   0.979663 0.534108 0.039523 -0.135668
C77   C     C_R   0.499022 0.962640 0.034843 -0.129822
C78   C     C_R   0.520339 0.034102 0.960473 -0.135675
C79   C     C_R   0.500979 0.037312 0.534878 -0.129826
C80   C     C_R   0.479673 0.965841 0.460516 -0.135667
C81   C     C_3   0.190038 0.287667 0.591310 -0.380050
C82   C     C_3   0.029697 0.249877 0.584715 -0.752498
H33   H     H_    0.958397 0.242360 0.618230 0.220572
H34   H     H_    0.927665 0.265378 0.559362 0.238236
H35   H     H_    0.083608 0.212910 0.571011 0.212369
H36   H     H_    0.270713 0.289186 0.558389 0.187018
H37   H     H_    0.286891 0.273278 0.618351 0.184374
C83   C     C_3   0.634910 0.604232 0.327105 -0.351765
C84   C     C_3   0.509934 0.557146 0.333207 -0.727737
H38   H     H_    0.591442 0.521187 0.329105 0.235911
H39   H     H_    0.440940 0.557945 0.367664 0.275326
H40   H     H_    0.399473 0.557677 0.306260 0.220275
H41   H     H_    0.547292 0.638775 0.332983 0.198762
H42   H     H_    0.682299 0.603921 0.290336 0.187202
C85   C     C_3   0.809950 0.712332 0.091310 -0.380096
C86   C     C_3   0.970300 0.750112 0.084687 -0.752495
H43   H     H_    0.041676 0.757633 0.118192 0.220580
H44   H     H_    0.072262 0.734601 0.059324 0.238247
H45   H     H_    0.916385 0.787078 0.070984 0.212380
H46   H     H_    0.729199 0.710808 0.058400 0.187027
H47   H     H_    0.713167 0.726733 0.118360 0.184363
C87   C     C_3   0.365110 0.395768 0.827102 -0.351757
C88   C     C_3   0.490104 0.442852 0.833206 -0.727708
H48   H     H_    0.408610 0.478813 0.829101 0.235912
H49   H     H_    0.559084 0.442052 0.867667 0.275328
H50   H     H_    0.600576 0.442315 0.806264 0.220272
H51   H     H_    0.452715 0.361223 0.832982 0.198740
H52   H     H_    0.317724 0.396079 0.790333 0.187197
C89   C     C_3   0.690175 0.212319 0.908687 -0.380019
C90   C     C_3   0.529851 0.250111 0.915306 -0.752472
H53   H     H_    0.458519 0.257645 0.881797 0.220545
H54   H     H_    0.427839 0.234604 0.940659 0.238238
H55   H     H_    0.583789 0.287071 0.929023 0.212371
H56   H     H_    0.770914 0.210791 0.941601 0.187009
H57   H     H_    0.786985 0.226710 0.881640 0.184372
C91   C     C_3   0.134922 0.895775 0.172903 -0.351724
C92   C     C_3   0.009951 0.942863 0.166803 -0.727752
H58   H     H_    0.091464 0.978821 0.170908 0.235901
H59   H     H_    0.940957 0.942067 0.132345 0.275318
H60   H     H_    0.899492 0.942330 0.193749 0.220291
H61   H     H_    0.047298 0.861233 0.167024 0.198752
H62   H     H_    0.182317 0.896083 0.209672 0.187187
C93   C     C_3   0.310863 0.787543 0.408723 -0.380227
C94   C     C_3   0.471438 0.749802 0.415178 -0.752456
H63   H     H_    0.542455 0.742357 0.381615 0.220717
H64   H     H_    0.573630 0.765301 0.440490 0.238218
H65   H     H_    0.417826 0.712794 0.428862 0.212341
H66   H     H_    0.230526 0.788992 0.441697 0.187041
H67   H     H_    0.213806 0.773154 0.381728 0.184257
C95   C     C_3   0.865110 0.104229 0.672912 -0.351815
C96   C     C_3   0.990049 0.057132 0.666830 -0.727619
H68   H     H_    0.908502 0.021180 0.670937 0.235938
H69   H     H_    0.059072 0.057914 0.632376 0.275315
H70   H     H_    0.100488 0.057665 0.693783 0.220268
H71   H     H_    0.952743 0.138766 0.667022 0.198720
H72   H     H_    0.817721 0.103937 0.709681 0.187224
F1    F     F_    0.315727 0.516385 0.446326 -0.712309
F2    F     F_    0.700393 0.484351 0.556709 -0.688329
F3    F     F_    0.684290 0.483630 0.946313 -0.712319
F4    F     F_    0.299612 0.515656 0.056707 -0.688334
F5    F     F_    0.815766 0.983594 0.053657 -0.712326
F6    F     F_    0.200344 0.015683 0.943317 -0.688354
F7    F     F_    0.184477 0.016220 0.553800 -0.712235
F8    F     F_    0.799421 0.984422 0.443235 -0.688219

loop_
_geom_bond_atom_site_label_1
_geom_bond_atom_site_label_2
_ccdc_geom_bond_type
C91   H61   S    
C89   H57   S    
C58   C73   A    
C13   C53   A    
C81   H36   S    
O17   V3    S    
C29   C78   S    
O12   V1    S    
O19   V1    S    
C29   C37   A    
C27   C76   S    
C10   H2    S    
C59   C67   A    
C21   C29   A    
C62   H30   S    
C39   H23   S    
C84   H38   S    
C61   H29   S    
O15   V4    S    
C92   H58   S    
C91   C92   S    
O16   V3    S    
O18   V4    S    
O11   C3    A    
C89   C90   S    
C17   C25   A    
O12   C4    A    
C58   H26   S    
C8    C50   S    
O8    V1    S    
C85   H47   S    
C57   H25   S    
C60   C68   A    
C72   C80   A    
C5    C51   S    
C96   H69   S    
C63   C80   A    
C30   C38   A    
C61   C78   A    
C9    C17   A    
C26   C34   A    
O1    V3    S    
C17   H9    S    
C68   C76   A    
O3    C2    A    
O2    V4    S    
C33   H17   S    
C95   H71   S    
C44   C87   S    
C83   H42   S    
C20   H12   S    
C37   H21   S    
C46   C91   S    
C21   H13   S    
C15   C23   A    
O11   V2    S    
C47   C55   A    
C60   C75   A    
C23   H15   S    
C30   C77   S    
C85   C86   S    
C24   H16   S    
C40   C48   A    
C11   H3    S    
C12   C20   A    
C94   H65   S    
O9    V1    S    
C26   C73   S    
C13   C21   A    
C38   H22   S    
O15   C7    A    
C81   H37   S    
C69   F5    S    
C14   C22   A    
O16   C8    A    
O7    V2    S    
C90   H54   S    
C67   F3    S    
C34   C42   A    
C34   H18   S    
C11   C51   A    
C65   F1    S    
C84   H39   S    
C94   H64   S    
C25   C74   S    
C19   H11   S    
O5    V1    S    
C92   H59   S    
C36   H20   S    
C10   C18   A    
C6    C52   S    
O13   C5    A    
C96   H70   S    
C48   C95   S    
C25   C33   A    
O14   V4    S    
C31   C80   S    
C64   H32   S    
C47   C93   S    
C32   C79   S    
C2    C56   S    
C87   H52   S    
C22   H14   S    
C16   C24   A    
C20   C28   A    
C67   C75   A    
O6    V2    S    
C31   C39   A    
C32   C40   A    
C41   C49   A    
C18   H10   S    
C28   C75   S    
C58   C66   A    
C72   F8    S    
C39   C47   A    
C83   H41   S    
C16   C56   A    
O10   V2    S    
C88   H48   S    
C22   C30   A    
C86   H45   S    
C68   F4    S    
C88   H49   S    
O8    C5    A    
C88   H50   S    
C57   C65   A    
C12   C52   A    
C19   C27   A    
C85   H46   S    
O9    C1    A    
C18   C26   A    
O14   C6    A    
C59   H27   S    
C82   H34   S    
C87   H51   S    
C36   C44   A    
O4    C1    A    
C63   H31   S    
C61   C69   A    
C7    C49   S    
C62   C70   A    
C41   C81   S    
C48   C56   A    
C11   C19   A    
C90   H53   S    
C12   H4    S    
C38   C46   A    
C27   C35   A    
C64   C79   A    
C45   C53   A    
C84   H40   S    
C94   H63   S    
C44   C52   A    
C15   H7    S    
C93   H66   S    
C86   H44   S    
C92   H60   S    
C69   C77   A    
C89   H56   S    
C16   H8    S    
C65   C73   A    
O1    C4    A    
C24   C32   A    
O2    C3    A    
O13   V3    S    
C91   H62   S    
C71   C79   A    
C83   C84   S    
C82   H35   S    
C71   F7    S    
C66   F2    S    
C15   C55   A    
C57   C74   A    
C93   H67   S    
C35   C43   A    
C28   C36   A    
O7    C6    A    
C81   C82   S    
C63   C71   A    
C70   F6    S    
C60   H28   S    
O20   V2    S    
C1    C55   S    
C9    H1    S    
C33   C41   A    
C14   C54   A    
C14   H6    S    
C43   C85   S    
C3    C53   S    
C35   H19   S    
C87   C88   S    
O5    C8    A    
O10   C2    A    
O6    C7    A    
C59   C76   A    
C37   C45   A    
C10   C50   A    
C66   C74   A    
C9    C49   A    
C95   H72   S    
O3    V4    S    
C23   C31   A    
C64   C72   A    
O4    V3    S    
C82   H33   S    
C45   C89   S    
C93   C94   S    
C96   H68   S    
C4    C54   S    
C86   H43   S    
C70   C78   A    
C90   H55   S    
C40   H24   S    
C62   C77   A    
C43   C51   A    
C95   C96   S    
C13   H5    S    
C42   C50   A    
C42   C83   S    
C46   C54   A    
