data_mof_unit_17985.cif
_audit_creation_date              2012-12-10T17:19:26-0500
_audit_creation_method            fapswitch 2.2
_symmetry_space_group_name_H-M    P1
_symmetry_Int_Tables_number       1
_space_group_crystal_system       triclinic
_cell_length_a                    15.040162
_cell_length_b                    10.849447
_cell_length_c                    9.587524
_cell_angle_alpha                 90.54195
_cell_angle_beta                  90.46603
_cell_angle_gamma                 92.750283
_cell_volume                      1562.53793304

loop_
_atom_site_label
_atom_site_type_symbol
_atom_type_description
_atom_site_fract_x
_atom_site_fract_y
_atom_site_fract_z
_atom_type_partial_charge
C1    C     C_R   0.507879 0.263354 0.500268 0.795103
C2    C     C_R   0.910673 0.586987 0.586375 -0.008162
C3    C     C_R   0.947223 0.346427 0.312607 0.178547
C4    C     C_R   0.040500 0.349199 0.311750 -0.248546
C5    C     C_R   0.090302 0.426732 0.403517 0.091644
C6    C     C_R   0.047088 0.504527 0.497483 0.039427
C7    C     C_R   0.097413 0.581771 0.591850 0.110406
C8    C     C_R   0.054051 0.662004 0.682608 0.133253
C9    C     C_R   0.961091 0.664451 0.678141 -0.217448
C10   C     C_R   0.183040 0.427280 0.402950 -0.228681
C11   C     C_R   0.232529 0.500994 0.498442 -0.080863
C12   C     C_R   0.328953 0.499426 0.499494 0.814852
C13   C     C_R   0.190230 0.576850 0.593059 -0.231262
C14   C     C_R   0.562330 0.124444 0.754051 -0.283299
C15   C     C_R   0.552016 0.067400 0.885247 0.539458
C16   C     C_R   0.505680 0.953371 0.889926 -0.201253
C17   C     C_R   0.480934 0.890123 0.767468 -0.265612
C18   C     C_R   0.500919 0.940686 0.635060 0.093331
C19   C     C_R   0.527981 0.066360 0.630428 0.042135
C20   C     C_R   0.517577 0.129797 0.502770 -0.104450
C21   C     C_R   0.503704 0.063026 0.378398 -0.196132
C22   C     C_R   0.496161 0.935715 0.380026 -0.213739
C23   C     C_R   0.495876 0.737741 0.501612 0.779301
C24   C     C_R   0.493987 0.872716 0.506949 -0.102589
C25   C     C_R   0.617057 0.666369 0.147635 -0.144974
C26   C     C_R   0.672815 0.749461 0.077081 -0.230863
C27   C     C_R   0.672284 0.749896 0.933523 -0.142738
C28   C     C_R   0.616197 0.666847 0.859719 -0.095194
C29   C     C_R   0.557205 0.582021 0.927073 0.150644
C30   C     C_R   0.557387 0.581887 0.076590 0.205809
C31   C     C_R   0.445755 0.421481 0.072374 -0.032848
C32   C     C_R   0.445817 0.421464 0.924380 -0.047483
C33   C     C_R   0.671123 0.501407 0.500119 0.828183
C34   C     C_R   0.817650 0.591015 0.581668 0.469790
C35   C     C_R   0.767956 0.504896 0.498862 -0.171633
C36   C     C_R   0.810522 0.424964 0.409045 -0.309011
C37   C     C_R   0.903508 0.424984 0.405255 0.106359
C38   C     C_R   0.953731 0.505157 0.496696 -0.061448
Cu1   Cu    Cu3+1 0.499990 0.499990 0.640660 0.929026
Cu2   Cu    Cu3+1 0.500010 0.500010 0.359340 0.934086
H1    H     H_    0.597793 0.212906 0.748099 0.164941
H2    H     H_    0.490740 0.911478 0.989687 0.157063
H3    H     H_    0.442692 0.804370 0.779852 0.192377
H4    H     H_    0.489888 0.886777 0.281137 0.173312
H5    H     H_    0.401320 0.357137 0.126420 0.134704
H6    H     H_    0.624087 0.672803 0.257572 0.198289
H7    H     H_    0.717040 0.813667 0.134516 0.154123
H8    H     H_    0.715832 0.815086 0.879041 0.173015
H9    H     H_    0.621333 0.673166 0.750118 0.239306
H10   H     H_    0.770300 0.362614 0.342667 0.185553
H11   H     H_    0.401482 0.357020 0.867792 0.145173
H12   H     H_    0.074347 0.289557 0.240340 0.137774
H13   H     H_    0.216860 0.368362 0.330585 0.139267
H14   H     H_    0.230475 0.633639 0.665277 0.171252
H15   H     H_    0.928209 0.726884 0.747446 0.183796
H16   H     H_    0.498019 0.109150 0.279252 0.204565
N1    N     N_R   0.500860 0.501210 0.147910 -0.201330
N2    N     N_R   0.500890 0.501290 0.852040 -0.211906
O1    O     O_R   0.499990 0.319640 0.618810 -0.587755
O2    O     O_R   0.500000 0.319660 0.381240 -0.579365
O3    O     O_R   0.370250 0.499960 0.618800 -0.580839
O4    O     O_R   0.370260 0.499980 0.381230 -0.576490
O5    O     O_R   0.500000 0.680340 0.618760 -0.615350
O6    O     O_R   0.500010 0.680360 0.381190 -0.602035
O7    O     O_R   0.629740 0.500020 0.618770 -0.577686
O8    O     O_R   0.629750 0.500040 0.381200 -0.606690
O9    O     O_3   0.775403 0.680008 0.656898 -0.606465
C39   C     C_3   0.763149 0.781755 0.569113 -0.407662
H17   H     H_    0.719773 0.755819 0.477885 0.156017
H18   H     H_    0.828035 0.823264 0.533322 0.175941
H19   H     H_    0.729341 0.853712 0.628796 0.186642
O10   O     O_3   0.576888 0.122509 0.012556 -0.603309
C40   C     C_3   0.650962 0.206672 0.002385 -0.314206
H20   H     H_    0.630291 0.296496 0.961475 0.179290
H21   H     H_    0.705068 0.168872 0.938551 0.152378
H22   H     H_    0.678496 0.224569 0.108770 0.199860
N3    N     N_3   0.896872 0.264979 0.218993 -0.606929
H23   H     H_    0.867365 0.194346 0.278834 0.204406
H24   H     H_    0.939000 0.222758 0.148777 0.215593
N4    N     N_3   0.104511 0.741458 0.778172 -0.597496
H25   H     H_    0.136710 0.810684 0.719441 0.210512
H26   H     H_    0.062240 0.785746 0.846430 0.217237

loop_
_geom_bond_atom_site_label_1
_geom_bond_atom_site_label_2
_ccdc_geom_bond_type
C27   H8    S    
Cu2   O2    S    
C40   H21   S    
C40   H20   S    
C35   C36   A    
C32   N2    A    
C33   O7    A    
C7    C8    A    
N3    H23   S    
C15   O10   S    
C26   C27   A    
C29   C30   A    
C4    H12   S    
C18   C24   A    
C36   C37   A    
C18   C19   A    
C1    O1    A    
C5    C6    A    
N4    H25   S    
C15   C16   A    
C30   N1    A    
Cu2   O4    S    
C34   C35   A    
C10   H13   S    
C39   H17   S    
C22   H4    S    
C19   C20   A    
C8    C9    A    
C23   C24   S    
C6    C38   A    
C9    H15   S    
C2    C34   A    
C23   O5    A    
Cu2   O8    S    
C21   C22   A    
Cu1   O7    S    
C33   O8    A    
N3    H24   S    
Cu1   O3    S    
O9    C39   S    
N4    H26   S    
C1    O2    A    
Cu1   Cu2   S    
C4    C5    A    
C25   C26   A    
Cu1   N2    S    
C17   H3    S    
C32   H11   S    
C37   C38   A    
C12   O4    A    
C28   H9    S    
C2    C38   A    
C31   C32   A    
Cu1   O1    S    
C17   C18   A    
C20   C21   A    
C26   H7    S    
C14   H1    S    
C23   O6    A    
C40   H22   S    
C22   C24   A    
C3    C4    A    
C3    N3    S    
C16   H2    S    
C36   H10   S    
C13   H14   S    
C25   C30   A    
C28   C29   A    
C1    C20   S    
Cu2   N1    S    
C14   C19   A    
O10   C40   S    
C34   O9    S    
C21   H16   S    
C11   C12   S    
C6    C7    A    
Cu1   O5    S    
Cu2   O6    S    
C31   N1    A    
C5    C10   A    
C12   O3    A    
C11   C13   A    
C16   C17   A    
C39   H19   S    
C33   C35   S    
C10   C11   A    
C7    C13   A    
C29   N2    A    
C3    C37   A    
C39   H18   S    
C31   H5    S    
C27   C28   A    
C8    N4    S    
C14   C15   A    
C2    C9    A    
C25   H6    S    
