data_mof_unit_64130.cif
_audit_creation_date              2012-12-11T15:51:19-0500
_audit_creation_method            fapswitch 2.2
_symmetry_space_group_name_H-M    P1
_symmetry_Int_Tables_number       1
_space_group_crystal_system       triclinic
_cell_length_a                    27.846396
_cell_length_b                    22.2024
_cell_length_c                    20.750822
_cell_angle_alpha                 89.739666
_cell_angle_beta                  52.812426
_cell_angle_gamma                 90.046485
_cell_volume                      10220.425523

loop_
_atom_site_label
_atom_site_type_symbol
_atom_type_description
_atom_site_fract_x
_atom_site_fract_y
_atom_site_fract_z
_atom_type_partial_charge
Br1   Br    Br    0.287357 0.766622 0.329153 -0.509119
Br2   Br    Br    0.159745 0.155819 0.526354 -0.486331
Br3   Br    Br    0.787360 0.266620 0.329149 -0.509118
Br4   Br    Br    0.659747 0.655820 0.526350 -0.486329
Br5   Br    Br    0.114946 0.279361 0.349280 -0.566911
Br6   Br    Br    0.058245 0.733674 0.384830 -0.566833
Br7   Br    Br    0.614946 0.779361 0.349280 -0.566910
Br8   Br    Br    0.558244 0.233674 0.384832 -0.566819
C1    C     C_R   0.926213 0.581647 0.728893 -0.146819
C2    C     C_R   0.147335 0.611720 0.487903 0.053542
C3    C     C_R   0.421940 0.152354 0.656237 -0.131180
C4    C     C_R   0.911340 0.640430 0.728687 0.100026
C5    C     C_R   0.862900 0.389536 0.739081 0.097482
C6    C     C_R   0.411340 0.140430 0.728687 0.100026
C7    C     C_R   0.362901 0.889535 0.739081 0.097481
C8    C     C_R   0.886897 0.360900 0.452977 0.095335
C9    C     C_R   0.851667 0.613147 0.510622 0.076113
C10   C     C_R   0.386897 0.860900 0.452977 0.095335
C11   C     C_R   0.351667 0.113147 0.510622 0.076113
C12   C     C_R   0.093736 0.419785 0.577120 -0.150748
C13   C     C_R   0.609226 0.861626 0.551081 0.059092
C14   C     C_R   0.116014 0.564648 0.540969 -0.134081
C15   C     C_R   0.593736 0.919785 0.577120 -0.150748
C16   C     C_R   0.616014 0.064648 0.540969 -0.134079
C17   C     C_R   0.070005 0.579157 0.271611 -0.206200
C18   C     C_R   0.098437 0.437777 0.263759 -0.189154
C19   C     C_R   0.570005 0.079158 0.271612 -0.206207
C20   C     C_R   0.598437 0.937777 0.263759 -0.189155
C21   C     C_R   0.112652 0.634475 0.466310 -0.071809
C22   C     C_R   0.087275 0.348940 0.508385 -0.044784
C23   C     C_R   0.612652 0.134475 0.466310 -0.071810
C24   C     C_R   0.647335 0.111720 0.487904 0.053542
C25   C     C_R   0.587275 0.848940 0.508386 -0.044783
C26   C     C_R   0.082329 0.639389 0.270605 0.013903
C27   C     C_R   0.129708 0.387360 0.257619 0.005259
C28   C     C_R   0.582329 0.139389 0.270606 0.013900
C29   C     C_R   0.629708 0.887360 0.257619 0.005259
C30   C     C_3   0.677087 0.278343 0.944592 -0.388697
C31   C     C_3   0.790985 0.788014 0.911321 -0.387638
C32   C     C_3   0.176515 0.779097 0.945141 -0.388773
C33   C     C_R   0.896894 0.436559 0.735338 -0.133733
C34   C     C_3   0.290991 0.288021 0.911316 -0.387638
C35   C     C_3   0.194868 0.853520 0.019700 -0.407875
C36   C     C_3   0.300499 0.207968 0.989612 -0.415792
C37   C     C_3   0.694152 0.353653 0.019630 -0.407770
C38   C     C_3   0.800506 0.707969 0.989613 -0.415793
C39   C     C_3   0.152664 0.816649 0.098806 -0.355264
C40   C     C_3   0.257611 0.243563 0.067990 -0.350496
C41   C     C_3   0.651944 0.316779 0.098744 -0.355553
C42   C     C_3   0.757618 0.743564 0.067991 -0.350493
C43   C     C_1   0.098382 0.680241 0.208163 0.061585
C44   C     C_R   0.426212 0.081647 0.728893 -0.146818
C45   C     C_1   0.180362 0.364676 0.184521 0.058603
C46   C     C_1   0.598382 0.180242 0.208164 0.061579
C47   C     C_1   0.680362 0.864676 0.184521 0.058602
C48   C     C_3   0.725744 0.311164 0.945683 0.404523
C49   C     C_3   0.836042 0.751629 0.916343 0.408866
C50   C     C_3   0.225743 0.811161 0.945680 0.404515
C51   C     C_3   0.336041 0.251628 0.916343 0.408869
C52   C     C_3   0.634777 0.241379 0.023903 -0.399968
C53   C     C_3   0.748083 0.823596 0.989750 -0.404589
C54   C     C_3   0.134200 0.742130 0.024459 -0.399786
C55   C     C_R   0.396894 0.936559 0.735338 -0.133732
C56   C     C_3   0.248089 0.323603 0.989746 -0.404594
C57   C     C_3   0.154753 0.749143 0.078747 0.380355
C58   C     C_3   0.263633 0.311742 0.048730 0.383368
C59   C     C_3   0.654755 0.249146 0.078750 0.380414
C60   C     C_3   0.763633 0.811743 0.048730 0.383365
C61   C     C_R   0.903678 0.418735 0.424263 -0.120812
C62   C     C_R   0.882405 0.565836 0.458557 -0.112173
C63   C     C_R   0.403678 0.918735 0.424264 -0.120811
C64   C     C_R   0.382404 0.065836 0.458557 -0.112174
C65   C     C_3   0.220434 0.726646 0.031746 -0.392592
C66   C     C_R   0.101462 0.360559 0.332850 0.320497
C67   C     C_3   0.329633 0.331777 0.007864 -0.393848
C68   C     C_3   0.720586 0.227279 0.032375 -0.392231
C69   C     C_3   0.829632 0.831784 0.007858 -0.393850
C70   C     C_3   0.762327 0.263747 0.954125 -0.386740
C71   C     C_3   0.873012 0.795767 0.928538 -0.391746
C72   C     C_3   0.262176 0.763114 0.953494 -0.386584
C73   C     C_3   0.373013 0.295760 0.928544 -0.391752
C74   C     C_1   0.118940 0.713088 0.151651 -0.113712
C75   C     C_1   0.220806 0.343095 0.122731 -0.114476
C76   C     C_1   0.618941 0.213090 0.151653 -0.113707
C77   C     C_R   0.072384 0.653980 0.342243 0.306407
C78   C     C_1   0.720806 0.843095 0.122731 -0.114477
C79   C     C_1   0.768275 0.343873 0.871373 -0.130363
C80   C     C_1   0.872604 0.716205 0.844263 -0.127857
C81   C     C_1   0.268274 0.843870 0.871371 -0.130356
C82   C     C_1   0.372604 0.216205 0.844263 -0.127858
C83   C     C_1   0.809608 0.366538 0.810252 -0.023588
C84   C     C_1   0.893880 0.682711 0.789094 -0.023006
C85   C     C_1   0.309608 0.866536 0.810252 -0.023590
C86   C     C_1   0.393880 0.182711 0.789094 -0.023005
C87   C     C_1   0.204559 0.633438 0.461470 -0.008198
C88   C     C_R   0.601462 0.860559 0.332850 0.320497
C89   C     C_1   0.130538 0.318725 0.579256 -0.012382
C90   C     C_1   0.704559 0.133439 0.461470 -0.008197
C91   C     C_1   0.630538 0.818725 0.579257 -0.012381
C92   C     C_2   0.302828 0.685596 0.423750 -0.313919
C93   C     C_2   0.181600 0.238433 0.612432 -0.323143
C94   C     C_2   0.802828 0.185596 0.423752 -0.313919
C95   C     C_2   0.681600 0.738433 0.612432 -0.323142
C96   C     C_2   0.818305 0.238611 0.385347 0.368092
C97   C     C_2   0.695085 0.684914 0.576286 0.370730
C98   C     C_2   0.318304 0.738611 0.385348 0.368092
C99   C     C_R   0.572383 0.153980 0.342243 0.306411
C100  C     C_2   0.195085 0.184915 0.576287 0.370730
C101  C     C_1   0.846716 0.281498 0.403246 -0.018894
C102  C     C_1   0.747508 0.655253 0.557399 -0.021401
C103  C     C_1   0.346715 0.781498 0.403246 -0.018894
C104  C     C_1   0.247508 0.155253 0.557399 -0.021400
C105  C     C_1   0.251150 0.654558 0.441878 0.142077
C106  C     C_1   0.151323 0.282239 0.598554 0.146610
C107  C     C_1   0.751150 0.154558 0.441879 0.142078
C108  C     C_1   0.651323 0.782239 0.598554 0.146610
C109  C     C_R   0.886542 0.635357 0.532154 -0.091454
C110  C     C_R   0.109226 0.361626 0.551081 0.059093
C111  C     C_R   0.908587 0.349053 0.496367 -0.133759
C112  C     C_R   0.386542 0.135357 0.532154 -0.091454
C113  C     C_R   0.408587 0.849053 0.496367 -0.133759
C114  C     C_1   0.866179 0.317589 0.424716 -0.019926
C115  C     C_1   0.794401 0.634783 0.537307 -0.019538
C116  C     C_1   0.366179 0.817589 0.424716 -0.019926
C117  C     C_1   0.294401 0.134783 0.537307 -0.019538
C118  C     C_R   0.892741 0.365241 0.662852 -0.123042
C119  C     C_R   0.921940 0.652354 0.656237 -0.131181
C120  C     C_R   0.392741 0.865240 0.662852 -0.123042
H1    H     H_    0.931158 0.560666 0.771730 0.100435
H2    H     H_    0.332216 0.181362 0.994202 0.165112
H3    H     H_    0.728323 0.377919 0.021428 0.166970
H4    H     H_    0.832227 0.681368 0.994200 0.165111
H5    H     H_    0.667536 0.388138 0.014671 0.163803
H6    H     H_    0.773870 0.675424 0.981915 0.165713
H7    H     H_    0.168368 0.888451 0.015191 0.163840
H8    H     H_    0.273862 0.175428 0.981909 0.165713
H9    H     H_    0.105738 0.833722 0.132579 0.166512
H10   H     H_    0.210418 0.228154 0.097835 0.174654
H11   H     H_    0.604901 0.333403 0.132071 0.166315
H12   H     H_    0.886605 0.464760 0.784477 0.105533
H13   H     H_    0.710425 0.728150 0.097841 0.174657
H14   H     H_    0.167013 0.822688 0.138152 0.182470
H15   H     H_    0.268524 0.234230 0.110596 0.179772
H16   H     H_    0.665873 0.323353 0.138484 0.182472
H17   H     H_    0.768535 0.734236 0.110594 0.179769
H18   H     H_    0.785571 0.232658 0.901491 0.161730
H19   H     H_    0.899057 0.827428 0.876258 0.165105
H20   H     H_    0.284903 0.732107 0.900795 0.161644
H21   H     H_    0.399063 0.327422 0.876266 0.165106
H22   H     H_    0.797792 0.286216 0.954845 0.165689
H23   H     H_    0.431158 0.060666 0.771730 0.100436
H24   H     H_    0.905848 0.770409 0.932005 0.160547
H25   H     H_    0.298045 0.785029 0.953806 0.165666
H26   H     H_    0.405844 0.270397 0.932015 0.160544
H27   H     H_    0.223086 0.678066 0.016724 0.158545
H28   H     H_    0.334787 0.380846 0.993876 0.162149
H29   H     H_    0.723759 0.178621 0.017414 0.158578
H30   H     H_    0.834782 0.880853 0.993868 0.162147
H31   H     H_    0.698865 0.247692 0.891684 0.158751
H32   H     H_    0.815777 0.819717 0.858891 0.162071
H33   H     H_    0.197774 0.748551 0.892190 0.158742
H34   H     H_    0.386606 0.964759 0.784477 0.105534
H35   H     H_    0.315787 0.319725 0.858887 0.162072
H36   H     H_    0.636252 0.192982 0.009076 0.158726
H37   H     H_    0.752065 0.872560 0.975368 0.160162
H38   H     H_    0.135154 0.693835 0.009594 0.158729
H39   H     H_    0.252076 0.372567 0.975364 0.160164
H40   H     H_    0.902944 0.439241 0.377475 0.110624
H41   H     H_    0.868190 0.538248 0.430074 0.116311
H42   H     H_    0.402943 0.939241 0.377476 0.110624
H43   H     H_    0.368190 0.038248 0.430074 0.116311
H44   H     H_    0.236283 0.731045 0.069614 0.174984
H45   H     H_    0.650245 0.311733 0.938515 0.160426
H46   H     H_    0.341567 0.323829 0.049602 0.166533
H47   H     H_    0.736028 0.232231 0.070656 0.175228
H48   H     H_    0.841570 0.823842 0.049592 0.166533
H49   H     H_    0.819755 0.172370 0.457162 0.128947
H50   H     H_    0.704212 0.754094 0.637427 0.126561
H51   H     H_    0.319757 0.672370 0.457159 0.128947
H52   H     H_    0.204214 0.254095 0.637424 0.126561
H53   H     H_    0.876088 0.672776 0.571687 0.106665
H54   H     H_    0.912771 0.304996 0.514939 0.113291
H55   H     H_    0.376088 0.172776 0.571687 0.106665
H56   H     H_    0.764153 0.757203 0.901910 0.160781
H57   H     H_    0.412770 0.804996 0.514939 0.113291
H58   H     H_    0.878537 0.327293 0.645719 0.105378
H59   H     H_    0.923069 0.696268 0.632542 0.121847
H60   H     H_    0.378537 0.827293 0.645719 0.105376
H61   H     H_    0.423069 0.196268 0.632542 0.121847
H62   H     H_    0.094427 0.440615 0.623573 0.101648
H63   H     H_    0.130015 0.537156 0.569917 0.106231
H64   H     H_    0.594426 0.940615 0.623573 0.101649
H65   H     H_    0.630015 0.037156 0.569917 0.106232
H66   H     H_    0.064219 0.557456 0.230149 0.120133
H67   H     H_    0.149771 0.812946 0.939518 0.160471
H68   H     H_    0.108078 0.466055 0.214755 0.125028
H69   H     H_    0.564219 0.057456 0.230149 0.120136
H70   H     H_    0.608078 0.966055 0.214755 0.125028
H71   H     H_    0.124344 0.671286 0.425124 0.168310
H72   H     H_    0.079148 0.304116 0.497378 0.172840
H73   H     H_    0.624344 0.171286 0.425125 0.168310
H74   H     H_    0.579148 0.804116 0.497378 0.172840
H75   H     H_    0.087009 0.758113 0.057182 0.163541
H76   H     H_    0.200705 0.309828 0.017987 0.165107
H77   H     H_    0.587488 0.256904 0.056171 0.163470
H78   H     H_    0.264158 0.257216 0.901901 0.160781
H79   H     H_    0.700699 0.809816 0.017996 0.165108
H80   H     H_    0.229456 0.877247 0.021110 0.167005
N1    N     N_R   0.945170 0.558260 0.657960 -0.043946
N2    N     N_R   0.935930 0.399220 0.495700 -0.043194
N3    N     N_R   0.435930 0.100780 0.495700 -0.040413
N4    N     N_R   0.435930 0.899220 0.495700 -0.043194
N5    N     N_R   0.942620 0.398370 0.613240 -0.045248
N6    N     N_R   0.942620 0.601630 0.613240 -0.042416
N7    N     N_R   0.442620 0.898370 0.613240 -0.045248
N8    N     N_R   0.442620 0.101630 0.613240 -0.042416
N9    N     N_R   0.064810 0.441760 0.549020 -0.045180
N10   N     N_R   0.064810 0.558240 0.549020 -0.044814
N11   N     N_R   0.564810 0.941760 0.549020 -0.045180
N12   N     N_R   0.945170 0.441740 0.657960 -0.045597
N13   N     N_R   0.564810 0.058240 0.549020 -0.044814
N14   N     N_R   0.053030 0.555470 0.342040 -0.051697
N15   N     N_R   0.053030 0.444530 0.342040 -0.053684
N16   N     N_R   0.553030 0.055470 0.342040 -0.051696
N17   N     N_R   0.553030 0.944530 0.342040 -0.053684
N18   N     N_R   0.062260 0.600860 0.504300 -0.045350
N19   N     N_R   0.062260 0.399140 0.504300 -0.055468
N20   N     N_R   0.562260 0.100860 0.504300 -0.045350
N21   N     N_R   0.562260 0.899140 0.504300 -0.055468
N22   N     N_R   0.055570 0.396370 0.386760 -0.076067
N23   N     N_R   0.445170 0.058260 0.657960 -0.043947
N24   N     N_R   0.055570 0.603630 0.386760 -0.077905
N25   N     N_R   0.555570 0.896370 0.386760 -0.076067
N26   N     N_R   0.555570 0.103630 0.386760 -0.077907
N27   N     N_R   0.445170 0.941740 0.657960 -0.045597
N28   N     N_R   0.933380 0.440900 0.450980 -0.047206
N29   N     N_R   0.933380 0.559100 0.450980 -0.049017
N30   N     N_R   0.433380 0.940900 0.450980 -0.047206
N31   N     N_R   0.433380 0.059100 0.450980 -0.049017
N32   N     N_R   0.935930 0.600780 0.495700 -0.040413
Ni1   Ni    Ni4+2 0.004930 0.500000 0.602560 0.208916
Ni2   Ni    Ni4+2 0.504930 1.000000 0.602560 0.208917
Ni3   Ni    Ni4+2 0.993260 0.500000 0.397440 0.211919
Ni4   Ni    Ni4+2 0.493260 0.000000 0.397440 0.211919
Ni5   Ni    Ni4+2 0.999100 0.599910 0.500000 0.259631
Ni6   Ni    Ni4+2 0.999100 0.400090 0.500000 0.238967
Ni7   Ni    Ni4+2 0.499100 0.099910 0.500000 0.259631
Ni8   Ni    Ni4+2 0.499100 0.900090 0.500000 0.238967

loop_
_geom_bond_atom_site_label_1
_geom_bond_atom_site_label_2
_ccdc_geom_bond_type
Br3   C96   S    
C36   H8    S    
C55   H34   S    
C22   H72   S    
C97   C102  S    
C27   C66   A    
C49   C80   S    
C79   C83   T    
C31   H32   S    
C27   C45   S    
C60   C78   S    
C12   N9    A    
C49   C71   S    
C19   H69   S    
N4    Ni8   S    
C18   H68   S    
C46   C76   T    
C90   C107  T    
C48   C70   S    
C72   H25   S    
N20   Ni7   S    
C16   N13   A    
C2    C14   A    
N17   Ni4   S    
Br7   C88   S    
N13   N20   A    
C19   N16   A    
Br6   C77   S    
N26   Ni7   S    
C16   H65   S    
N28   Ni3   S    
C37   C48   S    
C62   H41   S    
C68   C70   S    
C30   H31   S    
C56   H39   S    
C12   H62   S    
C96   C101  S    
C13   C91   S    
C3    C6    A    
C109  H53   S    
C52   H77   S    
C113  N4    A    
C13   C25   A    
C36   C51   S    
C36   H2    S    
C31   C49   S    
C41   H16   S    
N30   Ni4   S    
C25   H74   S    
Br5   C66   S    
N8    N23   A    
C32   C54   S    
N24   Ni5   S    
N10   Ni1   S    
N3    Ni7   S    
C89   C110  S    
C44   N23   A    
N16   N26   A    
C10   C113  A    
C33   H12   S    
C8    C114  S    
C94   C107  S    
C35   C50   S    
C58   C75   S    
N21   Ni8   S    
C67   H28   S    
C9    C115  S    
C6    C44   A    
C80   C84   T    
C109  N32   A    
N15   Ni3   S    
C21   H71   S    
C119  H59   S    
C88   N25   A    
N31   Ni4   S    
C62   N29   A    
N2    N28   A    
C31   H56   S    
N22   Ni6   S    
N15   N22   A    
C9    C109  A    
C17   C26   A    
N13   Ni2   S    
C3    N8    A    
C93   C100  D    
C14   N10   A    
N14   N24   A    
C9    C62   A    
C23   N20   A    
C5    C83   S    
C67   H46   S    
C93   C106  S    
C39   H9    S    
C11   C64   A    
C77   N24   A    
C21   N18   A    
N11   N21   A    
C25   N21   A    
C87   C105  T    
C12   C110  A    
C15   H64   S    
C112  H55   S    
N5    N12   A    
C4    C84   S    
C82   C86   T    
C98   C103  S    
C69   C71   S    
C31   C53   S    
C15   N11   A    
C68   H29   S    
C63   H42   S    
C32   C50   S    
N29   Ni3   S    
C63   N30   A    
C118  H58   S    
N23   Ni2   S    
N7    N27   A    
C52   C59   S    
C95   C97   D    
N29   N32   A    
C57   C65   S    
N1    Ni1   S    
C91   C108  T    
C4    C119  A    
C34   H35   S    
C67   C73   S    
C30   H45   S    
C71   H19   S    
C22   C110  A    
C113  H57   S    
C11   C117  S    
C20   H70   S    
C73   H26   S    
C100  C104  S    
C29   C88   A    
N8    Ni7   S    
C111  H54   S    
C56   C58   S    
C51   C82   S    
C72   H20   S    
C94   C96   D    
C24   C90   S    
C64   H43   S    
N27   Ni2   S    
C118  N5    A    
C102  C115  T    
C38   H6    S    
C18   C27   A    
C23   C24   A    
C39   H14   S    
C37   C41   S    
C65   H27   S    
C40   C58   S    
C26   C43   S    
C64   N31   A    
N7    Ni8   S    
C17   N14   A    
C119  N6    A    
C16   C24   A    
C56   H76   S    
C65   H44   S    
C35   H7    S    
C43   C74   T    
C104  C117  T    
C53   H79   S    
C30   C52   S    
C5    C118  A    
C42   H17   S    
C54   H38   S    
C99   N26   A    
N9    N19   A    
C11   C112  A    
C37   H3    S    
C69   H48   S    
C7    C120  A    
C41   H11   S    
C38   C49   S    
N32   Ni5   S    
Br1   C98   S    
N3    N31   A    
C8    C111  A    
N2    Ni6   S    
Br8   C99   S    
C34   C56   S    
C33   N12   A    
C70   H22   S    
N18   Ni5   S    
C8    C61   A    
Br4   C97   S    
C10   C63   A    
C38   C42   S    
C111  N2    A    
C41   C59   S    
C54   C57   S    
C35   H80   S    
C120  H60   S    
C37   H5    S    
C22   N19   A    
C61   N28   A    
C68   H47   S    
N16   Ni4   S    
C92   C105  S    
C51   C73   S    
C2    C87   S    
C48   C79   S    
C20   N17   A    
C7    C85   S    
N14   Ni3   S    
C42   H13   S    
N25   Ni8   S    
C5    C33   A    
C1    H1    S    
C19   C28   A    
C6    C86   S    
N12   Ni1   S    
C69   H30   S    
C92   C98   D    
N1    N6    A    
N11   Ni2   S    
C40   H10   S    
C45   C75   T    
C95   H50   S    
N17   N25   A    
C50   C72   S    
C47   C78   T    
C13   C15   A    
C95   C108  S    
C14   H63   S    
C61   H40   S    
C32   H33   S    
C93   H52   S    
N19   Ni6   S    
C38   H4    S    
C53   C60   S    
C57   C74   S    
C35   C39   S    
C20   C29   A    
C112  N3    A    
C44   H23   S    
C73   H21   S    
C58   C67   S    
Br2   C100  S    
C52   H36   S    
C65   C72   S    
C39   C57   S    
C34   H78   S    
N6    Ni5   S    
C53   H37   S    
C81   C85   T    
N5    Ni6   S    
C101  C114  T    
C50   C81   S    
N9    Ni1   S    
C54   H75   S    
C23   H73   S    
C26   C77   A    
C28   C46   S    
C1    C4    A    
C70   H18   S    
C120  N7    A    
C55   N27   A    
C29   C47   S    
C2    C21   A    
C60   C69   S    
C59   C76   S    
C30   C48   S    
C40   H15   S    
C34   C51   S    
C1    N1    A    
C18   N15   A    
C94   H49   S    
C7    C55   A    
C59   C68   S    
C66   N22   A    
C3    H61   S    
C89   C106  T    
C103  C116  T    
C92   H51   S    
C42   C60   S    
N10   N18   A    
N4    N30   A    
C17   H66   S    
C36   C40   S    
C10   C116  S    
C71   H24   S    
C28   C99   A    
C32   H67   S    
