data_mof_unit_29955.cif
_audit_creation_date              2012-12-10T19:03:08-0500
_audit_creation_method            fapswitch 2.2
_symmetry_space_group_name_H-M    P1
_symmetry_Int_Tables_number       1
_space_group_crystal_system       triclinic
_cell_length_a                    10.736158
_cell_length_b                    10.829703
_cell_length_c                    9.55482
_cell_angle_alpha                 90.60283
_cell_angle_beta                  90.209224
_cell_angle_gamma                 90.498399
_cell_volume                      1110.82191159

loop_
_atom_site_label
_atom_site_type_symbol
_atom_type_description
_atom_site_fract_x
_atom_site_fract_y
_atom_site_fract_z
_atom_type_partial_charge
C1    C     C_R   0.496260 0.262540 0.499198 0.844759
C2    C     C_3   0.878361 0.496114 0.500428 0.128544
C3    C     C_3   0.929587 0.618864 0.440362 -0.392381
C4    C     C_3   0.926217 0.386417 0.410192 -0.417590
C5    C     C_R   0.463817 0.065276 0.620629 0.061394
C6    C     C_R   0.481195 0.129863 0.496839 -0.085144
C7    C     C_R   0.480452 0.063218 0.369783 -0.228848
C8    C     C_R   0.481600 0.934324 0.370904 -0.204015
C9    C     C_R   0.482476 0.870864 0.499048 -0.121662
C10   C     C_R   0.462130 0.938406 0.622058 0.073723
C11   C     C_3   0.519984 0.933771 0.764670 -0.089645
C12   C     C_R   0.259999 0.498338 0.499963 0.799546
C13   C     C_3   0.522098 0.075021 0.762881 0.049166
C14   C     C_R   0.606502 0.525402 0.074728 0.253188
C15   C     C_R   0.398177 0.462234 0.073403 -0.067338
C16   C     C_R   0.398124 0.462352 0.924792 -0.053477
C17   C     C_R   0.606964 0.524600 0.927387 0.260741
C18   C     C_3   0.682237 0.640870 0.925318 -0.500820
C19   C     C_3   0.681064 0.641445 0.083688 -0.480341
C20   C     C_R   0.496914 0.737768 0.500364 0.806014
C21   C     C_R   0.740202 0.498085 0.500238 0.768600
C22   C     C_3   0.071931 0.482567 0.651825 -0.387289
C23   C     C_3   0.929514 0.481535 0.651348 -0.382661
C24   C     C_3   0.073240 0.619166 0.441051 -0.441708
C25   C     C_3   0.070923 0.387620 0.406474 0.116821
C26   C     C_3   0.122118 0.495827 0.500164 0.109827
Cu1   Cu    Cu3+1 0.499990 0.499980 0.640670 0.959658
Cu2   Cu    Cu3+1 0.500010 0.500020 0.359330 0.941322
H1    H     H_    0.105703 0.561292 0.718151 0.187020
H2    H     H_    0.889943 0.393157 0.301277 0.153807
H3    H     H_    0.107838 0.633001 0.332591 0.174459
H4    H     H_    0.895799 0.631233 0.331522 0.165721
H5    H     H_    0.486532 0.109849 0.270280 0.175756
H6    H     H_    0.488566 0.885345 0.271887 0.190303
H7    H     H_    0.612659 0.890031 0.762734 0.149469
H8    H     H_    0.458159 0.119265 0.839399 0.141490
H9    H     H_    0.315088 0.432880 0.127676 0.131648
H10   H     H_    0.106748 0.396908 0.701111 0.158263
H11   H     H_    0.314976 0.433100 0.869259 0.131343
H12   H     H_    0.776801 0.627502 0.883024 0.176538
H13   H     H_    0.630568 0.717937 0.879328 0.233118
H14   H     H_    0.774599 0.626223 0.129698 0.178501
H15   H     H_    0.628382 0.719770 0.129817 0.227209
H16   H     H_    0.894399 0.394196 0.698047 0.167726
H17   H     H_    0.897711 0.559547 0.717420 0.169549
H18   H     H_    0.108437 0.698189 0.505832 0.178973
H19   H     H_    0.895340 0.698433 0.503645 0.160055
H20   H     H_    0.100378 0.406143 0.296749 0.135392
H21   H     H_    0.889810 0.298055 0.453058 0.159116
N1    N     N_R   0.500800 0.500930 0.147930 -0.181688
N2    N     N_R   0.500800 0.500890 0.852020 -0.173580
O1    O     O_R   0.500000 0.319640 0.618810 -0.563922
O2    O     O_R   0.500010 0.319680 0.381230 -0.592884
O3    O     O_R   0.317690 0.499960 0.618790 -0.592601
O4    O     O_R   0.317700 0.500000 0.381210 -0.595188
O5    O     O_R   0.499990 0.680320 0.618770 -0.558719
O6    O     O_R   0.500000 0.680360 0.381190 -0.581017
O7    O     O_R   0.682300 0.500000 0.618790 -0.586300
O8    O     O_R   0.682310 0.500040 0.381210 -0.591197
I1    I     I_    0.390860 0.861652 0.914704 -0.475529
N3    N     N_2   0.646011 0.132174 0.765261 -0.399728
H22   H     H_    0.675386 0.157461 0.864423 0.250867
C27   C     C_3   0.745709 0.084295 0.678491 -0.698294
H23   H     H_    0.817829 0.157308 0.665621 0.214062
H24   H     H_    0.711954 0.056630 0.572928 0.235304
H25   H     H_    0.790076 0.004214 0.729623 0.213215
N4    N     N_2   0.121510 0.269467 0.450247 -0.441635
H26   H     H_    0.087462 0.236449 0.543575 0.256398
C28   C     C_3   0.131067 0.175344 0.342382 -0.702880
H27   H     H_    0.176319 0.092335 0.386213 0.242433
H28   H     H_    0.189309 0.209215 0.254650 0.232328
H29   H     H_    0.036957 0.149104 0.302863 0.224713

loop_
_geom_bond_atom_site_label_1
_geom_bond_atom_site_label_2
_ccdc_geom_bond_type
C28   H29   S    
C2    C4    S    
Cu2   O2    S    
C27   H24   S    
C6    C7    A    
C23   H17   S    
C22   H1    S    
C11   C13   S    
C9    C10   A    
C9    C20   S    
C5    C13   S    
C14   C17   A    
C19   H14   S    
C4    H21   S    
C20   O5    A    
C24   H18   S    
C17   N2    A    
C2    C21   S    
C11   H7    S    
C17   C18   S    
C20   O6    A    
Cu1   O3    S    
C5    C10   A    
C27   H23   S    
C8    H6    S    
Cu2   O6    S    
N4    C28   S    
C7    H5    S    
C25   H20   S    
C3    C24   S    
C3    H4    S    
C15   N1    A    
C5    C6    A    
C3    H19   S    
Cu2   O4    S    
Cu1   N2    S    
C21   O8    A    
C2    C3    S    
C28   H27   S    
N3    H22   S    
C23   H16   S    
C1    O1    A    
C4    H2    S    
C27   H25   S    
C12   O4    A    
C11   I1    S    
C10   C11   S    
C14   N1    A    
C16   H11   S    
N4    H26   S    
C22   H10   S    
C4    C25   S    
C7    C8    A    
C13   N3    S    
Cu1   O1    S    
C18   H13   S    
C13   H8    S    
C28   H28   S    
C18   C19   S    
C22   C26   S    
Cu2   O8    S    
C12   C26   S    
C2    C23   S    
N3    C27   S    
C1    O2    A    
Cu1   O5    S    
C15   H9    S    
C16   N2    A    
C18   H12   S    
C1    C6    S    
C24   H3    S    
C25   C26   S    
C22   C23   S    
Cu2   N1    S    
C14   C19   S    
Cu1   O7    S    
C12   O3    A    
C21   O7    A    
C15   C16   A    
C19   H15   S    
C8    C9    A    
Cu1   Cu2   S    
C24   C26   S    
C25   N4    S    
