data_mof_unit_25012.cif
_audit_creation_date              2012-12-11T14:45:31-0500
_audit_creation_method            fapswitch 2.2
_symmetry_space_group_name_H-M    P1
_symmetry_Int_Tables_number       1
_space_group_crystal_system       triclinic
_cell_length_a                    24.933523
_cell_length_b                    7.176335
_cell_length_c                    14.445159
_cell_angle_alpha                 89.611142
_cell_angle_beta                  102.941999
_cell_angle_gamma                 88.091984
_cell_volume                      2517.36727621

loop_
_atom_site_label
_atom_site_type_symbol
_atom_type_description
_atom_site_fract_x
_atom_site_fract_y
_atom_site_fract_z
_atom_type_partial_charge
O1    O     O_R   0.319150 0.364170 0.330530 -0.512525
O2    O     O_R   0.680850 0.635830 0.669470 -0.512525
O3    O     O_R   0.180850 0.864170 0.169470 -0.544184
O4    O     O_R   0.819150 0.135830 0.830530 -0.544184
O5    O     O_R   0.210330 0.696850 0.354180 -0.545213
O6    O     O_R   0.789670 0.303150 0.645820 -0.545213
O7    O     O_R   0.289670 0.196850 0.145820 -0.537212
O8    O     O_R   0.710330 0.803150 0.854180 -0.537212
C1    C     C_R   0.197211 0.526515 0.377968 0.677476
C2    C     C_R   0.802789 0.473485 0.622032 0.677476
C3    C     C_R   0.302560 0.024465 0.121787 0.675922
C4    C     C_R   0.697440 0.975535 0.878213 0.675922
O9    O     O_R   0.320550 0.694110 0.341970 -0.540080
O10   O     O_R   0.679450 0.305890 0.658030 -0.540080
O11   O     O_R   0.179450 0.194110 0.158030 -0.510583
O12   O     O_R   0.820550 0.805890 0.841970 -0.510583
O13   O     O_R   0.291860 0.861000 0.157170 -0.545114
O14   O     O_R   0.708140 0.139000 0.842830 -0.545114
O15   O     O_R   0.208140 0.361000 0.342830 -0.536065
O16   O     O_R   0.791860 0.639000 0.657170 -0.536065
C5    C     C_R   0.341664 0.521741 0.362956 0.767530
C6    C     C_R   0.658336 0.478259 0.637043 0.767530
C7    C     C_R   0.158051 0.029165 0.137088 0.763743
C8    C     C_R   0.841948 0.970835 0.862912 0.763742
O17   O     O_3   0.240460 0.529330 0.189380 -0.372581
O18   O     O_3   0.759540 0.470670 0.810620 -0.372581
O19   O     O_3   0.259540 0.029330 0.310620 -0.364925
O20   O     O_3   0.740460 0.970670 0.689380 -0.364925
V1    V     V_3+5 0.251770 0.805510 0.261240 1.504793
V2    V     V_3+5 0.748230 0.194490 0.738760 1.504793
V3    V     V_3+5 0.248230 0.305510 0.238760 1.571106
V4    V     V_3+5 0.751770 0.694490 0.761240 1.571106
C9    C     C_R   0.102108 0.035068 0.073455 -0.285228
C10   C     C_R   0.897892 0.964931 0.926545 -0.285228
C11   C     C_R   0.397124 0.497844 0.426707 -0.282213
C12   C     C_R   0.602875 0.502156 0.573293 -0.282213
C13   C     C_R   0.968249 0.800676 0.047390 0.618185
C14   C     C_R   0.031751 0.199324 0.952610 0.618185
C15   C     C_R   0.536393 0.696006 0.459851 0.615779
C16   C     C_R   0.463607 0.303994 0.540149 0.615779
C17   C     C_R   0.913955 0.819716 0.994519 0.546135
C18   C     C_R   0.086045 0.180284 0.005481 0.546135
C19   C     C_R   0.590252 0.658103 0.511302 0.538542
C20   C     C_R   0.409748 0.341897 0.488698 0.538542
C21   C     C_R   0.937163 0.093257 0.914203 -0.194801
C22   C     C_R   0.062837 0.906742 0.085797 -0.194801
C23   C     C_R   0.560715 0.382256 0.581143 -0.190773
C24   C     C_R   0.439285 0.617744 0.418857 -0.190773
C25   C     C_R   0.992104 0.074112 0.966571 -0.135366
C26   C     C_R   0.007896 0.925888 0.033429 -0.135366
C27   C     C_R   0.506183 0.420523 0.530402 -0.134407
C28   C     C_R   0.493817 0.579477 0.469598 -0.134407
H1    H     H_    0.074710 0.795938 0.138518 0.205470
H2    H     H_    0.925290 0.204062 0.861482 0.205470
H3    H     H_    0.429899 0.736491 0.370448 0.203901
H4    H     H_    0.570101 0.263509 0.629552 0.203901
C29   C     C_R   0.664914 0.985231 0.950376 -0.028733
C30   C     C_R   0.335086 0.014769 0.049624 -0.028733
C31   C     C_R   0.835352 0.476421 0.549668 -0.030495
C32   C     C_R   0.164648 0.523579 0.450332 -0.030495
C33   C     C_R   0.659149 0.974656 0.114636 -0.150324
C34   C     C_R   0.340851 0.025344 0.885363 -0.150324
C35   C     C_R   0.843085 0.425462 0.388266 -0.149469
C36   C     C_R   0.156915 0.574538 0.611733 -0.149469
C37   C     C_R   0.690723 0.974451 0.046499 -0.154674
C38   C     C_R   0.309277 0.025549 0.953501 -0.154674
C39   C     C_R   0.811074 0.435868 0.455643 -0.148385
C40   C     C_R   0.188926 0.564132 0.544357 -0.148385
C41   C     C_R   0.607521 0.996298 0.921983 -0.209967
C42   C     C_R   0.392479 0.003701 0.078017 -0.209967
C43   C     C_R   0.891883 0.505053 0.576758 -0.208537
C44   C     C_R   0.108117 0.494947 0.423242 -0.208538
C45   C     C_R   0.574282 0.994922 0.989585 0.088897
C46   C     C_R   0.425718 0.005078 0.010415 0.088896
C47   C     C_R   0.925821 0.489866 0.510318 0.086849
C48   C     C_R   0.074179 0.510134 0.489682 0.086849
C49   C     C_R   0.601400 0.983724 0.087146 0.115927
C50   C     C_R   0.398600 0.016277 0.912855 0.115927
C51   C     C_R   0.900050 0.450717 0.414756 0.116261
C52   C     C_R   0.099949 0.549283 0.585244 0.116261
C53   C     C_R   0.515365 0.002293 0.963699 0.044129
C54   C     C_R   0.484635 0.997707 0.036301 0.044129
C55   C     C_R   0.984247 0.509411 0.535628 0.042058
C56   C     C_R   0.015753 0.490589 0.464371 0.042058
C57   C     C_R   0.513828 0.986237 0.132266 -0.165935
C58   C     C_R   0.486172 0.013763 0.867734 -0.165935
C59   C     C_R   0.987753 0.454008 0.370174 -0.153496
C60   C     C_R   0.012246 0.545991 0.629826 -0.153496
C61   C     C_R   0.570889 0.979904 0.156782 -0.163568
C62   C     C_R   0.429111 0.020097 0.843218 -0.163568
C63   C     C_R   0.931213 0.434644 0.346261 -0.155618
C64   C     C_R   0.068787 0.565356 0.653739 -0.155618
H5    H     H_    0.591380 0.970905 0.231368 0.177074
H6    H     H_    0.408620 0.029096 0.768632 0.177074
H7    H     H_    0.911684 0.405522 0.273126 0.164870
H8    H     H_    0.088316 0.594477 0.726873 0.164870
H9    H     H_    0.409477 0.997293 0.153416 0.105186
H10   H     H_    0.590523 0.002706 0.846584 0.105186
H11   H     H_    0.092081 0.466351 0.349326 0.110253
H12   H     H_    0.907919 0.533649 0.650673 0.110252
H13   H     H_    0.264774 0.035380 0.931395 0.128302
H14   H     H_    0.735226 0.964621 0.068605 0.128301
H15   H     H_    0.232604 0.588473 0.565379 0.126108
H16   H     H_    0.767396 0.411526 0.434621 0.126108
H17   H     H_    0.679904 0.965792 0.189049 0.131587
H18   H     H_    0.320096 0.034209 0.810951 0.131587
H19   H     H_    0.823407 0.394499 0.315477 0.129224
H20   H     H_    0.176593 0.605501 0.684523 0.129224
H21   H     H_    0.493977 0.981346 0.191068 0.169537
H22   H     H_    0.506023 0.018655 0.808932 0.169537
H23   H     H_    0.008208 0.438766 0.312393 0.164528
H24   H     H_    0.991791 0.561233 0.687607 0.164528
F1    F     F_    0.123056 0.304634 0.989820 -0.648996
F2    F     F_    0.876944 0.695366 0.010180 -0.648996
F3    F     F_    0.369752 0.224988 0.499377 -0.650195
F4    F     F_    0.630248 0.775012 0.500622 -0.650195
F5    F     F_    0.982067 0.658355 0.111741 -0.669369
F6    F     F_    0.017933 0.341645 0.888259 -0.669369
F7    F     F_    0.525866 0.848218 0.401317 -0.670338
F8    F     F_    0.474134 0.151782 0.598683 -0.670338

loop_
_geom_bond_atom_site_label_1
_geom_bond_atom_site_label_2
_ccdc_geom_bond_type
O17   V3    S    
C24   H3    S    
O1    C5    A    
C59   C63   A    
O19   V1    S    
O13   V1    S    
O3    C7    A    
C56   C59   A    
O1    V3    S    
C17   F2    S    
C44   C48   A    
O15   V3    S    
C48   C56   A    
C53   C54   A    
C14   C25   A    
C35   C51   A    
C50   C62   A    
O7    C3    A    
C49   C61   A    
O5    C1    A    
C9    C18   A    
C36   C40   A    
O9    V1    S    
C58   H22   S    
O10   V2    S    
C14   C18   A    
C57   H21   S    
O4    C8    A    
C59   H23   S    
C32   C44   A    
C64   H8    S    
C12   C23   A    
O2    V4    S    
O3    V1    S    
C31   C39   A    
C1    O15   A    
C60   C64   A    
C20   F3    S    
C2    O16   A    
C7    C9    S    
O2    C6    A    
C40   H15   S    
C41   C45   A    
O14   V2    S    
C3    C30   S    
C33   H17   S    
C16   C20   A    
C51   C63   A    
C53   C58   A    
C42   H9    S    
C41   H10   S    
O11   C7    A    
C55   C60   A    
O12   C8    A    
C61   H5    S    
C9    C22   A    
C36   C52   A    
C38   H13   S    
C10   C17   A    
C37   H14   S    
C46   C54   A    
C11   C24   A    
C45   C53   A    
C30   C38   A    
C39   H16   S    
C62   H6    S    
O5    V1    S    
C35   C39   A    
O7    V3    S    
C34   C38   A    
C27   C28   A    
O8    V4    S    
C58   C62   A    
C33   C49   A    
C57   C61   A    
O18   V4    S    
C30   C42   A    
C15   C19   A    
C8    C10   S    
C14   F6    S    
C52   C64   A    
C42   C46   A    
C19   F4    S    
C18   F1    S    
C55   C56   A    
C21   C25   A    
O8    C4    A    
O9    C5    A    
C10   C21   A    
C11   C20   A    
C5    C11   S    
C4    C29   S    
C16   F8    S    
C21   H2    S    
C35   H19   S    
C54   C57   A    
O16   V4    S    
C3    O13   A    
O6    V2    S    
C34   C50   A    
C48   C52   A    
C29   C37   A    
O6    C2    A    
C23   C27   A    
O11   V3    S    
C34   H18   S    
O12   V4    S    
C16   C27   A    
C6    C12   S    
C43   H12   S    
C22   C26   A    
C1    C32   S    
O10   C6    A    
O20   V2    S    
C2    C31   S    
C43   C47   A    
C13   C26   A    
C47   C55   A    
C15   F7    S    
C22   H1    S    
C15   C28   A    
C13   C17   A    
C63   H7    S    
C60   H24   S    
C33   C37   A    
C24   C28   A    
C13   F5    S    
C32   C40   A    
C25   C26   A    
C46   C50   A    
C4    O14   A    
C45   C49   A    
C12   C19   A    
C29   C41   A    
C47   C51   A    
O4    V2    S    
C36   H20   S    
C31   C43   A    
C23   H4    S    
C44   H11   S    
