data_mof_unit_56188.cif
_audit_creation_date              2012-12-11T15:55:48-0500
_audit_creation_method            fapswitch 2.2
_symmetry_space_group_name_H-M    P1
_symmetry_Int_Tables_number       1
_space_group_crystal_system       triclinic
_cell_length_a                    11.044311
_cell_length_b                    11.096913
_cell_length_c                    18.749861
_cell_angle_alpha                 90.040928
_cell_angle_beta                  90.633398
_cell_angle_gamma                 58.985998
_cell_volume                      1969.2769239

loop_
_atom_site_label
_atom_site_type_symbol
_atom_type_description
_atom_site_fract_x
_atom_site_fract_y
_atom_site_fract_z
_atom_type_partial_charge
C1    C     C_R   0.387075 0.710240 0.389635 0.548936
C2    C     C_R   0.617695 0.143583 0.161663 0.047287
C3    C     C_R   0.356876 0.337911 0.161084 -0.008520
C4    C     C_R   0.488953 0.261987 0.271184 -0.164724
C5    C     C_R   0.487282 0.254215 0.197380 -0.037841
C6    C     C_R   0.090486 0.687083 0.325534 -0.043887
C7    C     C_R   0.972385 0.787754 0.362235 -0.107728
C8    C     C_R   0.665709 0.174522 0.099085 -0.062788
C9    C     C_R   0.776464 0.066546 0.060726 -0.082516
C10   C     C_R   0.238072 0.439857 0.198738 -0.153575
C11   C     C_R   0.239204 0.446267 0.272813 -0.045962
C12   C     C_R   0.386398 0.356575 0.386883 0.550885
C13   C     C_R   0.858426 0.770294 0.371008 -0.143392
C14   C     C_R   0.866264 0.649138 0.345774 -0.104311
C15   C     C_R   0.991718 0.539534 0.316506 -0.096300
C16   C     C_R   0.107555 0.556687 0.307708 0.030722
C17   C     C_R   0.365922 0.350484 0.309990 -0.004862
C18   C     C_R   0.868973 0.328715 0.183894 0.026659
C19   C     C_R   0.951949 0.219424 0.232111 0.003857
C20   C     C_R   0.923648 0.235275 0.304092 -0.017118
C21   C     C_R   0.732529 0.471286 0.280818 -0.165788
C22   C     C_R   0.762885 0.457736 0.208888 -0.164435
C23   C     C_R   0.773186 0.381177 0.402339 0.543831
C24   C     C_3   0.980628 0.072386 0.233316 -0.252211
C25   C     C_3   0.947939 0.091589 0.311914 -0.290424
C26   C     C_R   0.812063 0.360212 0.328814 0.021718
C27   C     C_R   0.371274 0.823879 0.171040 0.014753
C28   C     C_R   0.404075 0.891128 0.224195 0.008373
C29   C     C_R   0.412068 0.853373 0.294993 0.016934
C30   C     C_R   0.390635 0.657633 0.260369 -0.199747
C31   C     C_R   0.375654 0.699069 0.188690 -0.162272
C32   C     C_3   0.337237 0.042865 0.242096 -0.268917
C33   C     C_3   0.347406 0.001208 0.320074 -0.267198
C34   C     C_R   0.345053 0.767524 0.605046 0.548845
C35   C     C_R   0.387511 0.746680 0.314785 -0.010839
C36   C     C_R   0.334213 0.335674 0.821478 0.018618
C37   C     C_R   0.460020 0.237524 0.787865 0.030128
C38   C     C_R   0.485002 0.254862 0.718516 0.017635
C39   C     C_R   0.273543 0.483199 0.716417 -0.162703
C40   C     C_R   0.246237 0.465109 0.787492 -0.163871
C41   C     C_3   0.521887 0.082623 0.778171 -0.267828
C42   C     C_3   0.547446 0.102347 0.701631 -0.272958
C43   C     C_R   0.387199 0.372488 0.680007 0.014241
C44   C     C_R   0.849119 0.322001 0.829050 0.021203
C45   C     C_R   0.408623 0.379182 0.604393 0.575361
C46   C     C_R   0.891870 0.398508 0.787763 0.037497
C47   C     C_R   0.877845 0.405391 0.715199 0.017053
C48   C     C_R   0.798967 0.239440 0.719975 -0.171184
C49   C     C_R   0.807911 0.236911 0.794531 -0.178101
C50   C     C_3   0.848834 0.549772 0.794038 -0.248833
C51   C     C_3   0.828005 0.559671 0.713723 -0.123494
C52   C     C_R   0.824730 0.331499 0.680232 0.005582
C53   C     C_R   0.315197 0.823361 0.829555 0.021168
C54   C     C_R   0.218739 0.802724 0.790822 0.022622
C55   C     C_R   0.223021 0.797786 0.717362 0.024133
C56   C     C_R   0.764131 0.375800 0.609784 0.547960
C57   C     C_R   0.431432 0.813869 0.718371 -0.171225
C58   C     C_R   0.429991 0.815033 0.792918 -0.167327
C59   C     C_3   0.061128 0.885482 0.790370 -0.269983
C60   C     C_3   0.066247 0.882819 0.709834 -0.286655
C61   C     C_R   0.324514 0.809611 0.679529 0.020647
C62   C     C_R   0.913232 0.314140 0.111694 0.540876
C63   C     C_R   0.329251 0.295702 0.091609 0.536319
C64   C     C_R   0.310875 0.895461 0.103915 0.538219
C65   C     C_R   0.884814 0.309474 0.904115 0.538883
C66   C     C_R   0.298419 0.290745 0.886789 0.544648
C67   C     C_R   0.844426 0.928057 0.085887 -0.110210
C68   C     C_R   0.277374 0.891722 0.898823 0.542548
C69   C     C_R   0.801007 0.896729 0.149304 -0.124158
C70   C     C_R   0.688270 0.003594 0.187053 -0.104273
Cr1   Cr    Cr6+3 0.601740 0.606840 0.505840 0.977425
Cr2   Cr    Cr6+3 0.291500 0.601560 0.495070 0.985970
Cr3   Cr    Cr6+3 0.606780 0.291630 0.499130 0.986812
Cr4   Cr    Cr6+3 0.062440 0.063060 0.008240 0.981659
Cr5   Cr    Cr6+3 0.062950 0.375000 0.998920 1.000757
Cr6   Cr    Cr6+3 0.374550 0.061770 0.992470 1.017234
H1    H     H_    0.589139 0.196260 0.298436 0.140230
H2    H     H_    0.763295 0.851405 0.396153 0.108729
H3    H     H_    0.772912 0.644523 0.349514 0.158697
H4    H     H_    0.998371 0.443810 0.298876 0.127830
H5    H     H_    0.647920 0.569489 0.299543 0.133102
H6    H     H_    0.702454 0.545991 0.173038 0.134225
H7    H     H_    0.092472 0.992606 0.222800 0.161536
H8    H     H_    0.902979 0.060650 0.201266 0.172770
H9    H     H_    0.849470 0.092747 0.325156 0.144458
H10   H     H_    0.041301 0.024834 0.346489 0.142415
H11   H     H_    0.397048 0.560583 0.273748 0.128296
H12   H     H_    0.809201 0.090126 0.011211 0.137246
H13   H     H_    0.359531 0.638837 0.148215 0.124851
H14   H     H_    0.228115 0.108180 0.221008 0.144416
H15   H     H_    0.407271 0.081899 0.228575 0.157780
H16   H     H_    0.423692 0.017948 0.351250 0.147382
H17   H     H_    0.243279 0.041652 0.345416 0.146197
H18   H     H_    0.201369 0.578519 0.688171 0.135829
H19   H     H_    0.153392 0.547096 0.813585 0.111320
H20   H     H_    0.441037 0.052550 0.783628 0.160354
H21   H     H_    0.620820 0.018745 0.809824 0.130857
H22   H     H_    0.661182 0.048261 0.688674 0.120278
H23   H     H_    0.968171 0.879669 0.383514 0.115928
H24   H     H_    0.481712 0.082314 0.663663 0.158273
H25   H     H_    0.762327 0.177578 0.693783 0.138799
H26   H     H_    0.781548 0.170566 0.824775 0.120843
H27   H     H_    0.936786 0.561525 0.814360 0.138845
H28   H     H_    0.748578 0.612349 0.823556 0.123377
H29   H     H_    0.714891 0.623921 0.699233 0.164003
H30   H     H_    0.513291 0.820729 0.691020 0.113452
H31   H     H_    0.510545 0.824654 0.821182 0.122142
H32   H     H_    0.020190 0.991199 0.812827 0.176114
H33   H     H_    0.930836 0.845131 0.056289 0.107949
H34   H     H_    0.015416 0.825100 0.812898 0.121296
H35   H     H_    0.020577 0.823431 0.686158 0.128191
H36   H     H_    0.029706 0.986926 0.684892 0.148305
H37   H     H_    0.854018 0.789528 0.169015 0.122345
H38   H     H_    0.654819 0.976115 0.235299 0.104915
H39   H     H_    0.166828 0.712488 0.310962 0.137921
H40   H     H_    0.613690 0.281182 0.078607 0.095015
H41   H     H_    0.139312 0.508977 0.170896 0.143868
O1    O     O_R   0.748670 0.497520 0.427970 -0.541629
O2    O     O_R   0.300170 0.471020 0.567120 -0.515063
O3    O     O_R   0.491630 0.259030 0.574940 -0.519021
O4    O     O_R   0.718640 0.304340 0.577850 -0.522983
O5    O     O_3   0.500010 0.500010 0.500020 -0.286561
O6    O     O_R   0.186620 0.923750 0.087000 -0.525664
O7    O     O_R   0.957350 0.194160 0.084660 -0.507859
O8    O     O_R   0.935120 0.407280 0.085350 -0.522616
O9    O     O_R   0.203800 0.365060 0.067090 -0.512571
O10   O     O_R   0.417470 0.174910 0.067830 -0.502672
O11   O     O_R   0.375160 0.946380 0.070880 -0.492723
O12   O     O_R   0.476470 0.723930 0.429450 -0.497482
O13   O     O_R   0.160500 0.919670 0.926690 -0.527769
O14   O     O_R   0.933140 0.190380 0.936050 -0.525508
O15   O     O_R   0.909010 0.403210 0.925030 -0.520999
O16   O     O_R   0.179590 0.361290 0.918480 -0.506694
O17   O     O_R   0.391360 0.170840 0.907510 -0.526566
O18   O     O_R   0.350950 0.942600 0.922260 -0.511746
O19   O     O_3   0.166650 0.166610 0.999880 -0.244856
O20   O     O_R   0.264730 0.744140 0.416740 -0.532475
O21   O     O_R   0.309440 0.472410 0.418220 -0.499482
O22   O     O_R   0.501630 0.260530 0.414310 -0.530837
O23   O     O_R   0.727920 0.305730 0.428950 -0.506042
O24   O     O_R   0.738670 0.496020 0.588600 -0.528089
O25   O     O_R   0.467190 0.722540 0.578350 -0.510620
O26   O     O_R   0.254720 0.742640 0.577370 -0.533895
C71   C     C_3   0.925294 0.594453 0.671250 -0.241336
C72   C     C_3   0.841656 0.715560 0.617712 -0.316144
C73   C     C_3   0.935663 0.714942 0.558454 -0.415743
H42   H     H_    0.030601 0.711298 0.580914 0.180951
H43   H     H_    0.969753 0.622179 0.523572 0.175837
H44   H     H_    0.875729 0.811898 0.525681 0.126143
H45   H     H_    0.753761 0.709638 0.592321 0.202925
H46   H     H_    0.794423 0.816887 0.646568 0.134037
H47   H     H_    0.980714 0.628026 0.708331 0.124824
H48   H     H_    0.006413 0.499324 0.642662 0.180712

loop_
_geom_bond_atom_site_label_1
_geom_bond_atom_site_label_2
_ccdc_geom_bond_type
C44   C49   A    
Cr2   O26   S    
Cr4   O7    S    
C21   C26   A    
C50   H28   S    
C41   C42   S    
C54   C55   A    
Cr1   O5    S    
C19   C20   A    
C23   O1    A    
C62   O7    A    
C72   C73   S    
Cr6   O19   S    
C51   C71   S    
C70   H38   S    
C69   H37   S    
C7    H23   S    
C30   C35   A    
C22   H6    S    
C21   C22   A    
C36   C37   A    
C24   H7    S    
C38   C42   S    
C1    O12   A    
C42   H22   S    
C9    H12   S    
C30   C31   A    
C36   C66   S    
C32   H15   S    
C20   C25   S    
C15   C16   A    
C66   O16   A    
C29   C33   S    
C59   H34   S    
C18   C19   A    
C23   C26   S    
C71   H48   S    
C4    H1    S    
C53   C68   S    
C36   C40   A    
C7    C13   A    
C66   O17   A    
C67   H33   S    
C32   H14   S    
C8    C9    A    
C31   H13   S    
Cr4   O19   S    
C12   C17   S    
C72   H45   S    
Cr1   O24   S    
C45   O2    A    
Cr2   O21   S    
C57   H30   S    
C50   H27   S    
Cr3   O3    S    
C13   C14   A    
C44   C65   S    
C65   O14   A    
Cr6   O18   S    
C44   C46   A    
C73   H43   S    
C54   C59   S    
Cr4   O14   S    
C34   O26   A    
C27   C31   A    
C23   O23   A    
C28   C32   S    
C24   C25   S    
C10   C11   A    
C33   H16   S    
C49   H26   S    
Cr6   O17   S    
Cr5   O19   S    
C71   C72   S    
C39   C43   A    
Cr3   O22   S    
C64   O11   A    
C53   C54   A    
C34   C61   S    
C33   H17   S    
Cr5   O8    S    
C47   C52   A    
C9    C67   A    
C39   H18   S    
C37   C38   A    
C60   H36   S    
C42   H24   S    
Cr1   O12   S    
C73   H44   S    
C34   O25   A    
C11   C16   S    
C15   H4    S    
C48   C52   A    
C51   H29   S    
C25   H9    S    
C50   C51   S    
C12   O22   A    
C14   H3    S    
C68   O13   A    
C43   C45   S    
C72   H46   S    
Cr1   O25   S    
C56   O24   A    
C45   O3    A    
Cr2   O20   S    
C41   H20   S    
C21   H5    S    
Cr3   O4    S    
Cr4   O13   S    
Cr6   O11   S    
C41   H21   S    
C2    C5    S    
C4    C17   A    
C40   H19   S    
C58   H31   S    
C65   O15   A    
C1    O20   A    
Cr5   O15   S    
C1    C35   S    
C73   H42   S    
C46   C50   S    
C46   C47   A    
C28   C29   A    
Cr1   O1    S    
Cr2   O5    S    
C18   C22   A    
C68   O18   A    
C2    C8    A    
C4    C5    A    
C3    C5    A    
C11   C17   A    
C62   O8    A    
C47   C51   S    
C53   C58   A    
Cr5   O16   S    
C57   C61   A    
C6    C7    A    
Cr3   O23   S    
C3    C63   S    
C64   O6    A    
C29   C35   A    
C8    H40   S    
C59   H32   S    
C10   H41   S    
Cr5   O9    S    
C32   C33   S    
C19   C24   S    
C24   H8    S    
C38   C43   A    
C71   H47   S    
C60   H35   S    
C2    C70   A    
C56   O4    A    
C57   C58   A    
C20   C26   A    
C48   C49   A    
C48   H25   S    
C55   C61   A    
Cr2   O2    S    
C25   H10   S    
Cr4   O6    S    
C12   O21   A    
C37   C41   S    
C69   C70   A    
C6    H39   S    
C63   O9    A    
C27   C64   S    
C13   H2    S    
C6    C16   A    
C39   C40   A    
C59   C60   S    
Cr3   O5    S    
C27   C28   A    
C3    C10   A    
Cr6   O10   S    
C14   C15   A    
C18   C62   S    
C67   C69   A    
C30   H11   S    
C55   C60   S    
C63   O10   A    
C52   C56   S    
