data_mof_unit_17674.cif
_audit_creation_date              2012-12-11T14:44:27-0500
_audit_creation_method            fapswitch 2.2
_symmetry_space_group_name_H-M    P1
_symmetry_Int_Tables_number       1
_space_group_crystal_system       triclinic
_cell_length_a                    25.145983
_cell_length_b                    16.879124
_cell_length_c                    15.671214
_cell_angle_alpha                 89.549323
_cell_angle_beta                  49.396462
_cell_angle_gamma                 89.791275
_cell_volume                      5049.87825098

loop_
_atom_site_label
_atom_site_type_symbol
_atom_type_description
_atom_site_fract_x
_atom_site_fract_y
_atom_site_fract_z
_atom_type_partial_charge
C1    C     C_R   0.349644 0.143843 0.762569 -0.117743
C2    C     C_3   0.721624 0.731552 0.584574 -0.122852
C3    C     C_1   0.574423 0.854513 0.701494 0.116969
C4    C     C_1   0.089968 0.588847 0.704271 0.040477
C5    C     C_1   0.932376 0.343515 0.295406 0.104419
C6    C     C_1   0.906680 0.580070 0.301178 0.145730
C7    C     C_1   0.087751 0.389561 0.703790 0.103914
C8    C     C_1   0.759647 0.868853 0.473641 0.233491
C9    C     C_1   0.154001 0.172810 0.717928 0.157371
C10   C     C_1   0.281095 0.844478 0.377660 0.206593
C11   C     C_1   0.846554 0.168689 0.275388 0.164210
C12   C     C_1   0.336401 0.297085 0.278774 0.152792
C13   C     C_3   0.830623 0.180201 0.459088 -0.133398
C14   C     C_1   0.690787 0.547138 0.528499 0.262147
C15   C     C_1   0.690551 0.246852 0.729541 0.139751
C16   C     C_1   0.247051 0.583966 0.633762 0.243685
C17   C     C_1   0.116348 0.194259 0.560279 0.194896
C18   C     C_1   0.719650 0.761887 0.674136 0.176550
C19   C     C_1   0.899570 0.149570 0.412459 0.185872
C20   C     C_1   0.346800 0.669082 0.276702 0.165580
C21   C     C_1   0.727150 0.659152 0.327087 0.198986
C22   C     C_1   0.373613 0.279538 0.435002 0.194923
C23   C     C_1   0.185359 0.756057 0.729112 0.162774
C24   C     C_3   0.303158 0.691932 0.395156 -0.128032
C25   C     C_1   0.638631 0.274395 0.592444 0.182895
C26   C     C_1   0.206967 0.928809 0.035358 0.103830
C27   C     C_1   0.723532 0.081352 0.950451 0.141335
C28   C     C_1   0.799465 0.916694 0.969201 0.088045
C29   C     C_1   0.342517 0.326602 0.745177 0.177787
C30   C     C_1   0.825479 0.188841 0.756158 0.135571
C31   C     C_1   0.204303 0.720377 0.003863 0.106026
C32   C     C_1   0.286893 0.437673 0.964654 0.100240
C33   C     C_1   0.788350 0.703684 0.981216 0.116304
C34   C     C_1   0.322922 0.772158 0.010237 0.124103
C35   C     C_3   0.726602 0.685715 0.416370 -0.119420
C36   C     C_1   0.683619 0.289206 0.058651 0.116060
C37   C     C_1   0.672222 0.776688 0.995151 0.122117
C38   C     C_1   0.333620 0.245472 0.979917 0.110483
C39   C     C_1   0.832978 0.244420 0.980310 0.104716
C40   C     C_1   0.102105 0.839797 0.271090 0.144231
C41   C     C_1   0.176388 0.270008 0.993520 0.130640
C42   C     C_1   0.904038 0.844359 0.733854 0.176301
C43   C     C_3   0.305963 0.255080 0.468946 -0.132117
C44   C     C_3   0.228951 0.734552 0.610089 -0.120597
C45   C     C_3   0.706391 0.238658 0.545110 -0.128211
C46   C     C_2   0.683913 0.203508 0.055484 -0.069974
C47   C     C_2   0.300406 0.837914 0.980571 -0.057276
C48   C     C_2   0.347254 0.251936 0.874900 -0.065442
C49   C     C_R   0.665881 0.885845 0.201597 -0.118406
C50   C     C_2   0.699589 0.838018 0.021657 -0.053188
C51   C     C_2   0.126100 0.776334 0.191803 -0.058225
C52   C     C_2   0.839857 0.249070 0.881252 -0.054264
C53   C     C_2   0.875001 0.774610 0.805303 -0.057516
C54   C     C_2   0.198646 0.336910 0.020996 -0.051018
C55   C     C_2   0.736340 0.162153 0.963428 -0.040643
C56   C     C_2   0.231328 0.852140 0.039972 -0.043168
C57   C     C_2   0.321410 0.313053 0.854812 -0.065964
C58   C     C_2   0.769490 0.845985 0.962674 -0.031307
C59   C     C_2   0.183208 0.784106 0.082545 -0.038158
C60   C     C_R   0.659291 0.131127 0.216146 -0.105120
C61   C     C_2   0.802856 0.200562 0.867189 -0.051474
C62   C     C_2   0.814326 0.775533 0.912412 -0.046108
C63   C     C_2   0.265789 0.363710 0.947951 -0.017516
C64   C     C_R   0.617490 0.096473 0.590340 0.008633
C65   C     C_R   0.399450 0.863108 0.409402 0.073370
C66   C     C_R   0.382898 0.098252 0.409149 0.005461
C67   C     C_R   0.588569 0.855033 0.596427 0.044006
C68   C     C_R   0.117394 0.597123 0.590400 0.095254
C69   C     C_R   0.901103 0.360853 0.409329 0.047513
C70   C     C_R   0.886282 0.605929 0.406240 0.035175
C71   C     C_R   0.334503 0.884075 0.798334 -0.104334
C72   C     C_R   0.113595 0.386937 0.590693 -0.005785
C73   C     C_R   0.691100 0.098662 0.405050 -0.131300
C74   C     C_R   0.323763 0.865864 0.597369 -0.126213
C75   C     C_R   0.309212 0.099551 0.593928 -0.151704
C76   C     C_R   0.660402 0.851013 0.409445 -0.147618
C77   C     C_R   0.191099 0.598580 0.405383 -0.137632
C78   C     C_R   0.823350 0.366285 0.596394 -0.142104
C79   C     C_R   0.811235 0.607787 0.592696 -0.168817
C80   C     C_R   0.187057 0.386028 0.404297 -0.142280
C81   C     C_R   0.572001 0.127206 0.212093 -0.130151
C82   C     C_R   0.861843 0.653151 0.733726 -0.122190
C83   C     C_R   0.419682 0.891319 0.805400 -0.090109
C84   C     C_R   0.437455 0.139946 0.765769 -0.112820
C85   C     C_R   0.581252 0.893959 0.193562 -0.087613
C86   C     C_R   0.053329 0.648861 0.256449 -0.113449
C87   C     C_R   0.934726 0.360180 0.770237 -0.113203
C88   C     C_R   0.949000 0.649814 0.737287 -0.076094
C89   C     C_R   0.080756 0.392097 0.194617 -0.127469
C90   C     C_R   0.379051 0.183124 0.800261 0.081440
C91   C     C_R   0.650095 0.870804 0.134712 0.079049
C92   C     C_R   0.636463 0.162094 0.163348 0.087454
C93   C     C_R   0.165373 0.382939 0.202820 -0.096716
C94   C     C_R   0.350907 0.867525 0.864663 0.082475
C95   C     C_R   0.899248 0.698014 0.751396 0.071774
C96   C     C_R   0.148817 0.366052 0.136966 0.070744
C97   C     C_R   0.105273 0.696141 0.237202 0.073355
C98   C     C_R   0.874247 0.319591 0.808560 0.077972
C99   C     C_R   0.686067 0.107758 0.496566 0.101186
C100  C     C_R   0.340698 0.828479 0.505466 0.105200
C101  C     C_R   0.314266 0.111047 0.502192 0.111708
C102  C     C_R   0.635642 0.807765 0.504810 0.096238
C103  C     C_R   0.185780 0.608762 0.496976 0.078013
C104  C     C_R   0.141073 0.651760 0.259160 -0.103397
C105  C     C_R   0.842507 0.325826 0.504947 0.092952
C106  C     C_R   0.820167 0.626931 0.498691 0.088241
C107  C     C_R   0.179036 0.363717 0.496328 0.107626
C108  C     C_3   0.255411 0.181019 0.426010 0.478139
C109  C     C_3   0.659713 0.695652 0.599817 0.462242
C110  C     C_3   0.759336 0.144833 0.561498 0.479379
C111  C     C_3   0.328074 0.684541 0.462549 0.489561
C112  C     C_3   0.788606 0.721387 0.401269 0.458167
C113  C     C_3   0.235068 0.288691 0.570724 0.469958
C114  C     C_3   0.204352 0.742078 0.542977 0.477878
C115  C     C_R   0.845557 0.361326 0.771933 -0.110489
C116  C     C_3   0.776721 0.272914 0.442792 0.467581
C117  C     C_3   0.740248 0.784511 0.488829 -0.153698
C118  C     C_3   0.202870 0.205073 0.603057 -0.122021
C119  C     C_3   0.275318 0.775553 0.441288 -0.153989
C120  C     C_3   0.804179 0.189612 0.394333 -0.119883
C121  C     C_3   0.287383 0.264925 0.393689 -0.127100
C122  C     C_3   0.708706 0.631618 0.512190 -0.152209
C123  C     C_3   0.732371 0.228677 0.609823 -0.114044
C124  C     C_3   0.256234 0.650497 0.564650 -0.172320
C125  C     C_3   0.678237 0.749286 0.503529 -0.109070
C126  C     C_3   0.184155 0.215368 0.527776 -0.131710
C127  C     C_3   0.273726 0.170864 0.501754 -0.105519
C128  C     C_3   0.300046 0.768268 0.508325 -0.114623
C129  C     C_3   0.733442 0.154747 0.496254 -0.105864
C130  C     C_3   0.216678 0.299202 0.495320 -0.110321
C131  C     C_3   0.770135 0.667669 0.497616 -0.108838
C132  C     C_3   0.803026 0.263535 0.507548 -0.124196
C133  C     C_3   0.232051 0.657550 0.496859 -0.108890
C134  C     C_1   0.591070 0.083010 0.702843 0.083524
C135  C     C_1   0.429645 0.848159 0.295422 0.060822
C136  C     C_1   0.409925 0.086752 0.296279 0.094328
Cl1   Cl    Cl    0.264406 0.109274 0.334480 -0.642656
Cl2   Cl    Cl    0.575261 0.669872 0.728870 -0.645355
Cl3   Cl    Cl    0.748874 0.059382 0.638912 -0.665614
Cl4   Cl    Cl    0.411060 0.647807 0.410292 -0.620356
Cl5   Cl    Cl    0.871166 0.748276 0.269451 -0.672207
Cl6   Cl    Cl    0.227273 0.356152 0.664785 -0.687017
Cl7   Cl    Cl    0.122819 0.785339 0.595960 -0.667179
Cl8   Cl    Cl    0.783359 0.355841 0.364748 -0.670412
H1    H     H_    0.302248 0.158894 0.777893 0.117086
H2    H     H_    0.279506 0.856417 0.684964 0.110374
H3    H     H_    0.262639 0.101532 0.681577 0.120465
H4    H     H_    0.702996 0.834653 0.323574 0.128606
H5    H     H_    0.238004 0.598172 0.317951 0.110924
H6    H     H_    0.776229 0.360106 0.682492 0.112253
H7    H     H_    0.762804 0.607304 0.679103 0.128584
H8    H     H_    0.232150 0.379224 0.316433 0.117607
H9    H     H_    0.544194 0.131704 0.181400 0.116923
H10   H     H_    0.443883 0.898037 0.841755 0.114896
H11   H     H_    0.471187 0.153652 0.783653 0.113592
H12   H     H_    0.716639 0.882951 0.178583 0.107458
H13   H     H_    0.557941 0.902831 0.156062 0.114381
H14   H     H_    0.015988 0.666959 0.247507 0.143059
H15   H     H_    0.967003 0.344532 0.790033 0.112944
H16   H     H_    0.985925 0.667717 0.746831 0.152172
H17   H     H_    0.058384 0.402382 0.155850 0.123606
H18   H     H_    0.710686 0.137409 0.190627 0.113798
H19   H     H_    0.283201 0.881770 0.823063 0.099146
H20   H     H_    0.818055 0.672392 0.740985 0.117137
H21   H     H_    0.216612 0.379779 0.178479 0.103342
H22   H     H_    0.184152 0.670993 0.253708 0.116121
H23   H     H_    0.794721 0.351882 0.797184 0.102756
H24   H     H_    0.737809 0.098427 0.317504 0.115366
N1    N     N_R   0.389620 0.081040 0.705440 -0.046116
N2    N     N_R   0.417680 0.920160 0.443370 -0.071363
N3    N     N_R   0.417680 0.079840 0.443370 -0.067265
N4    N     N_R   0.582320 0.920160 0.556630 -0.073952
N5    N     N_R   0.082320 0.579840 0.556630 -0.064302
N6    N     N_R   0.917680 0.420160 0.443370 -0.070790
N7    N     N_R   0.917680 0.579840 0.443370 -0.071590
N8    N     N_R   0.082320 0.420160 0.556630 -0.070644
N9    N     N_R   0.627920 0.078930 0.443400 -0.052297
N10   N     N_R   0.372080 0.921070 0.556600 -0.055305
N11   N     N_R   0.372080 0.078930 0.556600 -0.053681
N12   N     N_R   0.610380 0.918960 0.294560 -0.043097
N13   N     N_R   0.627920 0.921070 0.443400 -0.055573
N14   N     N_R   0.127920 0.578930 0.443400 -0.051338
N15   N     N_R   0.872080 0.421070 0.556600 -0.053135
N16   N     N_R   0.872080 0.578930 0.556600 -0.050558
N17   N     N_R   0.127920 0.421070 0.443400 -0.054035
N18   N     N_R   0.555090 0.077730 0.294590 -0.049693
N19   N     N_R   0.444910 0.922270 0.705410 -0.051174
N20   N     N_R   0.444910 0.077730 0.705410 -0.049908
N21   N     N_R   0.555090 0.922270 0.294590 -0.047115
N22   N     N_R   0.055090 0.577730 0.294590 -0.052327
N23   N     N_R   0.610380 0.081040 0.294560 -0.047071
N24   N     N_R   0.944910 0.422270 0.705410 -0.048529
N25   N     N_R   0.944910 0.577730 0.705410 -0.054806
N26   N     N_R   0.055090 0.422270 0.294590 -0.051547
N27   N     N_1   0.569763 0.072143 0.793325 -0.047132
N28   N     N_1   0.452596 0.835258 0.204622 -0.066544
N29   N     N_1   0.431758 0.077248 0.205439 -0.045827
N30   N     N_1   0.563793 0.854907 0.785323 -0.038754
N31   N     N_1   0.067877 0.582557 0.795824 -0.052623
N32   N     N_1   0.956043 0.328452 0.204773 -0.053116
N33   N     N_1   0.923109 0.558792 0.216927 -0.029276
N34   N     N_R   0.389620 0.918960 0.705440 -0.043817
N35   N     N_1   0.066627 0.391692 0.795032 -0.033978
N36   N     N_1   0.775063 0.935051 0.460759 -0.033350
N37   N     N_1   0.115421 0.147498 0.808470 -0.067992
N38   N     N_1   0.285519 0.898677 0.327683 -0.017320
N39   N     N_1   0.880146 0.152233 0.181632 -0.069109
N40   N     N_1   0.375167 0.322401 0.188255 -0.072752
N41   N     N_1   0.675777 0.480768 0.542898 -0.022846
N42   N     N_1   0.657552 0.260876 0.823932 -0.082815
N43   N     N_1   0.239802 0.532549 0.689673 -0.002152
N44   N     N_1   0.062967 0.177840 0.585928 -0.067991
N45   N     N_R   0.889620 0.581040 0.705440 -0.044686
N46   N     N_1   0.718565 0.786533 0.743878 -0.069354
N47   N     N_1   0.953907 0.125524 0.375701 -0.062279
N48   N     N_1   0.381378 0.651121 0.183310 -0.049858
N49   N     N_1   0.727278 0.637826 0.257059 -0.054146
N50   N     N_1   0.426902 0.298575 0.407846 -0.061577
N51   N     N_1   0.150897 0.772781 0.822945 -0.064236
N52   N     N_1   0.585381 0.302341 0.629658 -0.070687
N53   N     N_1   0.187567 0.989988 0.031685 -0.071633
N54   N     N_1   0.712391 0.017568 0.939296 -0.060501
N55   N     N_1   0.823583 0.972829 0.974278 -0.078657
N56   N     N_R   0.110380 0.418960 0.294560 -0.045487
N57   N     N_1   0.359808 0.337555 0.657284 -0.023562
N58   N     N_1   0.843943 0.179466 0.667409 -0.049707
N59   N     N_1   0.221100 0.669806 0.941313 -0.066741
N60   N     N_1   0.303719 0.496796 0.977959 -0.064095
N61   N     N_1   0.767837 0.646230 0.034735 -0.055999
N62   N     N_1   0.340869 0.719579 0.033925 -0.058198
N63   N     N_1   0.683295 0.357720 0.061275 -0.062953
N64   N     N_1   0.649985 0.727399 0.975124 -0.054337
N65   N     N_1   0.322636 0.240207 0.063833 -0.050632
N66   N     N_1   0.827609 0.240935 0.059399 -0.059554
N67   N     N_R   0.110380 0.581040 0.294560 -0.046728
N68   N     N_1   0.082880 0.890453 0.334597 -0.039610
N69   N     N_1   0.158581 0.216607 0.971585 -0.072396
N70   N     N_1   0.927303 0.900076 0.676588 -0.042615
N71   N     N_R   0.889620 0.418960 0.705440 -0.044816
N72   N     N_R   0.582320 0.079840 0.556630 -0.067415
Ni1   Ni    Ni4+2 0.382970 0.000000 0.629840 0.221649
Ni2   Ni    Ni4+2 0.617030 1.000000 0.370160 0.220470
Ni3   Ni    Ni4+2 0.882970 0.500000 0.629840 0.224318
Ni4   Ni    Ni4+2 0.117030 0.500000 0.370160 0.216708
Ni5   Ni    Ni4+2 0.514540 0.000000 0.629840 0.225846
Ni6   Ni    Ni4+2 0.485460 1.000000 0.370160 0.225321
Ni7   Ni    Ni4+2 0.014540 0.500000 0.629840 0.231347
Ni8   Ni    Ni4+2 0.985460 0.500000 0.370160 0.224298

loop_
_geom_bond_atom_site_label_1
_geom_bond_atom_site_label_2
_ccdc_geom_bond_type
C24   C133  S    
C58   C62   S    
C71   N34   A    
C2    C109  S    
C51   C97   S    
C1    C90   A    
C14   C122  S    
C80   C107  A    
C31   N59   T    
C123  C132  S    
C2    C18   S    
C30   N58   T    
C49   H12   S    
C1    H1    S    
C68   C103  A    
C29   N57   T    
C108  C121  S    
C40   N68   T    
C17   N44   T    
C83   N19   A    
C75   C101  A    
C34   C47   S    
C38   N65   T    
C85   C91   A    
N6    Ni8   S    
C48   C57   D    
C71   C94   A    
C41   N69   T    
C45   C123  S    
C45   C129  S    
C64   C99   A    
N19   N34   A    
N24   Ni7   S    
C84   C90   A    
C124  C133  S    
N2    N10   A    
C78   C105  A    
C20   N48   T    
N26   N56   A    
C110  Cl3   S    
C15   N42   T    
N12   N21   A    
C107  C130  S    
C42   C53   S    
C112  C117  S    
C84   H11   S    
C27   C55   S    
C109  C122  S    
C53   C95   S    
C113  Cl6   S    
C126  C130  S    
C25   C45   S    
C85   N21   A    
C73   C99   A    
C3    N30   T    
C81   H9    S    
C79   N16   A    
C110  C129  S    
C6    C70   S    
C78   N15   A    
C31   C59   S    
N18   N23   A    
C35   C125  S    
C86   C97   A    
C54   C63   D    
C5    C69   S    
C10   C119  S    
C104  H22   S    
C135  N28   T    
C116  Cl8   S    
C81   C92   A    
N4    N13   A    
C114  C133  S    
C104  N67   A    
C44   C128  S    
C12   C121  S    
C20   C24   S    
C33   C62   S    
C27   N54   T    
C116  C132  S    
C46   C55   D    
C8    C117  S    
C7    N35   T    
C80   N17   A    
C36   C46   S    
N17   Ni4   S    
C75   N11   A    
C70   N7    A    
C121  C130  S    
C54   C96   S    
C114  C119  S    
C49   N12   A    
C73   N9    A    
C119  C128  S    
C102  C125  S    
C72   N8    A    
C39   C52   S    
N21   Ni6   S    
C88   C95   A    
C44   C114  S    
C108  C127  S    
C52   C98   S    
C21   N49   T    
C42   N70   T    
C9    C118  S    
C66   C101  A    
N3    N11   A    
C18   N46   T    
C24   C111  S    
N15   Ni3   S    
C49   C91   A    
C73   H24   S    
C33   N61   T    
N8    Ni7   S    
C89   H17   S    
C2    C117  S    
C111  Cl4   S    
C57   C63   S    
C105  C132  S    
C23   N51   T    
C60   C92   A    
C76   C102  A    
C106  C131  S    
N67   Ni4   S    
C87   C98   A    
C64   C134  S    
C86   N22   A    
C113  C130  S    
C99   C129  S    
N3    Ni6   S    
C120  C129  S    
C50   C58   D    
C32   N60   T    
C66   N3    A    
C8    N36   T    
C11   N39   T    
N1    N20   A    
C6    N33   T    
N8    N17   A    
C70   C106  A    
C77   H5    S    
C7    C72   S    
C83   H10   S    
C69   C105  A    
N56   Ni4   S    
N24   N71   A    
C74   C100  A    
C75   H3    S    
N34   Ni1   S    
C4    C68   S    
C44   C124  S    
C23   C44   S    
C116  C120  S    
C79   C106  A    
C26   C56   S    
C109  Cl2   S    
C112  Cl5   S    
C37   N64   T    
C98   C115  A    
C15   C123  S    
C13   C110  S    
C110  C123  S    
C82   N45   A    
C53   C62   D    
C60   H18   S    
C22   C43   S    
C74   N10   A    
C72   C107  A    
N45   Ni3   S    
C22   N50   T    
C4    N31   T    
C26   N53   T    
C2    C131  S    
N25   Ni7   S    
N20   Ni5   S    
C65   C135  S    
C93   H21   S    
C86   H14   S    
C136  N29   T    
N11   Ni1   S    
C71   H19   S    
N9    N72   A    
C66   C136  S    
C109  C125  S    
C134  N27   T    
C29   C57   S    
N5    N14   A    
C28   N55   T    
C93   C96   A    
C28   C58   S    
N72   Ni5   S    
C77   C103  A    
C51   C59   D    
C118  C127  S    
C55   C61   S    
C43   C127  S    
C76   N13   A    
C12   N40   T    
C81   N18   A    
N18   Ni6   S    
C13   C120  S    
N13   Ni2   S    
C78   H6    S    
C79   H7    S    
C80   H8    S    
C43   C121  S    
N7    Ni8   S    
C24   C119  S    
C11   C120  S    
C82   C95   A    
C48   C90   S    
C14   N41   T    
C77   N14   A    
C111  C124  S    
C100  C128  S    
N23   Ni2   S    
C38   C48   S    
C88   N25   A    
C74   H2    S    
C35   C122  S    
C3    C67   S    
C65   C100  A    
N1    Ni1   S    
N14   Ni4   S    
N6    N15   A    
C39   N66   T    
N71   Ni3   S    
C68   N5    A    
C16   N43   T    
N25   N45   A    
C21   C35   S    
N12   Ni2   S    
C67   N4    A    
C32   C63   S    
C40   C51   S    
N22   Ni8   S    
C56   C59   S    
C13   C132  S    
C65   N2    A    
C52   C61   D    
C114  Cl7   S    
N10   Ni1   S    
C89   C96   A    
C103  C133  S    
N19   Ni5   S    
N2    Ni6   S    
C9    N37   T    
C43   C113  S    
C115  N71   A    
C37   C50   S    
C83   C94   A    
C45   C116  S    
N5    Ni7   S    
C122  C131  S    
C108  Cl1   S    
C82   H20   S    
N4    Ni5   S    
C36   N63   T    
C89   N26   A    
C34   N62   T    
C1    N1    A    
C101  C127  S    
N16   Ni3   S    
C87   H15   S    
N9    Ni2   S    
C93   N56   A    
C19   N47   T    
C88   H16   S    
C112  C131  S    
C10   N38   T    
C17   C126  S    
C41   C54   S    
C64   N72   A    
C97   C104  A    
C84   N20   A    
C5    N32   T    
C113  C118  S    
C60   N23   A    
C50   C91   S    
C46   C92   S    
C76   H4    S    
C69   N6    A    
C30   C61   S    
C111  C128  S    
C85   H13   S    
C13   C19   S    
C47   C56   D    
C25   N52   T    
N26   Ni8   S    
N22   N67   A    
C118  C126  S    
C108  C126  S    
C16   C124  S    
C117  C125  S    
C115  H23   S    
C47   C94   S    
C35   C112  S    
C67   C102  A    
C87   N24   A    
N7    N16   A    
