data_mof_unit_7639.cif
_audit_creation_date              2012-12-11T16:57:22-0500
_audit_creation_method            fapswitch 2.2
_symmetry_space_group_name_H-M    P1
_symmetry_Int_Tables_number       1
_space_group_crystal_system       triclinic
_cell_length_a                    14.480903
_cell_length_b                    16.167955
_cell_length_c                    6.952846
_cell_angle_alpha                 90.001748
_cell_angle_beta                  99.061702
_cell_angle_gamma                 89.998169
_cell_volume                      1607.52945613

loop_
_atom_site_label
_atom_site_type_symbol
_atom_type_description
_atom_site_fract_x
_atom_site_fract_y
_atom_site_fract_z
_atom_type_partial_charge
O1    O     O_R   0.584990 0.413650 0.534420 -0.544306
O2    O     O_R   0.584990 0.586350 0.534420 -0.544256
O3    O     O_R   0.596190 0.585230 0.208380 -0.549472
O4    O     O_R   0.596190 0.414770 0.208380 -0.549560
O5    O     O_R   0.415010 0.586420 0.976930 -0.551733
O6    O     O_R   0.415010 0.413580 0.976930 -0.552675
C1    C     C_R   0.618688 0.614306 0.384292 0.688219
C2    C     C_R   0.618665 0.385678 0.384278 0.688701
O7    O     O_3   0.440560 0.500000 0.319140 -0.339709
V1    V     V_3+5 0.511030 0.500000 0.068070 1.446292
O8    O     O_R   0.403810 0.414840 0.643540 -0.499402
O9    O     O_R   0.403810 0.585160 0.643540 -0.501530
C3    C     C_R   0.378827 0.388072 0.804676 0.670209
C4    C     C_R   0.378799 0.611899 0.804744 0.667539
V2    V     V_3+5 0.488970 0.500000 0.560620 1.572775
O10   O     O_3   0.559440 0.500000 0.859420 -0.389702
H1    H     H_    0.152156 0.773999 0.850212 0.220736
H2    H     H_    0.151620 0.226954 0.852562 0.223481
H3    H     H_    0.361140 0.736704 0.034784 0.110927
H4    H     H_    0.360957 0.263965 0.036106 0.113209
C5    C     C_2   0.297320 0.668827 0.793857 0.333257
C6    C     C_2   0.297585 0.330910 0.793517 0.330331
C7    C     C_2   0.296537 0.726620 0.935265 -0.232955
C8    C     C_2   0.296473 0.273642 0.936039 -0.243679
C9    C     C_2   0.208081 0.828882 0.114495 -0.289555
C10   C     C_2   0.208327 0.170828 0.114704 -0.274158
C11   C     C_2   0.212890 0.776923 0.962608 -0.106056
C12   C     C_2   0.212809 0.223397 0.963764 -0.110146
C13   C     C_R   0.684878 0.741086 0.567646 0.128785
C14   C     C_R   0.684809 0.258877 0.567611 0.129789
C15   C     C_R   0.684966 0.685276 0.413425 -0.111990
C16   C     C_R   0.684898 0.314677 0.413378 -0.112128
C17   C     C_R   0.747799 0.701563 0.282300 -0.159539
C18   C     C_R   0.747687 0.298346 0.282191 -0.161772
H5    H     H_    0.750499 0.660572 0.160657 0.137105
H6    H     H_    0.750378 0.339322 0.160525 0.137567
C19   C     C_R   0.812488 0.767487 0.314668 -0.158393
C20   C     C_R   0.812355 0.232408 0.314540 -0.143173
H7    H     H_    0.862793 0.775335 0.216535 0.126216
H8    H     H_    0.862625 0.224526 0.216346 0.133921
C21   C     C_R   0.816679 0.818972 0.479658 -0.108350
C22   C     C_R   0.816592 0.180964 0.479604 -0.109294
C23   C     C_R   0.749141 0.805850 0.600324 0.111540
C24   C     C_R   0.749066 0.194105 0.600292 0.107148
C25   C     C_3   0.761417 0.794296 0.815396 -0.409462
C26   C     C_3   0.761345 0.205669 0.815358 -0.409066
C27   C     C_3   0.691010 0.724119 0.779766 -0.400845
C28   C     C_3   0.690941 0.275852 0.779725 -0.400167
H9    H     H_    0.735577 0.848195 0.890739 0.179298
H10   H     H_    0.735504 0.151776 0.890708 0.178205
H11   H     H_    0.833168 0.773111 0.875540 0.176190
H12   H     H_    0.833098 0.226850 0.875483 0.179119
H13   H     H_    0.624262 0.737616 0.833598 0.174329
H14   H     H_    0.624192 0.262365 0.833558 0.173934
H15   H     H_    0.721675 0.662293 0.819998 0.173802
H16   H     H_    0.721609 0.337678 0.819945 0.174299
O11   O     O_R   0.921430 0.915960 0.371040 -0.545351
O12   O     O_R   0.921430 0.084040 0.371040 -0.542924
O13   O     O_R   0.910450 0.087500 0.697310 -0.548020
O14   O     O_R   0.910450 0.912500 0.697310 -0.547989
O15   O     O_R   0.091710 0.087460 0.928430 -0.542397
O16   O     O_R   0.091710 0.912540 0.928430 -0.540961
C29   C     C_R   0.888056 0.114349 0.519281 0.704341
C30   C     C_R   0.888099 0.885619 0.519298 0.688489
O17   O     O_3   0.065970 0.000000 0.586140 -0.347454
V3    V     V_3+5 0.995640 0.000000 0.837400 1.466200
O18   O     O_R   0.103020 0.915700 0.261710 -0.517753
O19   O     O_R   0.103020 0.084300 0.261710 -0.512449
C31   C     C_R   0.127976 0.887871 0.101241 0.733617
C32   C     C_R   0.127983 0.112110 0.101264 0.750784
V4    V     V_3+5 0.017940 0.000000 0.344880 1.544158
O20   O     O_3   0.947330 0.000000 0.046180 -0.389776
C33   C     C_2   0.284851 0.836205 0.284434 0.897615
O21   O     O_2   0.305848 0.904461 0.352646 -0.498576
O22   O     O_R   0.332326 0.767245 0.372198 -0.643757
H17   H     H_    0.304106 0.712840 0.320724 0.311700
C34   C     C_2   0.285772 0.162086 0.282983 0.892605
O23   O     O_2   0.306286 0.093312 0.348550 -0.500740
O24   O     O_R   0.334487 0.230161 0.372148 -0.643868
H18   H     H_    0.306855 0.285063 0.322912 0.307941
S1    S     S_3+6 0.196066 0.646983 0.620780 0.020042
O25   O     O_2   0.219163 0.588103 0.468212 -0.302972
O26   O     O_2   0.123565 0.608311 0.725088 -0.300368
O27   O     O_3   0.152230 0.734468 0.511419 -0.535201
H19   H     H_    0.096009 0.716852 0.420525 0.348603
S2    S     S_3+6 0.197419 0.351318 0.616376 0.018206
O28   O     O_2   0.159589 0.272163 0.521383 -0.373308
O29   O     O_2   0.123608 0.390759 0.715721 -0.295001
O30   O     O_3   0.224200 0.415775 0.443714 -0.466944
H20   H     H_    0.167447 0.417371 0.343486 0.387659

loop_
_geom_bond_atom_site_label_1
_geom_bond_atom_site_label_2
_ccdc_geom_bond_type
O15   C32   A    
C14   C16   A    
O1    C2    A    
C21   C23   A    
C33   O21   D    
O2    C1    A    
O4    C2    A    
S1    O25   D    
C34   O23   D    
C28   H14   S    
C13   C27   S    
C4    C5    S    
C14   C28   S    
C9    C33   S    
C20   C22   A    
O3    C1    A    
O13   V3    S    
S2    O29   D    
O12   V4    S    
C25   H11   S    
V2    O10   S    
C26   H12   S    
O8    V2    S    
O15   V3    S    
V3    O20   S    
H4    C8    S    
C15   C17   A    
O1    V2    S    
C7    C11   S    
O7    V1    S    
C18   H6    S    
C27   H13   S    
C25   C27   S    
O14   V3    S    
C13   C23   A    
C33   O22   S    
C14   C24   A    
C22   C24   A    
S1    O26   D    
C24   C26   S    
C34   O24   S    
C26   C28   S    
C10   C34   S    
C1    C15   S    
O16   V3    S    
C2    C16   S    
H2    C12   S    
O27   H19   S    
S2    O28   D    
O17   V4    S    
C17   C19   A    
O16   C31   A    
O18   C31   A    
H1    C11   S    
H3    C7    S    
O22   H17   S    
O9    V2    S    
C25   H9    S    
C13   C15   A    
O11   V4    S    
O2    V2    S    
C23   C25   S    
O5    C4    A    
O9    C4    A    
C5    C7    D    
C10   C32   S    
C6    C8    D    
C9    C31   S    
O4    V1    S    
S1    O27   S    
O11   C30   A    
C27   H15   S    
O12   C29   A    
C28   H16   S    
C18   C20   A    
O13   C29   A    
C8    C12   S    
C5    S1    S    
S2    O30   S    
O6    V1    S    
C9    C11   D    
C26   H10   S    
C10   C12   D    
O14   C30   A    
O7    V2    S    
O5    V1    S    
C19   H7    S    
O3    V1    S    
V1    O10   S    
O6    C3    A    
C20   H8    S    
O8    C3    A    
O19   V4    S    
C17   H5    S    
C3    C6    S    
O18   V4    S    
C6    S2    S    
C19   C21   A    
O24   H18   S    
V4    O20   S    
O19   C32   A    
O17   V3    S    
C21   C30   S    
O30   H20   S    
C22   C29   S    
C16   C18   A    
