data_mof_unit_41148.cif
_audit_creation_date              2012-12-10T20:49:46-0500
_audit_creation_method            fapswitch 2.2
_symmetry_space_group_name_H-M    P1
_symmetry_Int_Tables_number       1
_space_group_crystal_system       triclinic
_cell_length_a                    8.088661
_cell_length_b                    8.935681
_cell_length_c                    17.008053
_cell_angle_alpha                 89.998768
_cell_angle_beta                  87.14261
_cell_angle_gamma                 90.012931
_cell_volume                      1227.77444075

loop_
_atom_site_label
_atom_site_type_symbol
_atom_type_description
_atom_site_fract_x
_atom_site_fract_y
_atom_site_fract_z
_atom_type_partial_charge
C1    C     C_R   0.500012 0.782088 0.500006 0.931539
C2    C     C_R   0.372613 0.436066 0.224269 0.393906
C3    C     C_R   0.591074 0.383137 0.855703 -0.249087
C4    C     C_R   0.377421 0.375600 0.149753 -0.239899
C5    C     C_R   0.454761 0.439511 0.900097 0.096269
C6    C     C_R   0.528155 0.341082 0.110422 0.045320
C7    C     C_R   0.325738 0.513004 0.863022 0.242526
C8    C     C_R   0.677483 0.351006 0.149405 0.260030
C9    C     C_R   0.336945 0.530634 0.781637 -0.299078
C10   C     C_R   0.672330 0.407399 0.226158 -0.249426
C11   C     C_2   0.453956 0.434495 0.985506 -0.178871
C12   C     C_R   0.499992 0.217912 0.500007 0.938056
C13   C     C_2   0.526728 0.325498 0.025359 -0.253465
C14   C     C_3   0.062778 0.461016 0.930497 -0.762887
C15   C     C_3   0.918429 0.189401 0.144141 -0.732832
C16   C     C_1   0.500023 0.934840 0.500014 -0.166094
C17   C     C_1   0.499994 0.065176 0.500014 -0.156750
C18   C     C_R   0.480490 0.494498 0.652862 0.920661
C19   C     C_R   0.518985 0.494656 0.346717 0.910689
C20   C     C_R   0.473921 0.474989 0.737488 -0.153617
C21   C     C_R   0.521709 0.452393 0.263693 -0.194715
C22   C     C_R   0.600869 0.398429 0.774817 0.378176
Cl1   Cl    Cl    0.772545 0.314525 0.723920 -0.613566
Cl2   Cl    Cl    0.175327 0.495679 0.261416 -0.623157
H1    H     H_    0.263035 0.366618 0.119389 0.191061
H2    H     H_    0.117331 0.371886 0.966620 0.249343
H3    H     H_    0.836073 0.312105 0.050519 0.221665
H4    H     H_    0.038329 0.171273 0.110833 0.234405
H5    H     H_    0.842302 0.086400 0.140000 0.237505
H6    H     H_    0.944662 0.210773 0.206597 0.270071
H7    H     H_    0.693101 0.330161 0.883696 0.167924
H8    H     H_    0.786768 0.417763 0.256161 0.225493
H9    H     H_    0.238705 0.588369 0.752891 0.185434
H10   H     H_    0.590148 0.232125 0.996386 0.166432
H11   H     H_    0.392755 0.526424 0.017209 0.193907
H12   H     H_    0.134385 0.664437 0.882020 0.236455
H13   H     H_    0.010098 0.410130 0.877607 0.265229
H14   H     H_    0.961223 0.515482 0.966306 0.242630
N1    N     N_1   0.926360 0.500000 0.499990 0.005016
N2    N     N_1   0.073640 0.500000 0.500010 0.005302
N3    N     N_2   0.186232 0.571681 0.907238 -0.313147
N4    N     N_2   0.833498 0.315327 0.111059 -0.300434
O1    O     O_R   0.363150 0.714660 0.500000 -0.615050
O2    O     O_R   0.636850 0.285340 0.500000 -0.602608
O3    O     O_R   0.636850 0.714660 0.500000 -0.616558
O4    O     O_R   0.363150 0.285340 0.500000 -0.615769
O5    O     O_R   0.346950 0.500000 0.615800 -0.623802
O6    O     O_R   0.653050 0.500000 0.384200 -0.624888
O7    O     O_R   0.620700 0.500000 0.615800 -0.571796
O8    O     O_R   0.379300 0.500000 0.384200 -0.562867
Zn1   Zn    Zn3+2 0.317220 0.500000 0.500010 1.051988
Zn2   Zn    Zn3+2 0.682780 0.500000 0.499990 1.053330

loop_
_geom_bond_atom_site_label_1
_geom_bond_atom_site_label_2
_ccdc_geom_bond_type
C12   C17   S    
C2    C4    A    
C15   H5    S    
C14   H14   S    
N2    Zn1   S    
C9    C20   A    
H3    N4    S    
C3    H7    S    
O7    Zn2   S    
O1    Zn1   S    
C18   O5    A    
O2    Zn2   S    
C2    C21   A    
C11   H11   S    
C4    H1    S    
C15   H4    S    
C3    C5    A    
C13   H10   S    
C12   O2    A    
C1    C16   S    
C14   H2    S    
C14   H13   S    
C9    H9    S    
C11   C13   D    
C19   O8    A    
C1    O3    A    
H12   N3    S    
C14   N3    S    
C4    C6    A    
C19   C21   S    
C20   C22   A    
C5    C11   S    
C18   C20   S    
C7    N3    S    
C10   C21   A    
C2    Cl2   S    
C8    N4    S    
C10   H8    S    
O6    Zn2   S    
C15   N4    S    
C15   H6    S    
C12   O4    A    
N1    N2    T    
C5    C7    A    
C7    C9    A    
C22   Cl1   S    
C3    C22   A    
C6    C8    A    
O3    Zn2   S    
O8    Zn1   S    
C19   O6    A    
O4    Zn1   S    
C1    O1    A    
C8    C10   A    
O5    Zn1   S    
C18   O7    A    
N1    Zn2   S    
C16   C17   T    
C6    C13   S    
