data_mof_unit_25058.cif
_audit_creation_date              2012-12-11T17:44:03-0500
_audit_creation_method            fapswitch 2.2
_symmetry_space_group_name_H-M    P1
_symmetry_Int_Tables_number       1
_space_group_crystal_system       triclinic
_cell_length_a                    20.305579
_cell_length_b                    22.669497
_cell_length_c                    6.940128
_cell_angle_alpha                 90.025737
_cell_angle_beta                  86.813757
_cell_angle_gamma                 89.991368
_cell_volume                      3189.72184603

loop_
_atom_site_label
_atom_site_type_symbol
_atom_type_description
_atom_site_fract_x
_atom_site_fract_y
_atom_site_fract_z
_atom_type_partial_charge
O1    O     O_R   0.751270 0.447300 0.600030 -0.504978
O2    O     O_R   0.248730 0.947300 0.399970 -0.505056
O3    O     O_R   0.613530 0.440160 0.952150 -0.534591
O4    O     O_R   0.386470 0.940160 0.047850 -0.532990
O5    O     O_R   0.613050 0.552700 0.122560 -0.530876
O6    O     O_R   0.386950 0.052700 0.877440 -0.530115
C1    C     C_R   0.591579 0.425329 0.786983 0.797850
C2    C     C_R   0.408450 0.925311 0.212857 0.796675
O7    O     O_R   0.750780 0.440350 0.929820 -0.549154
O8    O     O_R   0.249220 0.940350 0.070180 -0.549209
O9    O     O_R   0.751280 0.552900 0.100070 -0.548408
O10   O     O_R   0.248720 0.052900 0.899930 -0.549118
C3    C     C_R   0.774310 0.426583 0.757177 0.812237
C4    C     C_R   0.225681 0.926591 0.242783 0.812314
O11   O     O_R   0.613040 0.447100 0.622520 -0.550445
O12   O     O_R   0.386960 0.947100 0.377480 -0.551235
O13   O     O_3   0.682160 0.536920 0.777780 -0.367299
O14   O     O_3   0.317840 0.036920 0.222220 -0.367472
V1    V     V_3+5 0.682160 0.493150 0.052630 1.546145
V2    V     V_3+5 0.317840 0.993150 0.947370 1.548114
O15   O     O_R   0.750790 0.559840 0.429870 -0.504050
O16   O     O_R   0.249210 0.059840 0.570130 -0.503522
C5    C     C_R   0.773531 0.574394 0.257453 0.835244
C6    C     C_R   0.226471 0.074395 0.742591 0.835473
O17   O     O_R   0.613540 0.559650 0.452200 -0.542370
O18   O     O_R   0.386460 0.059650 0.547800 -0.543286
C7    C     C_R   0.591554 0.574427 0.286958 0.713993
C8    C     C_R   0.408486 0.074361 0.713094 0.716136
V3    V     V_3+5 0.682160 0.506850 0.552630 1.589812
V4    V     V_3+5 0.317840 0.006850 0.447370 1.589848
O19   O     O_3   0.682150 0.463080 0.277610 -0.373565
O20   O     O_3   0.317850 0.963080 0.722390 -0.373550
C9    C     C_R   0.578940 0.860587 0.134682 0.358418
C10   C     C_R   0.419467 0.362718 0.827873 0.348177
C11   C     C_R   0.463377 0.882411 0.209529 -0.301152
C12   C     C_R   0.536627 0.382549 0.788821 -0.298914
C13   C     C_R   0.470049 0.593822 0.303512 0.342348
C14   C     C_R   0.529887 0.094069 0.691098 0.342884
C15   C     C_R   0.416627 0.631484 0.280635 0.381179
C16   C     C_R   0.583319 0.131700 0.713512 0.382515
C17   C     C_R   0.426827 0.692167 0.246931 0.432638
C18   C     C_R   0.573107 0.192239 0.750196 0.433167
C19   C     C_R   0.490865 0.717282 0.247871 -0.034443
C20   C     C_R   0.508950 0.217384 0.751952 -0.032737
C21   C     C_R   0.545499 0.678050 0.259452 -0.093521
C22   C     C_R   0.454383 0.177909 0.744762 -0.093704
C23   C     C_R   0.502708 0.779620 0.226714 0.050016
C24   C     C_R   0.496935 0.279905 0.769637 0.048182
C25   C     C_R   0.568446 0.800192 0.185852 -0.138245
C26   C     C_R   0.430813 0.300896 0.803109 -0.127309
C27   C     C_R   0.621917 0.760851 0.203930 0.399257
C28   C     C_R   0.378006 0.259968 0.813928 0.408515
C29   C     C_R   0.609746 0.700993 0.242122 -0.163127
C30   C     C_R   0.390214 0.200122 0.776241 -0.161844
C31   C     C_R   0.451681 0.822602 0.250065 -0.212288
C32   C     C_R   0.548350 0.322653 0.750623 -0.216972
C33   C     C_R   0.526679 0.900690 0.148742 0.619141
C34   C     C_R   0.472395 0.401921 0.830891 0.613349
C35   C     C_R   0.535215 0.616286 0.286713 -0.260241
C36   C     C_R   0.464720 0.116293 0.713477 -0.260801
H1    H     H_    0.402660 0.811365 0.305232 0.220117
H2    H     H_    0.597953 0.311346 0.701765 0.222579
H3    H     H_    0.651674 0.672137 0.256456 0.096097
H4    H     H_    0.348417 0.170459 0.777981 0.094194
C37   C     C_R   0.169670 0.884020 0.261687 -0.279880
C38   C     C_R   0.830298 0.383984 0.738219 -0.280086
C39   C     C_R   0.154620 0.848104 0.105066 -0.338392
C40   C     C_R   0.845307 0.348077 0.894806 -0.338379
C41   C     C_R   0.102139 0.808030 0.119853 0.584616
C42   C     C_R   0.897773 0.307980 0.880030 0.584989
C43   C     C_R   0.062154 0.803625 0.293184 0.197658
C44   C     C_R   0.937784 0.303544 0.706751 0.197354
C45   C     C_R   0.076799 0.839360 0.450843 0.270261
C46   C     C_R   0.923171 0.339256 0.549103 0.269865
C47   C     C_R   0.130368 0.879278 0.435166 0.472511
C48   C     C_R   0.869614 0.379201 0.564769 0.472544
C49   C     C_R   0.895480 0.695618 0.373767 0.500326
C50   C     C_R   0.104516 0.195595 0.626354 0.498790
C51   C     C_R   0.843294 0.655245 0.393078 0.476754
C52   C     C_R   0.156697 0.155208 0.607023 0.482777
C53   C     C_R   0.934955 0.699380 0.198971 0.181627
C54   C     C_R   0.065047 0.199407 0.801150 0.181318
N1    N     N_2   0.007574 0.763828 0.319383 -0.095003
N2    N     N_2   0.992356 0.263724 0.680605 -0.095270
N3    N     N_2   0.989660 0.739023 0.170405 -0.092013
N4    N     N_2   0.010341 0.239064 0.829683 -0.092129
C55   C     C_R   0.828275 0.618184 0.238582 -0.306498
C56   C     C_R   0.171732 0.118196 0.761530 -0.307827
C57   C     C_R   0.866415 0.622986 0.063949 -0.350586
C58   C     C_R   0.133609 0.123057 0.936187 -0.353214
C59   C     C_R   0.919514 0.663038 0.043574 0.386359
C60   C     C_R   0.080499 0.163115 0.956562 0.387435
H5    H     H_    0.855571 0.594906 0.943395 0.201999
H6    H     H_    0.144468 0.095014 0.056745 0.202529
H7    H     H_    0.184164 0.850438 0.970437 0.229672
H8    H     H_    0.815742 0.350438 0.029402 0.229793
F1    F     F_    0.537770 0.958015 0.099672 -0.614918
F2    F     F_    0.460469 0.460179 0.863392 -0.616786
F3    F     F_    0.906141 0.731386 0.525885 -0.552908
F4    F     F_    0.093858 0.231335 0.474259 -0.553379
O21   O     O_3   0.037115 0.834458 0.618495 -0.534066
H9    H     H_    0.052346 0.862337 0.716484 0.373233
O22   O     O_3   0.962879 0.334309 0.381492 -0.534370
H10   H     H_    0.947675 0.362186 0.283527 0.373004
F5    F     F_    0.143007 0.914182 0.588076 -0.681504
F6    F     F_    0.857001 0.414090 0.411895 -0.681620
F7    F     F_    0.091764 0.773234 0.965258 -0.581829
F8    F     F_    0.908104 0.273186 0.034566 -0.581476
O23   O     O_3   0.957709 0.667140 0.873126 -0.533852
H11   H     H_    0.941125 0.638679 0.778673 0.336152
O24   O     O_3   0.042298 0.167265 0.127002 -0.533403
H12   H     H_    0.058876 0.138815 0.221433 0.336438
O25   O     O_3   0.685910 0.782040 0.195973 -0.600975
H13   H     H_    0.717215 0.749056 0.212281 0.312256
O26   O     O_3   0.314574 0.278630 0.865416 -0.602245
H14   H     H_    0.283829 0.244612 0.867236 0.312000
O27   O     O_3   0.638927 0.881796 0.062761 -0.538188
H15   H     H_    0.656757 0.852851 0.966287 0.348221
O28   O     O_3   0.357253 0.386785 0.846339 -0.538960
H16   H     H_    0.333854 0.373466 0.732454 0.353840
O29   O     O_3   0.455782 0.534730 0.334863 -0.552998
H17   H     H_    0.495756 0.512822 0.367247 0.300759
O30   O     O_3   0.544208 0.035172 0.655699 -0.550023
H18   H     H_    0.504028 0.013222 0.625557 0.301524
F9    F     F_    0.374454 0.724318 0.194092 -0.689582
F10   F     F_    0.625702 0.223988 0.803367 -0.689545
O31   O     O_3   0.354294 0.606744 0.287344 -0.553691
H19   H     H_    0.320635 0.638149 0.279933 0.366808
O32   O     O_3   0.645731 0.107073 0.703040 -0.551824
H20   H     H_    0.679383 0.138500 0.709792 0.367384
F11   F     F_    0.806745 0.653462 0.562896 -0.637460
F12   F     F_    0.193222 0.153364 0.437162 -0.635945

loop_
_geom_bond_atom_site_label_1
_geom_bond_atom_site_label_2
_ccdc_geom_bond_type
C38   C40   A    
C16   O32   S    
C9    O27   S    
O21   H9    S    
C52   F12   S    
C58   H6    S    
O13   V3    S    
C1    C12   S    
O24   H12   S    
C34   F2    S    
O4    C2    A    
V1    O19   S    
C51   C55   A    
C41   F7    S    
O30   H18   S    
C23   C25   A    
O9    V1    S    
C27   O25   S    
C46   C48   A    
O16   C6    A    
N2    N4    D    
O32   H20   S    
O3    C1    A    
C50   C52   A    
C9    C25   A    
O26   H14   S    
C54   C60   A    
C41   C43   A    
O7    C3    A    
O5    C7    A    
O7    V1    S    
O6    C8    A    
C33   F1    S    
C20   C22   A    
C25   C27   A    
C26   C28   A    
O3    V1    S    
O14   V4    S    
C57   C59   A    
C19   C23   A    
C14   O30   S    
C32   H2    S    
C13   C35   A    
C24   C26   A    
C51   F11   S    
C2    O12   A    
C5    C55   S    
C52   C56   A    
C39   H7    S    
C17   C19   A    
O10   V2    S    
C18   C20   A    
C28   C30   A    
O11   V3    S    
C43   N1    S    
C3    C38   S    
C49   C51   A    
O17   V3    S    
C13   C15   A    
C10   C26   A    
C15   O31   S    
C11   C31   A    
V4    O20   S    
C17   F9    S    
C44   C46   A    
O8    C4    A    
O8    V2    S    
C43   C45   A    
C1    O11   A    
C37   C39   A    
C54   N4    S    
O15   V3    S    
C39   C41   A    
C2    C11   S    
O4    V2    S    
C12   C32   A    
C6    C56   S    
C50   C54   A    
C58   C60   A    
C49   C53   A    
C38   C48   A    
C22   C30   A    
O1    V3    S    
C40   H8    S    
C19   C21   A    
O29   H17   S    
C44   N2    S    
C8    C36   S    
C14   C36   A    
N1    N3    D    
C56   C58   A    
C47   F5    S    
O15   C5    A    
C50   F4    S    
C13   O29   S    
O1    C3    A    
C45   C47   A    
O31   H19   S    
C23   C31   A    
O25   H13   S    
V2    O20   S    
C28   O26   S    
C10   O28   S    
C24   C32   A    
C21   C35   A    
C48   F6    S    
C45   O21   S    
O16   V4    S    
C22   C36   A    
O18   C8    A    
C16   C18   A    
O28   H16   S    
C60   O24   S    
O18   V4    S    
O5    V1    S    
C9    C33   A    
O17   C7    A    
O6    V2    S    
O10   C6    A    
C12   C34   A    
C37   C47   A    
O2    V4    S    
C11   C33   A    
C59   O23   S    
C55   C57   A    
V3    O19   S    
C7    C35   S    
O27   H15   S    
C14   C16   A    
C29   H3    S    
C30   H4    S    
C31   H1    S    
O9    C5    A    
O13   V1    S    
C4    C37   S    
C49   F3    S    
O14   V2    S    
C57   H5    S    
O2    C4    A    
C18   F10   S    
C21   C29   A    
C53   C59   A    
C15   C17   A    
C40   C42   A    
O22   H10   S    
C10   C34   A    
C42   C44   A    
C27   C29   A    
O23   H11   S    
O12   V4    S    
C42   F8    S    
C53   N3    S    
C20   C24   A    
C46   O22   S    
