data_mof_unit_22206.cif
_audit_creation_date              2012-12-10T17:14:42-0500
_audit_creation_method            fapswitch 2.2
_symmetry_space_group_name_H-M    P1
_symmetry_Int_Tables_number       1
_space_group_crystal_system       triclinic
_cell_length_a                    10.613328
_cell_length_b                    12.984747
_cell_length_c                    11.663766
_cell_angle_alpha                 99.927562
_cell_angle_beta                  93.540561
_cell_angle_gamma                 90.232083
_cell_volume                      1580.13263528

loop_
_atom_site_label
_atom_site_type_symbol
_atom_type_description
_atom_site_fract_x
_atom_site_fract_y
_atom_site_fract_z
_atom_type_partial_charge
C1    C     C_R   0.497571 0.299028 0.478586 0.806130
C2    C     C_R   0.500874 0.700945 0.521421 0.804471
C3    C     C_R   0.502036 0.139478 0.566389 -0.260456
C4    C     C_R   0.489754 0.860453 0.433757 -0.272929
C5    C     C_R   0.500073 0.031385 0.556131 0.173349
C6    C     C_R   0.489822 0.968534 0.444147 0.179013
C7    C     C_R   0.386474 0.394343 0.020359 0.361295
C8    C     C_R   0.611332 0.604375 0.978736 0.362150
C9    C     C_R   0.398757 0.406226 0.144716 -0.067873
C10   C     C_R   0.603615 0.591528 0.856015 -0.020350
C11   C     C_R   0.546587 0.545375 0.157328 0.043633
C12   C     C_R   0.451667 0.455391 0.842512 0.044825
C13   C     C_R   0.539296 0.538023 0.034575 -0.121625
C14   C     C_R   0.458281 0.462101 0.965749 -0.081293
C15   C     C_R   0.259299 0.498724 0.500361 0.838667
C16   C     C_R   0.740651 0.502119 0.499699 0.836712
C17   C     C_3   0.043767 0.454840 0.586126 0.551942
C18   C     C_3   0.955962 0.547213 0.413979 0.550555
C19   C     C_3   0.954735 0.401277 0.483802 -0.322774
C20   C     C_3   0.045262 0.600646 0.516121 -0.321289
C21   C     C_3   0.877097 0.502226 0.499145 -0.093132
C22   C     C_3   0.122796 0.499570 0.500843 -0.094498
C23   C     C_3   0.965274 0.554986 0.603068 -0.277925
C24   C     C_3   0.034478 0.447025 0.396805 -0.281635
C25   C     C_R   0.499758 0.814342 0.533833 -0.046927
C26   C     C_R   0.494455 0.185580 0.466237 -0.051762
C27   C     C_R   0.480509 0.014684 0.344264 -0.229419
C28   C     C_R   0.508627 0.985187 0.656074 -0.214128
C29   C     C_R   0.483388 0.122881 0.355215 -0.194667
C30   C     C_R   0.508303 0.876976 0.644931 -0.200065
Cu1   Cu    Cu3+1 0.509400 0.507730 0.615930 0.943714
Cu2   Cu    Cu3+1 0.490600 0.492270 0.384070 0.941606
H1    H     H_    0.914917 0.320689 0.472345 0.145791
H2    H     H_    0.086156 0.680876 0.528527 0.145310
H3    H     H_    0.933080 0.598591 0.686200 0.149754
H4    H     H_    0.065427 0.404734 0.312410 0.147542
H5    H     H_    0.482481 0.812520 0.347625 0.142425
H6    H     H_    0.510040 0.187442 0.652470 0.160024
H7    H     H_    0.514855 0.842435 0.723093 0.154537
H8    H     H_    0.477199 0.157341 0.276995 0.162836
N1    N     N_R   0.523540 0.519360 0.790140 -0.221682
N2    N     N_R   0.476460 0.480640 0.209860 -0.205549
O1    O     O_R   0.506670 0.354460 0.582000 -0.589976
O2    O     O_R   0.493330 0.645540 0.418000 -0.594312
O3    O     O_R   0.490800 0.341410 0.386200 -0.594448
O4    O     O_R   0.509200 0.658590 0.613800 -0.596450
O5    O     O_R   0.324790 0.506500 0.597880 -0.550799
O6    O     O_R   0.675210 0.493500 0.402120 -0.547512
O7    O     O_R   0.308910 0.493440 0.402080 -0.604392
O8    O     O_R   0.691090 0.506560 0.597920 -0.600944
O9    O     O_3   0.098891 0.406572 0.676233 -0.606058
C31   C     C_3   0.004681 0.372367 0.742529 0.064919
H9    H     H_    0.026745 0.290924 0.753446 0.160401
H10   H     H_    0.907079 0.369960 0.700416 0.131572
C32   C     C_3   0.007421 0.441160 0.863292 -0.347682
H11   H     H_    0.102620 0.438677 0.907919 0.241838
H12   H     H_    0.988231 0.523458 0.854376 0.214765
C33   C     C_3   0.908873 0.404432 0.937957 -0.909667
H13   H     H_    0.812483 0.409794 0.896645 0.266877
H14   H     H_    0.914060 0.454581 0.025356 0.262281
H15   H     H_    0.926471 0.322361 0.949085 0.241866
O10   O     O_3   0.900012 0.594627 0.323568 -0.609083
C34   C     C_3   0.993607 0.635976 0.262198 0.055560
H16   H     H_    0.970460 0.609614 0.167534 0.177605
H17   H     H_    0.091286 0.608766 0.280705 0.131118
C35   C     C_3   0.990769 0.755502 0.287741 -0.323096
H18   H     H_    0.895695 0.782109 0.261049 0.233443
H19   H     H_    0.008942 0.783602 0.382796 0.208618
C36   C     C_3   0.089837 0.803388 0.222363 -0.922429
H20   H     H_    0.186040 0.779888 0.249950 0.254248
H21   H     H_    0.084729 0.889993 0.242014 0.260311
H22   H     H_    0.072535 0.777521 0.126793 0.258547
H23   H     H_    0.471361 0.967152 0.258149 0.136609
H24   H     H_    0.515884 0.032543 0.742442 0.139308
H25   H     H_    0.389105 0.398882 0.787628 0.200383
H26   H     H_    0.608801 0.602606 0.211579 0.180922
H27   H     H_    0.661465 0.640163 0.813127 0.136533
H28   H     H_    0.348801 0.355931 0.191544 0.139078
O11   O     O_3   0.312274 0.317325 0.947139 -0.632863
C37   C     C_3   0.230682 0.258671 0.003482 0.052432
H29   H     H_    0.151781 0.228671 0.939234 0.165106
H30   H     H_    0.184035 0.307296 0.076457 0.120318
C38   C     C_3   0.298770 0.163509 0.038304 -0.358071
H31   H     H_    0.320115 0.108253 0.958162 0.222399
H32   H     H_    0.389956 0.187636 0.087441 0.212003
C39   C     C_3   0.218181 0.107299 0.112896 -0.929256
H33   H     H_    0.200045 0.160127 0.195627 0.258537
H34   H     H_    0.268744 0.037639 0.134254 0.257045
H35   H     H_    0.126777 0.081193 0.064934 0.257443
O12   O     O_3   0.694930 0.677708 0.042572 -0.622175
C40   C     C_3   0.631952 0.773128 0.076530 0.031165
H36   H     H_    0.669085 0.807125 0.166293 0.162427
H37   H     H_    0.527650 0.763918 0.080897 0.119928
C41   C     C_3   0.660404 0.849886 0.995092 -0.334504
H38   H     H_    0.764294 0.860273 0.993786 0.227957
H39   H     H_    0.622400 0.817805 0.905293 0.199168
C42   C     C_3   0.601322 0.956195 0.033767 -0.945805
H40   H     H_    0.497262 0.947778 0.035361 0.253904
H41   H     H_    0.621829 0.008927 0.971517 0.255687
H42   H     H_    0.641395 0.992183 0.121843 0.260901

loop_
_geom_bond_atom_site_label_1
_geom_bond_atom_site_label_2
_ccdc_geom_bond_type
C35   H19   S    
C32   H11   S    
C34   H17   S    
C16   C21   S    
C27   C29   A    
C18   C21   S    
Cu2   O3    S    
C15   O5    A    
C28   H24   S    
C17   O9    S    
C42   H40   S    
Cu1   Cu2   S    
C2    O4    A    
C9    N2    A    
C17   C23   S    
Cu1   O1    S    
C18   C24   S    
C19   C21   S    
C16   O8    A    
C11   H26   S    
C5    C6    A    
C39   H34   S    
C35   C36   S    
C33   H14   S    
C11   N2    A    
C36   H21   S    
C1    O1    A    
C15   C22   S    
C38   H31   S    
C3    H6    S    
C2    O2    A    
Cu1   O4    S    
C31   C32   S    
C20   H2    S    
C33   H15   S    
C35   H18   S    
C34   C35   S    
Cu1   O5    S    
C13   C14   A    
C10   N1    A    
Cu2   O6    S    
C16   O6    A    
C41   H38   S    
C37   C38   S    
C42   H41   S    
C10   H27   S    
C31   H10   S    
C4    C25   A    
C7    C14   A    
O9    C31   S    
C4    C6    A    
C19   H1    S    
C40   H36   S    
C39   H33   S    
C18   O10   S    
C41   C42   S    
C33   H13   S    
C34   H16   S    
C36   H22   S    
C12   N1    A    
C40   H37   S    
C5    C28   A    
C6    C27   A    
C20   C23   S    
O10   C34   S    
Cu2   O2    S    
C24   H4    S    
C41   H39   S    
C37   H30   S    
C38   H32   S    
C20   C22   S    
C23   H3    S    
C32   H12   S    
C1    C26   S    
C22   C24   S    
C12   H25   S    
C8    O12   S    
Cu1   O8    S    
C42   H42   S    
C31   H9    S    
C7    O11   S    
C25   C30   A    
C7    C9    A    
Cu1   N1    S    
C3    C26   A    
C12   C14   A    
C37   H29   S    
C3    C5    A    
C39   H35   S    
C17   C22   S    
C21   C23   S    
C19   C24   S    
C40   C41   S    
C11   C13   A    
C1    O3    A    
O12   C40   S    
C29   H8    S    
C28   C30   A    
C17   C19   S    
C30   H7    S    
C2    C25   S    
C18   C20   S    
C9    H28   S    
C15   O7    A    
C36   H20   S    
Cu2   O7    S    
O11   C37   S    
C8    C13   A    
C38   C39   S    
C4    H5    S    
C26   C29   A    
C8    C10   A    
C32   C33   S    
Cu2   N2    S    
C27   H23   S    
