data_mof_unit_66208.cif
_audit_creation_date              2012-12-10T21:02:17-0500
_audit_creation_method            fapswitch 2.2
_symmetry_space_group_name_H-M    P1
_symmetry_Int_Tables_number       1
_space_group_crystal_system       triclinic
_cell_length_a                    15.067874
_cell_length_b                    15.850055
_cell_length_c                    16.797233
_cell_angle_alpha                 89.980048
_cell_angle_beta                  85.156785
_cell_angle_gamma                 89.988084
_cell_volume                      3997.30260764

loop_
_atom_site_label
_atom_site_type_symbol
_atom_type_description
_atom_site_fract_x
_atom_site_fract_y
_atom_site_fract_z
_atom_type_partial_charge
Br1   Br    Br    0.356570 0.333808 0.120136 -0.522894
Br2   Br    Br    0.651288 0.551068 0.916359 -0.546605
C1    C     C_R   0.500014 0.661143 0.499963 0.915853
C2    C     C_1   0.500045 0.824376 0.499540 -0.062390
C3    C     C_1   0.500019 0.749540 0.499764 -0.172846
C4    C     C_1   0.500031 0.250470 0.499690 -0.168661
C5    C     C_R   0.041075 0.539479 0.561643 -0.156941
C6    C     C_R   0.958924 0.460454 0.438374 -0.156380
C7    C     C_R   0.094958 0.499982 0.499994 0.073883
C8    C     C_R   0.905041 0.499959 0.500020 0.073885
C9    C     C_R   0.052689 0.460464 0.438361 -0.151409
C10   C     C_R   0.947311 0.539468 0.561657 -0.151231
C11   C     C_1   0.192822 0.500002 0.499981 0.051871
C12   C     C_R   0.499989 0.338858 0.499987 0.912337
C13   C     C_1   0.807178 0.499969 0.500023 0.052638
C14   C     C_R   0.487741 0.500843 0.653587 0.885547
C15   C     C_R   0.512193 0.495685 0.346660 0.884729
C16   C     C_R   0.480073 0.499450 0.740201 -0.093093
C17   C     C_R   0.519439 0.469543 0.263579 -0.088493
C18   C     C_R   0.553711 0.521654 0.781203 -0.216849
C19   C     C_R   0.449140 0.423815 0.234858 -0.225239
C20   C     C_R   0.549906 0.513940 0.863598 0.294571
C21   C     C_R   0.455174 0.395392 0.156620 0.288486
C22   C     C_R   0.471957 0.481902 0.904946 0.094777
C23   C     C_R   0.420622 0.043772 0.490945 -0.170336
C24   C     C_R   0.531507 0.414691 0.106091 0.095949
C25   C     C_R   0.396655 0.464608 0.864656 -0.176444
C26   C     C_R   0.604514 0.454418 0.136283 -0.161714
C27   C     C_R   0.400610 0.473265 0.782274 -0.195161
C28   C     C_R   0.598638 0.481694 0.215143 -0.194531
C29   C     C_2   0.467810 0.464719 0.989838 -0.140628
C30   C     C_2   0.527748 0.414479 0.020123 -0.127308
C31   C     C_R   0.579610 0.956247 0.507413 -0.173138
C32   C     C_R   0.500119 0.086859 0.499166 0.166377
C33   C     C_R   0.500095 0.913158 0.499279 0.166556
C34   C     C_R   0.579622 0.043734 0.507357 -0.173602
C35   C     C_R   0.420609 0.956284 0.491002 -0.173244
C36   C     C_1   0.500071 0.175638 0.499415 -0.060698
H1    H     H_    0.614369 0.544697 0.749245 0.186775
H2    H     H_    0.641083 0.077631 0.513724 0.147955
H3    H     H_    0.359151 0.077700 0.484623 0.149160
H4    H     H_    0.641065 0.922322 0.513811 0.147908
H5    H     H_    0.907748 0.570428 0.609968 0.144376
H6    H     H_    0.092253 0.429504 0.390050 0.145738
H7    H     H_    0.071536 0.570449 0.609945 0.140247
H8    H     H_    0.928462 0.429487 0.390071 0.140990
H9    H     H_    0.389420 0.409953 0.273149 0.187650
H10   H     H_    0.654471 0.514611 0.237418 0.167169
H11   H     H_    0.342823 0.456667 0.751370 0.169414
H12   H     H_    0.581862 0.386464 0.982132 0.179123
H13   H     H_    0.414907 0.494336 0.028140 0.178440
H14   H     H_    0.336034 0.441503 0.896671 0.172206
H15   H     H_    0.663350 0.469737 0.097368 0.186652
H16   H     H_    0.359131 0.922387 0.484714 0.148112
N1    N     N_1   0.729450 0.499980 0.500020 -0.085731
N2    N     N_1   0.270550 0.500020 0.499980 -0.086382
O1    O     O_R   0.426350 0.621980 0.500000 -0.605270
O2    O     O_R   0.573650 0.378020 0.500000 -0.606162
O3    O     O_R   0.573690 0.621980 0.499960 -0.608100
O4    O     O_R   0.426310 0.378020 0.500040 -0.610346
O5    O     O_R   0.417630 0.500010 0.615820 -0.616723
O6    O     O_R   0.582370 0.499990 0.384180 -0.614066
O7    O     O_R   0.564960 0.500010 0.615780 -0.613432
O8    O     O_R   0.435040 0.499990 0.384220 -0.613997
Zn1   Zn    Zn3+2 0.401630 0.500000 0.500020 0.984056
Zn2   Zn    Zn3+2 0.598370 0.500000 0.499980 0.986615

loop_
_geom_bond_atom_site_label_1
_geom_bond_atom_site_label_2
_ccdc_geom_bond_type
Br2   C20   S    
C26   H15   S    
C4    C36   T    
C24   C30   S    
C17   C19   A    
C14   O7    A    
C15   O6    A    
C4    C12   S    
C12   O4    A    
C24   C26   A    
C29   C30   D    
C22   C25   A    
C23   C32   A    
C11   N2    T    
C23   C35   A    
O8    Zn1   S    
C31   C34   A    
C26   C28   A    
O7    Zn2   S    
C2    C33   S    
C9    H6    S    
C15   O8    A    
C16   C27   A    
C27   H11   S    
C7    C9    A    
C30   H12   S    
C8    C10   A    
C6    C9    A    
C35   H16   S    
C5    H7    S    
C28   H10   S    
C31   C33   A    
C18   C20   A    
O4    Zn1   S    
Br1   C21   S    
C10   H5    S    
C32   C34   A    
C8    C13   S    
C19   C21   A    
O3    Zn2   S    
C5    C10   A    
C12   O2    A    
C20   C22   A    
C22   C29   S    
C25   C27   A    
C14   O5    A    
C31   H4    S    
N2    Zn1   S    
O5    Zn1   S    
C34   H2    S    
N1    Zn2   S    
C25   H14   S    
C33   C35   A    
C16   C18   A    
C6    C8    A    
C21   C24   A    
C23   H3    S    
C5    C7    A    
C18   H1    S    
O6    Zn2   S    
C15   C17   S    
C7    C11   S    
C6    H8    S    
C19   H9    S    
C32   C36   S    
C17   C28   A    
C1    O3    A    
C1    O1    A    
O2    Zn2   S    
C14   C16   S    
O1    Zn1   S    
C29   H13   S    
C2    C3    T    
C1    C3    S    
C13   N1    T    
