data_mof_unit_8680.cif
_audit_creation_date              2012-10-26T19:41:47-0400
_audit_creation_method            fapswitch 2.2
_symmetry_space_group_name_H-M    P1
_symmetry_Int_Tables_number       1
_space_group_crystal_system       triclinic
_cell_length_a                    10.624962
_cell_length_b                    10.863053
_cell_length_c                    9.585756
_cell_angle_alpha                 90.491792
_cell_angle_beta                  89.761133
_cell_angle_gamma                 92.585706
_cell_volume                      1105.20831506

loop_
_atom_site_label
_atom_site_type_symbol
_atom_type_description
_atom_site_fract_x
_atom_site_fract_y
_atom_site_fract_z
_atom_type_partial_charge
C1    C     C_R   0.510227 0.263189 0.500095 0.545971
C2    C     C_R   0.538417 0.066170 0.629432 0.024996
C3    C     C_R   0.522189 0.129504 0.502283 -0.010997
C4    C     C_R   0.259344 0.499836 0.500333 0.555889
C5    C     C_R   0.500032 0.062798 0.378669 -0.166490
C6    C     C_R   0.489452 0.935598 0.380640 -0.168069
C7    C     C_R   0.489400 0.872491 0.507512 -0.010630
C8    C     C_R   0.668511 0.663137 0.144851 -0.097507
C9    C     C_R   0.751066 0.742505 0.072868 -0.181834
C10   C     C_R   0.751069 0.742425 0.929141 -0.168669
C11   C     C_R   0.668338 0.663146 0.856547 -0.087773
C12   C     C_3   0.960009 0.502481 0.367284 -0.114990
C13   C     C_R   0.582715 0.580270 0.925521 0.147013
C14   C     C_R   0.582740 0.580237 0.075185 0.152700
C15   C     C_R   0.421649 0.423331 0.073542 -0.009852
C16   C     C_R   0.493586 0.737672 0.501746 0.532409
C17   C     C_R   0.421683 0.423364 0.925558 -0.011653
C18   C     C_R   0.740609 0.500612 0.499692 0.536599
C19   C     C_3   0.039754 0.498821 0.632856 -0.109665
C20   C     C_3   0.952641 0.398622 0.563188 -0.120674
C21   C     C_3   0.877527 0.500871 0.498984 0.046431
C22   C     C_3   0.962322 0.601097 0.568540 -0.128304
C23   C     C_3   0.037390 0.400179 0.431604 -0.124825
C24   C     C_3   0.047147 0.602666 0.436964 -0.126811
C25   C     C_3   0.122302 0.500348 0.501139 0.044468
C26   C     C_R   0.588687 0.124104 0.751440 -0.098239
C27   C     C_R   0.577069 0.066937 0.880610 -0.133025
C28   C     C_R   0.515151 0.952100 0.890281 -0.127845
C29   C     C_R   0.476718 0.889151 0.769336 -0.101137
C30   C     C_R   0.500883 0.940302 0.635468 0.023131
Cu1   Cu    Cu3+1 0.499990 0.499990 0.640660 0.902310
Cu2   Cu    Cu3+1 0.500010 0.500010 0.359340 0.913372
H1    H     H_    0.910669 0.315232 0.614711 0.104391
H2    H     H_    0.357548 0.360510 0.869877 0.120505
H3    H     H_    0.074902 0.497324 0.741711 0.119101
H4    H     H_    0.928284 0.683165 0.624523 0.097895
H5    H     H_    0.088941 0.686111 0.385422 0.109003
H6    H     H_    0.924681 0.504190 0.258496 0.124004
H7    H     H_    0.071216 0.318006 0.375682 0.105881
H8    H     H_    0.490495 0.108864 0.279710 0.133525
H9    H     H_    0.639233 0.212642 0.748374 0.143335
H10   H     H_    0.612667 0.113452 0.973684 0.111289
H11   H     H_    0.499118 0.910425 0.991397 0.114707
H12   H     H_    0.423986 0.803161 0.784310 0.151852
H13   H     H_    0.478845 0.886729 0.282078 0.135755
H14   H     H_    0.357469 0.360477 0.128530 0.113315
H15   H     H_    0.676486 0.671137 0.254812 0.185710
H16   H     H_    0.815399 0.804758 0.129370 0.116956
H17   H     H_    0.815093 0.804883 0.873122 0.118483
H18   H     H_    0.675133 0.671977 0.746666 0.186092
N1    N     N_R   0.501210 0.501210 0.147910 -0.243416
N2    N     N_R   0.501250 0.501290 0.852040 -0.250124
O1    O     O_R   0.499990 0.319640 0.618810 -0.508529
O2    O     O_R   0.500000 0.319660 0.381240 -0.504016
O3    O     O_R   0.316850 0.499960 0.618770 -0.505208
O4    O     O_R   0.316860 0.499980 0.381190 -0.499240
O5    O     O_R   0.500000 0.680340 0.618760 -0.535557
O6    O     O_R   0.500010 0.680360 0.381190 -0.523572
O7    O     O_R   0.683140 0.500020 0.618810 -0.525011
O8    O     O_R   0.683150 0.500040 0.381230 -0.523425

loop_
_geom_bond_atom_site_label_1
_geom_bond_atom_site_label_2
_ccdc_geom_bond_type
C1    O2    A    
Cu2   N1    S    
C6    C7    A    
C6    H13   S    
C15   N1    A    
C13   N2    A    
C22   H4    S    
C9    C10   A    
C12   C24   S    
C28   H11   S    
C14   N1    A    
C12   C23   S    
C20   C23   S    
Cu2   O6    S    
Cu1   N2    S    
C2    C30   A    
Cu1   O5    S    
C19   C20   S    
C2    C3    A    
C16   O6    A    
C8    H15   S    
C4    O3    A    
C11   H18   S    
C19   H3    S    
C21   C22   S    
Cu1   O1    S    
C11   C13   A    
C27   H10   S    
C26   C27   A    
C29   C30   A    
C23   H7    S    
C20   H1    S    
C17   N2    A    
C18   O8    A    
C7    C16   S    
C24   H5    S    
C16   O5    A    
C23   C25   S    
C29   H12   S    
C12   H6    S    
C5    C6    A    
C19   C25   S    
C22   C24   S    
C10   C11   A    
Cu2   O8    S    
Cu1   O7    S    
C18   C21   S    
C4    C25   S    
C18   O7    A    
C19   C22   S    
C24   C25   S    
C9    H16   S    
C2    C26   A    
C17   H2    S    
C5    H8    S    
Cu2   O2    S    
C27   C28   A    
C15   C17   A    
C1    O1    A    
C28   C29   A    
C8    C14   A    
C3    C5    A    
C15   H14   S    
Cu1   O3    S    
C20   C21   S    
C13   C14   A    
C10   H17   S    
C12   C21   S    
Cu2   O4    S    
C4    O4    A    
Cu1   Cu2   S    
C26   H9    S    
C8    C9    A    
C1    C3    S    
C7    C30   A    
