data_mof_unit_16237.cif
_audit_creation_date              2013-03-05T15:48:55-0500
_audit_creation_method            fapswitch 2.2
_symmetry_space_group_name_H-M    P1
_symmetry_Int_Tables_number       1
_space_group_crystal_system       triclinic
_cell_length_a                    6.988929
_cell_length_b                    13.874215
_cell_length_c                    20.013332
_cell_angle_alpha                 104.03944
_cell_angle_beta                  89.28607
_cell_angle_gamma                 91.223523
_cell_volume                      1882.16050917

loop_
_atom_site_label
_atom_site_type_symbol
_atom_site_description
_atom_site_fract_x
_atom_site_fract_y
_atom_site_fract_z
_atom_type_partial_charge
O1    O     O_R   0.506780 0.600060 0.449950 -0.599996
O2    O     O_R   0.179840 0.597110 0.589410 -0.579030
O3    O     O_R   0.004570 0.399940 0.550050 -0.599519
C1    C     C_R   0.348945 0.612725 0.618414 1.050761
O4    O     O_R   0.177380 0.612160 0.452890 -0.550669
O5    O     O_R   0.002100 0.415100 0.412560 -0.573763
C2    C     C_R   0.348506 0.636852 0.434878 1.053184
O6    O     O_R   0.509250 0.584900 0.587440 -0.578472
O7    O     O_3   0.337570 0.435330 0.486930 -0.293253
V1    V     V_3+5 0.064650 0.512000 0.502430 1.289664
O8    O     O_R   0.672090 0.402890 0.410590 -0.599052
C3    C     C_R   0.841613 0.383143 0.382904 1.071656
O9    O     O_R   0.674540 0.387840 0.547110 -0.618262
C4    C     C_R   0.840855 0.367703 0.567095 0.941567
V2    V     V_3+5 0.564040 0.488000 0.497570 1.244083
O10   O     O_3   0.840990 0.564670 0.513070 -0.236587
C5    C     C_R   0.958443 0.133207 0.606886 0.036133
H1    H     H_    0.953037 0.187159 0.516491 0.141338
H2    H     H_    0.011688 0.063344 0.576762 0.197883
C6    C     C_R   0.848016 0.293362 0.605637 -0.244728
C7    C     C_R   0.823609 0.311504 0.934643 0.542099
C8    C     C_R   0.821725 0.388407 0.900828 -0.215617
C9    C     C_R   0.846805 0.368743 0.830029 -0.065813
C10   C     C_R   0.865051 0.270532 0.789493 0.059306
C11   C     C_R   0.891620 0.193012 0.824021 -0.120702
C12   C     C_R   0.868904 0.248476 0.715921 -0.003353
C13   C     C_R   0.932942 0.154186 0.678904 -0.133429
C14   C     C_R   0.971030 0.080531 0.713040 0.241572
C15   C     C_R   0.948413 0.097747 0.784962 0.391966
C16   C     C_R   0.807449 0.315390 0.677129 0.484515
C17   C     C_R   0.922453 0.203277 0.571341 -0.223784
C18   C     C_R   0.864529 0.214638 0.897089 -0.264727
H3    H     H_    0.859999 0.432872 0.808756 0.195750
H4    H     H_    0.802175 0.464511 0.929537 0.154593
C19   C     C_3   0.728375 0.180898 0.248100 0.504733
C20   C     C_3   0.897327 0.201980 0.298773 -0.438343
H5    H     H_    0.930974 0.160064 0.337756 0.183950
C21   C     C_3   0.855117 0.314746 0.312547 -0.408401
C22   C     C_3   0.686344 0.291938 0.262448 0.442548
C23   C     C_3   0.819625 0.301021 0.202677 0.406000
C24   C     C_3   0.992366 0.325679 0.252252 -0.238394
C25   C     C_3   0.026680 0.212552 0.237630 0.380908
C26   C     C_3   0.859176 0.188916 0.187041 -0.415307
H6    H     H_    0.107264 0.381670 0.251702 0.260229
C27   C     C_3   0.529497 0.742611 0.727527 0.254298
C28   C     C_3   0.396898 0.830597 0.750247 0.344620
C29   C     C_3   0.352732 0.800623 0.817905 -0.381937
C30   C     C_3   0.489442 0.710896 0.795535 -0.371140
C31   C     C_3   0.317501 0.646858 0.758738 0.397465
C32   C     C_3   0.183047 0.735401 0.781810 0.433011
C33   C     C_3   0.230683 0.766128 0.714373 0.353630
C34   C     C_3   0.362722 0.677208 0.690571 -0.538278
H7    H     H_    0.596254 0.686085 0.828061 0.199012
C35   C     C_R   0.563061 0.859598 0.383718 0.486345
H8    H     H_    0.697273 0.953934 0.288378 0.149817
C36   C     C_R   0.373484 0.715989 0.397344 -0.555376
C37   C     C_R   0.256060 0.695516 0.072136 -0.387809
C38   C     C_R   0.242217 0.616819 0.104659 0.350981
C39   C     C_R   0.307308 0.631152 0.172928 0.438133
C40   C     C_R   0.368170 0.727804 0.210539 -0.040402
C41   C     C_R   0.415213 0.798942 0.172133 0.035830
C42   C     C_R   0.396075 0.754270 0.283878 -0.052267
C43   C     C_R   0.517569 0.837073 0.312734 -0.123627
C44   C     C_R   0.593016 0.895187 0.269912 -0.070538
C45   C     C_R   0.532226 0.880642 0.202372 -0.034907
C46   C     C_R   0.304741 0.702427 0.329343 0.266038
C47   C     C_R   0.499949 0.796676 0.424627 0.490950
C48   C     C_R   0.349433 0.784647 0.103699 -0.209728
H9    H     H_    0.203065 0.685520 0.020182 0.189131
H10   H     H_    0.585630 0.931449 0.173031 0.165880
O11   O     O_R   0.203580 0.914920 0.912610 -0.567526
O12   O     O_R   0.535710 0.887810 0.047120 -0.631282
O13   O     O_R   0.710730 0.084950 0.087430 -0.570058
C49   C     C_R   0.365363 0.863166 0.065282 0.980658
O14   O     O_R   0.533010 0.902850 0.910600 -0.577681
O15   O     O_R   0.708010 0.100090 0.949930 -0.594509
C50   C     C_R   0.362964 0.876515 0.885544 1.078237
O16   O     O_R   0.206300 0.899780 0.050100 -0.599507
O17   O     O_3   0.375170 0.064580 0.013100 -0.251146
V3    V     V_3+5 0.648200 0.988020 0.997570 1.291124
O18   O     O_R   0.038030 0.112330 0.952840 -0.581542
C51   C     C_R   0.870639 0.137544 0.935837 1.183789
O19   O     O_R   0.040730 0.097300 0.089360 -0.567973
C52   C     C_R   0.871278 0.118527 0.116791 1.076551
V4    V     V_3+5 0.148780 0.012220 0.002360 1.320912
O20   O     O_3   0.871930 0.935430 0.986900 -0.290627
O21   O     O_3   0.591759 0.106699 0.247672 -0.705036
H11   H     H_    0.542635 0.119574 0.295669 0.330566
O22   O     O_3   0.505278 0.333684 0.275623 -0.683407
H12   H     H_    0.525179 0.405707 0.279228 0.315703
O23   O     O_3   0.774209 0.352213 0.153086 -0.634612
H13   H     H_    0.762959 0.422709 0.178519 0.340698
N1    N     N_R   0.207680 0.162986 0.221223 0.272746
O24   O     O_R   0.322524 0.192106 0.178076 -0.294880
O25   O     O_R   0.217365 0.071893 0.227135 -0.409423
O26   O     O_3   0.440124 0.928117 0.746549 -0.685600
H14   H     H_    0.502077 0.922612 0.701006 0.379969
N2    N     N_R   0.717368 0.760875 0.702835 0.266394
O27   O     O_R   0.813312 0.835751 0.739741 -0.292690
O28   O     O_R   0.763333 0.725030 0.638667 -0.306107
O29   O     O_3   0.273873 0.549612 0.762768 -0.720893
H15   H     H_    0.253707 0.553447 0.812449 0.333490
O30   O     O_3   0.003353 0.729242 0.811999 -0.697655
H16   H     H_    0.940977 0.668553 0.783464 0.328414
N3    N     N_R   0.026586 0.985878 0.672743 0.252412
O31   O     O_R   0.202544 0.977493 0.650505 -0.411750
O32   O     O_R   0.894979 0.929898 0.636200 -0.288790
O33   O     O_3   0.110888 0.793224 0.667738 -0.574821
H17   H     H_    0.190375 0.793413 0.626374 0.337139
O34   O     O_3   0.560968 0.818926 0.492283 -0.635554
H18   H     H_    0.476193 0.785270 0.519915 0.303760
O35   O     O_3   0.672995 0.941591 0.415079 -0.691514
H19   H     H_    0.634836 0.998366 0.396649 0.296458
N4    N     N_R   0.130194 0.646500 0.309218 0.266420
O36   O     O_R   0.104608 0.558187 0.319495 -0.416576
O37   O     O_R   0.994452 0.684741 0.280527 -0.399281
O38   O     O_3   0.332276 0.547819 0.197844 -0.678117
H20   H     H_    0.439704 0.561059 0.230876 0.304404
N5    N     N_R   0.170227 0.521283 0.066736 0.252538
O39   O     O_R   0.162060 0.500489 0.999819 -0.432744
O40   O     O_R   0.109270 0.454913 0.098467 -0.288195
O41   O     O_3   0.699934 0.396836 0.708601 -0.765923
H21   H     H_    0.653180 0.431560 0.674524 0.330634
O42   O     O_3   0.791941 0.329589 0.004834 -0.687944
H22   H     H_    0.761439 0.400695 0.023029 0.363247
O43   O     O_3   0.986233 0.023505 0.817879 -0.716086
H23   H     H_    0.063791 0.971351 0.787821 0.380818

loop_
_geom_bond_atom_site_label_1
_geom_bond_atom_site_label_2
_geom_bond_distance
_ccdc_geom_bond_type
O21   H11   0.991791 S    
N1    O24   1.300500 A    
C25   N1    1.448517 S    
C24   C25   1.548585 S    
C20   C25   1.545969 S    
C19   C20   1.542554 S    
O11   C50   1.299395 A    
C1    O6    1.293665 A    
N4    O36   1.299069 A    
C6    C16   1.415060 A    
C27   C28   1.524557 S    
N3    O32   1.301838 A    
C12   C13   1.416708 A    
O43   H23   0.988282 S    
C1    C34   1.506002 S    
C14   C15   1.408188 A    
C10   C12   1.429372 A    
C27   N2    1.436246 S    
O5    C3    1.294052 A    
C21   C22   1.535033 S    
C35   C43   1.417225 A    
C48   C49   1.479650 S    
V2    O10   2.177424 S    
N2    O27   1.297959 A    
O33   H17   0.991697 S    
C40   C42   1.438686 A    
O34   H18   0.990061 S    
V3    O20   1.728507 S    
O11   V4    2.005960 S    
C19   O21   1.387596 S    
C23   C26   1.540636 S    
C16   O41   1.384693 S    
C33   O33   1.384398 S    
C9    H3    1.077366 S    
C29   C30   1.559755 S    
C9    C10   1.414068 A    
O1    V2    2.059280 S    
C19   C26   1.541140 S    
O14   V3    2.017519 S    
O13   C52   1.297162 A    
C11   C18   1.430696 A    
C32   O30   1.396810 S    
C39   O38   1.380711 S    
O9    C4    1.291816 A    
H8    C44   1.080290 S    
C26   C52   1.507293 S    
O8    V2    2.000722 S    
C2    C36   1.479528 S    
O35   H19   0.989971 S    
O18   C51   1.300753 A    
C29   C32   1.550951 S    
N5    O40   1.301125 A    
C11   C15   1.424418 A    
C30   H7    1.109646 S    
C8    H4    1.083297 S    
C7    C18   1.404933 A    
C42   C46   1.426948 A    
C33   C34   1.533960 S    
C5    C13   1.409323 A    
O29   H15   0.991191 S    
C4    C6    1.431945 S    
C10   C11   1.428670 A    
C21   C24   1.566208 S    
O12   C49   1.303281 A    
O15   C51   1.295900 A    
O23   H13   0.991283 S    
O4    C2    1.307430 A    
C35   C47   1.395816 A    
C27   C34   1.542636 S    
C38   C39   1.411754 A    
V4    O20   2.177507 S    
C28   C33   1.526370 S    
O17   V3    2.185789 S    
C40   C41   1.421584 A    
C19   C22   1.531266 S    
C42   C43   1.422312 A    
C47   O34   1.384383 S    
O19   C52   1.308013 A    
C14   N3    1.423337 S    
O8    C3    1.307535 A    
C31   C34   1.549414 S    
O26   H14   0.990901 S    
C32   C33   1.541427 S    
C35   O35   1.380817 S    
O14   C50   1.305667 A    
O3    C4    1.291527 A    
O16   V4    2.065824 S    
C30   C31   1.560363 S    
O19   V4    2.000849 S    
C12   C16   1.422729 A    
O6    V2    2.005156 S    
N2    O28   1.298607 A    
O9    V2    2.060071 S    
C5    C17   1.365609 A    
C24   H6    1.107112 S    
C25   C26   1.534648 S    
C29   C50   1.501297 S    
C37   C48   1.396751 A    
O2    V1    2.017359 S    
O17   V4    1.720755 S    
O7    V1    2.185822 S    
C27   C30   1.549286 S    
O22   H12   0.991156 S    
C28   C29   1.535917 S    
C23   C24   1.551274 S    
C46   N4    1.439663 S    
O1    C2    1.297030 A    
O15   V3    2.045241 S    
O5    V1    2.013657 S    
N4    O37   1.301577 A    
N5    O39   1.301452 A    
C36   C47   1.416242 A    
C18   C51   1.467136 S    
N3    O31   1.300478 A    
C44   C45   1.388037 A    
C7    O42   1.381626 S    
C20   C21   1.555386 S    
O7    V2    1.722804 S    
O4    V1    2.033979 S    
O12   V3    2.034043 S    
O3    V1    2.045207 S    
V1    O10   1.728512 S    
O38   H20   0.990978 S    
C31   O29   1.398025 S    
C41   C48   1.416511 A    
C37   C38   1.401401 A    
N1    O25   1.300872 A    
C36   C46   1.416522 A    
O2    C1    1.313704 A    
C38   N5    1.441883 S    
C5    H2    1.080626 S    
O13   V3    2.013664 S    
C23   O23   1.396336 S    
C3    C21   1.498113 S    
C43   C44   1.403015 A    
C22   C23   1.534543 S    
C41   C45   1.399936 A    
C39   C40   1.428150 A    
C28   O26   1.399272 S    
C20   H5    1.110280 S    
C31   C32   1.539024 S    
C49   O16   1.301393 A    
O30   H16   0.991155 S    
C8    C9    1.386047 A    
C15   O43   1.382053 S    
H1    C17   1.085273 S    
C37   H9    1.083953 S    
O41   H21   0.987769 S    
C7    C8    1.395617 A    
C22   O22   1.398310 S    
O18   V4    2.059948 S    
C45   H10   1.079419 S    
O42   H22   0.991993 S    
C13   C14   1.391677 A    
C6    C17   1.380773 A    
