data_mof_unit_22661.cif
_audit_creation_date              2012-10-26T20:05:56-0400
_audit_creation_method            fapswitch 2.2
_symmetry_space_group_name_H-M    P1
_symmetry_Int_Tables_number       1
_space_group_crystal_system       triclinic
_cell_length_a                    9.524224
_cell_length_b                    10.807112
_cell_length_c                    13.442793
_cell_angle_alpha                 90.58927
_cell_angle_beta                  72.41411
_cell_angle_gamma                 89.808924
_cell_volume                      1318.89302372

loop_
_atom_site_label
_atom_site_type_symbol
_atom_type_description
_atom_site_fract_x
_atom_site_fract_y
_atom_site_fract_z
_atom_type_partial_charge
C1    C     C_R   0.498502 0.737723 0.503104 0.556649
C2    C     C_R   0.371157 0.486597 0.816200 0.040222
C3    C     C_R   0.617909 0.934908 0.445196 -0.148576
C4    C     C_R   0.420786 0.493919 0.700523 0.565865
C5    C     C_R   0.618469 0.062778 0.445007 -0.148673
C6    C     C_R   0.496948 0.128840 0.507568 -0.002867
C7    C     C_R   0.375477 0.066920 0.574756 -0.038972
C8    C     C_R   0.375359 0.937280 0.575422 -0.034218
C9    C     C_R   0.496077 0.871782 0.508232 -0.002005
C10   C     C_R   0.896722 0.574279 0.568094 0.216934
C11   C     C_R   0.045636 0.573080 0.568186 0.027159
C12   C     C_R   0.433703 0.477288 0.980270 0.028781
C13   C     C_R   0.103545 0.426327 0.431908 0.005265
C14   C     C_R   0.954712 0.426184 0.432051 -0.012947
C15   C     C_R   0.499300 0.262445 0.501945 0.539115
C16   C     C_R   0.578877 0.497627 0.299918 0.539871
C17   C     C_R   0.788911 0.391700 0.028191 -0.141842
C18   C     C_R   0.623932 0.480048 0.186597 -0.000608
C19   C     C_R   0.225374 0.522555 0.873311 0.103505
C20   C     C_R   0.184571 0.531309 0.981734 -0.133810
C21   C     C_R   0.287233 0.512492 0.034387 -0.142599
C22   C     C_1   0.254457 0.135882 0.645912 0.221429
C23   C     C_R   0.470839 0.451573 0.871704 -0.003354
C24   C     C_1   0.255640 0.873123 0.649133 0.218336
C25   C     C_R   0.543323 0.463238 0.031407 0.038697
C26   C     C_R   0.681310 0.408651 0.977470 0.046517
C27   C     C_R   0.708712 0.368735 0.874528 -0.143247
C28   C     C_R   0.604803 0.388598 0.822730 -0.120587
C29   C     C_R   0.520052 0.502959 0.134715 -0.130807
C30   C     C_R   0.759987 0.426480 0.132613 -0.141478
Cu1   Cu    Cu3+1 0.359340 0.499980 0.500000 0.981110
Cu2   Cu    Cu3+1 0.640660 0.500020 0.500000 0.964484
H1    H     H_    0.841486 0.407450 0.171937 0.119908
H2    H     H_    0.072681 0.556841 0.025545 0.119182
H3    H     H_    0.629448 0.349211 0.745206 0.155044
H4    H     H_    0.711610 0.884980 0.394397 0.131438
H5    H     H_    0.791501 0.631323 0.715018 0.214743
H6    H     H_    0.830783 0.744912 0.625537 0.214097
H7    H     H_    0.074068 0.638905 0.846875 0.246239
H8    H     H_    0.031774 0.487507 0.846271 0.224161
H9    H     H_    0.712511 0.110361 0.394089 0.124799
H10   H     H_    0.078934 0.630899 0.622810 0.157550
H11   H     H_    0.182923 0.367163 0.377371 0.118560
H12   H     H_    0.921986 0.367010 0.377650 0.103816
H13   H     H_    0.811121 0.321998 0.833658 0.131316
H14   H     H_    0.893796 0.348436 0.987954 0.117015
H15   H     H_    0.421036 0.551891 0.177292 0.119621
H16   H     H_    0.246654 0.521640 0.118152 0.103499
N1    N     N_R   0.147940 0.499970 0.499970 -0.238957
N2    N     N_R   0.852060 0.500060 0.499990 -0.196992
N3    N     N_1   0.158178 0.190905 0.702604 -0.295115
N4    N     N_1   0.159666 0.823470 0.708868 -0.327468
N5    N     N_3   0.792992 0.654081 0.639282 -0.549660
N6    N     N_3   0.117512 0.551006 0.822060 -0.593156
O1    O     O_R   0.381250 0.680340 0.500010 -0.498880
O2    O     O_R   0.618820 0.680370 0.500010 -0.472388
O3    O     O_R   0.323240 0.499950 0.650980 -0.449374
O4    O     O_R   0.560810 0.499980 0.650980 -0.491030
O5    O     O_R   0.381180 0.319630 0.499990 -0.494047
O6    O     O_R   0.618750 0.319660 0.499990 -0.516878
O7    O     O_R   0.439190 0.500020 0.349020 -0.512983
O8    O     O_R   0.676760 0.500050 0.349020 -0.511409

loop_
_geom_bond_atom_site_label_1
_geom_bond_atom_site_label_2
_ccdc_geom_bond_type
C4    O3    A    
C24   N4    T    
C2    C4    S    
C6    C7    A    
C3    C9    A    
C7    C22   S    
C15   O6    A    
Cu1   O7    S    
C19   C20   A    
Cu2   O4    S    
C12   C25   A    
C6    C15   S    
C21   H16   S    
C20   H2    S    
C27   H13   S    
C1    O1    A    
H5    N5    S    
C7    C8    A    
C18   C29   A    
C13   C14   A    
C17   H14   S    
C17   C30   A    
C12   C23   A    
Cu2   N2    S    
C26   C27   A    
C14   N2    A    
H6    N5    S    
C16   O8    A    
C3    H4    S    
C29   H15   S    
C11   N1    A    
C17   C26   A    
C19   N6    S    
C25   C26   A    
C8    C24   S    
C1    O2    A    
Cu1   N1    S    
H8    N6    S    
C2    C23   A    
C25   C29   A    
C18   C30   A    
C13   N1    A    
H7    N6    S    
C10   C11   A    
Cu2   O6    S    
Cu2   O8    S    
C10   N2    A    
C13   H11   S    
C1    C9    S    
C20   C21   A    
C11   H10   S    
C14   H12   S    
C16   O7    A    
C4    O4    A    
C27   C28   A    
C5    C6    A    
C10   N5    S    
C5    H9    S    
C8    C9    A    
C30   H1    S    
Cu1   O1    S    
C2    C19   A    
C23   C28   A    
C15   O5    A    
C12   C21   A    
Cu2   O2    S    
C16   C18   S    
Cu1   O3    S    
Cu1   Cu2   S    
C28   H3    S    
C22   N3    T    
C3    C5    A    
Cu1   O5    S    
