data_mof_unit_48772.cif
_audit_creation_date              2013-03-05T15:51:27-0500
_audit_creation_method            fapswitch 2.2
_symmetry_space_group_name_H-M    P1
_symmetry_Int_Tables_number       1
_space_group_crystal_system       triclinic
_cell_length_a                    6.931138
_cell_length_b                    23.194577
_cell_length_c                    25.77695
_cell_angle_alpha                 104.425571
_cell_angle_beta                  89.646569
_cell_angle_gamma                 90.40438
_cell_volume                      4013.23244204

loop_
_atom_site_label
_atom_site_type_symbol
_atom_site_description
_atom_site_fract_x
_atom_site_fract_y
_atom_site_fract_z
_atom_type_partial_charge
O1    O     O_R   0.494330 0.439230 0.438150 -0.595065
O2    O     O_R   0.820190 0.446230 0.546380 -0.598951
O3    O     O_R   0.994320 0.560770 0.561850 -0.594854
C1    C     C_R   0.650970 0.434017 0.562975 0.922877
O4    O     O_R   0.823790 0.432220 0.437600 -0.596990
O5    O     O_R   0.997940 0.546660 0.452300 -0.594786
C2    C     C_R   0.654958 0.415554 0.417538 0.954618
O6    O     O_R   0.490700 0.453340 0.547700 -0.594187
O7    O     O_3   0.662060 0.537560 0.504950 -0.273285
V1    V     V_3+5 0.935420 0.493030 0.499080 1.144330
O8    O     O_R   0.327880 0.553770 0.453620 -0.597117
C3    C     C_R   0.159599 0.566006 0.437028 0.924539
O9    O     O_R   0.324280 0.567780 0.562400 -0.598618
C4    C     C_R   0.155169 0.584322 0.582634 0.952929
V2    V     V_3+5 0.435890 0.506970 0.500920 1.143754
O10   O     O_3   0.159380 0.462440 0.495050 -0.273717
C5    C     C_R   0.250206 0.860265 0.834743 -0.247202
C6    C     C_R   0.085234 0.866393 0.867873 -0.139680
C7    C     C_R   0.931951 0.825467 0.853328 -0.260904
C8    C     C_R   0.943572 0.778629 0.806777 0.150686
C9    C     C_R   0.108721 0.773270 0.773598 0.028866
C10   C     C_R   0.262098 0.814432 0.787546 0.146114
C11   C     C_R   0.793090 0.736920 0.792813 -0.206390
C12   C     C_R   0.804661 0.690830 0.746056 -0.217688
C13   C     C_R   0.967157 0.685501 0.712442 0.147793
C14   C     C_R   0.120539 0.726661 0.726389 0.028956
C15   C     C_R   0.285684 0.721302 0.693208 0.149477
C16   C     C_R   0.436168 0.763010 0.707174 -0.203838
C17   C     C_R   0.424597 0.809101 0.753932 -0.215897
C18   C     C_R   0.979032 0.639674 0.665242 -0.246364
C19   C     C_R   0.143987 0.633548 0.632106 -0.147370
C20   C     C_R   0.297288 0.674467 0.646652 -0.256331
H1    H     H_    0.368634 0.891733 0.845285 0.138537
H2    H     H_    0.804597 0.829573 0.878593 0.140650
H3    H     H_    0.665584 0.740161 0.817896 0.142624
H4    H     H_    0.685722 0.659520 0.736021 0.141608
H5    H     H_    0.860593 0.608209 0.654700 0.138369
H6    H     H_    0.424632 0.670361 0.621383 0.142159
H7    H     H_    0.563673 0.759770 0.682091 0.143874
H8    H     H_    0.543535 0.840412 0.763966 0.142268
C21   C     C_R   0.256406 0.881235 0.120840 -0.094817
H9    H     H_    0.390074 0.897872 0.107965 0.135485
C22   C     C_R   0.265185 0.845548 0.157355 -0.141631
H10   H     H_    0.405266 0.835788 0.171340 0.115118
C23   C     C_R   0.095844 0.822959 0.175613 0.116169
C24   C     C_R   0.917372 0.837069 0.156178 -0.129536
H11   H     H_    0.783825 0.820568 0.169239 0.115179
C25   C     C_R   0.908553 0.872791 0.119627 -0.149597
H12   H     H_    0.768516 0.882748 0.105740 0.128875
C26   C     C_R   0.077996 0.895416 0.101423 -0.136786
N1    N     N_R   0.942172 0.763443 0.232612 -0.076296
N2    N     N_R   0.950927 0.729628 0.267501 -0.077939
C27   C     C_R   0.123403 0.715853 0.286105 0.099288
N3    N     N_R   0.286741 0.737504 0.268157 -0.076072
N4    N     N_R   0.277985 0.771322 0.233270 -0.076393
C28   C     C_R   0.105508 0.785087 0.214658 0.106757
C29   C     C_R   0.311568 0.663521 0.344307 -0.137161
H13   H     H_    0.445140 0.679973 0.331213 0.115316
C30   C     C_R   0.320387 0.627570 0.380670 -0.160649
H14   H     H_    0.460450 0.617414 0.394400 0.127059
C31   C     C_R   0.150916 0.604942 0.398864 -0.130954
C32   C     C_R   0.972464 0.619453 0.379704 -0.159605
H15   H     H_    0.838753 0.602899 0.392635 0.129480
C33   C     C_R   0.963687 0.655371 0.343380 -0.139839
H16   H     H_    0.823573 0.665354 0.329570 0.113165
C34   C     C_R   0.133066 0.677878 0.325065 0.122299
C35   C     C_R   0.463897 0.380278 0.621275 -0.160847
H17   H     H_    0.329926 0.396528 0.609005 0.127930
C36   C     C_R   0.456733 0.344412 0.657768 -0.138075
H18   H     H_    0.317337 0.334063 0.672452 0.113217
C37   C     C_R   0.627110 0.322445 0.675154 0.122470
C38   C     C_R   0.804605 0.337183 0.654873 -0.139257
H19   H     H_    0.938831 0.321159 0.667199 0.114938
C39   C     C_R   0.811789 0.372980 0.618451 -0.159397
H20   H     H_    0.951483 0.383391 0.603973 0.128720
C40   C     C_R   0.641652 0.395145 0.601155 -0.129969
N5    N     N_R   0.785290 0.263768 0.731157 -0.077272
N6    N     N_R   0.779590 0.230027 0.766166 -0.077840
C41   C     C_R   0.608621 0.215567 0.785917 0.098728
N7    N     N_R   0.443690 0.236418 0.768999 -0.077510
N8    N     N_R   0.449390 0.270159 0.733989 -0.077891
C42   C     C_R   0.620359 0.284617 0.714238 0.099309
C43   C     C_R   0.424361 0.162974 0.845257 -0.140992
H21   H     H_    0.290136 0.179000 0.832932 0.114897
C44   C     C_R   0.417164 0.127150 0.881657 -0.162572
H22   H     H_    0.277462 0.116722 0.896119 0.127926
C45   C     C_R   0.587296 0.104976 0.898947 -0.122958
C46   C     C_R   0.765062 0.119867 0.878849 -0.163359
H23   H     H_    0.899030 0.103611 0.891116 0.127456
C47   C     C_R   0.772238 0.155759 0.842378 -0.139741
H24   H     H_    0.911641 0.166122 0.827707 0.113613
C48   C     C_R   0.601864 0.177728 0.824992 0.122992
C49   C     C_R   0.434338 0.138724 0.172876 0.302028
C50   C     C_R   0.581736 0.131995 0.133422 -0.320369
C51   C     C_R   0.739181 0.171682 0.141964 -0.191395
C52   C     C_R   0.753278 0.217547 0.188930 0.158512
C53   C     C_R   0.604008 0.225631 0.227479 -0.011768
C54   C     C_R   0.442775 0.186642 0.219393 -0.027199
C55   C     C_R   0.915093 0.255448 0.198044 -0.173267
C56   C     C_R   0.929866 0.300947 0.245084 -0.228544
C57   C     C_R   0.782050 0.309880 0.283632 0.149242
C58   C     C_R   0.617714 0.272386 0.274660 0.062214
C59   C     C_R   0.467557 0.281461 0.312956 0.155566
C60   C     C_R   0.307750 0.243025 0.304587 -0.236530
C61   C     C_R   0.296551 0.195772 0.258843 -0.120214
C62   C     C_R   0.795459 0.355713 0.330896 -0.253856
C63   C     C_R   0.644044 0.365783 0.368656 -0.147665
C64   C     C_R   0.480164 0.328558 0.359173 -0.251882
H25   H     H_    0.851817 0.166727 0.111816 0.164889
H26   H     H_    0.031496 0.249516 0.168965 0.138935
H27   H     H_    0.057121 0.329199 0.251294 0.142524
H28   H     H_    0.921822 0.384388 0.337746 0.136869
H29   H     H_    0.363528 0.335668 0.388267 0.143005
H30   H     H_    0.191455 0.249214 0.333717 0.144697
H31   H     H_    0.171663 0.166812 0.254683 0.185197
O11   O     O_R   0.738220 0.046730 0.952360 -0.600113
O12   O     O_R   0.404950 0.067790 0.062410 -0.565275
O13   O     O_R   0.230980 0.953320 0.047680 -0.578457
C65   C     C_R   0.573251 0.083651 0.083157 1.031217
O14   O     O_R   0.408720 0.053790 0.953630 -0.606403
O15   O     O_R   0.234780 0.939210 0.938130 -0.602548
C66   C     C_R   0.577957 0.066055 0.937084 0.905409
O16   O     O_R   0.734430 0.060840 0.061910 -0.575378
O17   O     O_3   0.566930 0.962480 0.995080 -0.284857
V3    V     V_3+5 0.293490 0.006960 0.000910 1.192795
O18   O     O_R   0.904820 0.932150 0.937550 -0.604194
C67   C     C_R   0.073974 0.915630 0.917335 0.933596
O19   O     O_R   0.901050 0.946150 0.046320 -0.601433
C68   C     C_R   0.069313 0.934073 0.063034 0.991875
V4    V     V_3+5 0.793050 0.992940 0.999010 1.172932
O20   O     O_3   0.069480 0.037520 0.004920 -0.264584
N9    N     N_R   0.284536 0.094630 0.167406 0.231276
O21   O     O_R   0.106975 0.108166 0.159932 -0.429973
O22   O     O_R   0.327785 0.039812 0.166207 -0.414099

loop_
_geom_bond_atom_site_label_1
_geom_bond_atom_site_label_2
_geom_bond_distance
_ccdc_geom_bond_type
C45   C46   1.407504 A    
C49   C50   1.418716 A    
C10   C17   1.403982 A    
C21   H9    1.082763 S    
C51   C52   1.401854 A    
C29   C34   1.408301 A    
C1    O6    1.300100 A    
O19   C68   1.301986 A    
N8    C42   1.359392 A    
C47   H24   1.082537 S    
C62   H28   1.084347 S    
C23   C24   1.408311 A    
C43   C48   1.406701 A    
C14   C15   1.412140 A    
O18   C67   1.300866 A    
C54   C61   1.410350 A    
O11   C66   1.300089 A    
C43   H21   1.082591 S    
C16   C17   1.400023 A    
N1    C28   1.359835 A    
C36   H18   1.082531 S    
O12   C65   1.298359 A    
O5    C3    1.298960 A    
C18   C19   1.409505 A    
C29   C30   1.403020 A    
C62   C63   1.407451 A    
O18   V4    1.996345 S    
V2    O10   2.158826 S    
C52   C55   1.404402 A    
C57   C62   1.406338 A    
C6    C7    1.408455 A    
C36   C37   1.408464 A    
C32   C33   1.401636 A    
C58   C59   1.410259 A    
C24   H11   1.082581 S    
O8    V2    1.976744 S    
C7    C8    1.406104 A    
C23   C28   1.493730 S    
N9    O21   1.299543 A    
C11   C12   1.400000 A    
C59   C64   1.404195 A    
O1    V2    1.996240 S    
O13   V3    1.980496 S    
C20   H6    1.084237 S    
C49   N9    1.434881 S    
O7    V1    2.150763 S    
C4    C19   1.486771 S    
C53   C58   1.416683 A    
C37   C42   1.492082 S    
C25   C26   1.407868 A    
C30   H14   1.082684 S    
O9    C4    1.300858 A    
C21   C22   1.401583 A    
C50   C51   1.405174 A    
C5    H1    1.084358 S    
C60   C61   1.397731 A    
C9    C14   1.414508 A    
O14   C66   1.299367 A    
C53   C54   1.415914 A    
C44   C45   1.408169 A    
C24   C25   1.402958 A    
C30   C31   1.407947 A    
C39   H20   1.082683 S    
C35   H17   1.082724 S    
C57   C58   1.412892 A    
C12   C13   1.403973 A    
C38   C39   1.400204 A    
C51   H25   1.084388 S    
O4    C2    1.299114 A    
N6    C41   1.359392 A    
N7    N8    1.333957 A    
C16   H7    1.083686 S    
C13   C14   1.410767 A    
N5    N6    1.333960 A    
C55   H26   1.083704 S    
N1    N2    1.334329 A    
C18   H5    1.084360 S    
C35   C36   1.402899 A    
C33   C34   1.407464 A    
C64   H29   1.084421 S    
O2    C1    1.299388 A    
C22   H10   1.082570 S    
O15   V3    1.996466 S    
C32   H15   1.082746 S    
C26   C68   1.493442 S    
C6    C67   1.486769 S    
C50   C65   1.488517 S    
V3    O20   1.703195 S    
C47   C48   1.408471 A    
C19   C20   1.408463 A    
C8    C11   1.403646 A    
C63   C64   1.407074 A    
C52   C53   1.410750 A    
N4    C28   1.360148 A    
C5    C6    1.409511 A    
C41   C48   1.492084 S    
O17   V4    1.707751 S    
C12   H4    1.083741 S    
C46   H23   1.082731 S    
C27   C34   1.493749 S    
C22   C23   1.407474 A    
C44   H22   1.082691 S    
O3    C4    1.296659 A    
C39   C40   1.408165 A    
C60   H30   1.083804 S    
C25   H12   1.082700 S    
C43   C44   1.400199 A    
C46   C47   1.402901 A    
O6    V2    1.976212 S    
C11   H3    1.083686 S    
O9    V2    1.996471 S    
O16   V4    2.000727 S    
C2    C63   1.483675 S    
O2    V1    1.984424 S    
C21   C26   1.408272 A    
C59   C60   1.400496 A    
N2    C27   1.360139 A    
C13   C18   1.404482 A    
N3    N4    1.334346 A    
C15   C20   1.406138 A    
O1    C2    1.295895 A    
C61   H31   1.081233 S    
C38   H19   1.082586 S    
C7    H2    1.084237 S    
O19   V4    1.976747 S    
O5    V1    1.980531 S    
C45   C66   1.492019 S    
O8    C3    1.302004 A    
O15   C67   1.296694 A    
C27   N3    1.359848 A    
C65   O16   1.297829 A    
C5    C10   1.404520 A    
C55   C56   1.398911 A    
C33   H16   1.082571 S    
V4    O20   2.158820 S    
O7    V2    1.709158 S    
O4    V1    1.996387 S    
O3    V1    1.996439 S    
V1    O10   1.703136 S    
C3    C31   1.493692 S    
C29   H13   1.082580 S    
N5    C42   1.360112 A    
C17   H8    1.083740 S    
C56   C57   1.402776 A    
O14   V3    1.984527 S    
C31   C32   1.408297 A    
C1    C40   1.492029 S    
C41   N7    1.360111 A    
C37   C38   1.406696 A    
O11   V4    1.976575 S    
C8    C9    1.412134 A    
C56   H27   1.083651 S    
N9    O22   1.301223 A    
C15   C16   1.403654 A    
O13   C68   1.298862 A    
C35   C40   1.407498 A    
C9    C10   1.410772 A    
O12   V3    1.996483 S    
C49   C54   1.418608 A    
O17   V3    2.150765 S    
