data_mof_unit_8795.cif
_audit_creation_date              2013-03-05T16:04:34-0500
_audit_creation_method            fapswitch 2.2
_symmetry_space_group_name_H-M    P1
_symmetry_Int_Tables_number       1
_space_group_crystal_system       triclinic
_cell_length_a                    8.528508
_cell_length_b                    14.764638
_cell_length_c                    18.819103
_cell_angle_alpha                 97.91468
_cell_angle_beta                  90.549823
_cell_angle_gamma                 92.602679
_cell_volume                      2344.41239191

loop_
_atom_site_label
_atom_site_type_symbol
_atom_site_description
_atom_site_fract_x
_atom_site_fract_y
_atom_site_fract_z
_atom_type_partial_charge
P1    P     P_3+3 0.061800 0.409390 0.339760 0.470534
O1    O     O_2   0.887710 0.436190 0.327560 -0.377540
O2    O     O_3   0.135370 0.443490 0.416520 -0.403902
O3    O     O_3   0.634420 0.609440 0.364670 -0.333604
O4    O     O_2   0.727481 0.506554 0.247221 -0.394624
O5    O     O_3   0.050442 0.287709 0.329346 -0.571593
O6    O     O_3   0.702987 0.674046 0.233325 -0.528570
H1    H     H_    0.655412 0.774852 0.316658 0.135805
C1    C     C_3   0.690079 0.828930 0.216124 -0.645251
H2    H     H_    0.818018 0.841757 0.224921 0.234282
P2    P     P_3+3 0.622760 0.718740 0.547830 0.535077
P3    P     P_3+3 0.075905 0.778235 0.397795 0.547660
O7    O     O_2   0.795290 0.730930 0.525800 -0.337667
O8    O     O_3   0.044470 0.660110 0.398750 -0.361071
O9    O     O_2   0.951503 0.826362 0.446605 -0.342527
O10   O     O_3   0.612892 0.766160 0.638272 -0.610521
O11   O     O_3   0.024496 0.801842 0.312266 -0.524119
C2    C     C_3   0.135199 0.767122 0.261322 0.789010
H3    H     H_    0.235311 0.734646 0.284740 -0.093869
C3    C     C_3   0.052668 0.694721 0.206668 -0.850445
H4    H     H_    0.008856 0.635910 0.232973 0.262760
H5    H     H_    0.955050 0.723159 0.179217 0.263703
C4    C     C_3   0.266936 0.760015 0.678233 0.307154
H6    H     H_    0.361610 0.715790 0.658593 0.114335
C5    C     C_3   0.294535 0.794588 0.759707 -0.829816
H7    H     H_    0.203259 0.764623 0.791419 0.253286
H8    H     H_    0.405599 0.768293 0.777096 0.178144
Ba1   Ba    Ba6+2 0.843240 0.541620 0.463500 1.669647
C6    C     C_3   0.898870 0.254568 0.344117 0.177176
H9    H     H_    0.808996 0.285431 0.313888 0.152894
H10   H     H_    0.880475 0.274129 0.401617 0.037255
C7    C     C_3   0.870579 0.149454 0.323851 0.309856
H11   H     H_    0.762258 0.129801 0.351143 0.058116
C8    C     C_3   0.724970 0.740233 0.685128 0.025559
H12   H     H_    0.835850 0.722202 0.657775 0.152557
C9    C     C_3   0.753313 0.824408 0.743885 0.390932
H13   H     H_    0.642836 0.835712 0.773447 0.091073
P4    P     P_3+3 0.127890 0.590690 0.660240 0.522039
O12   O     O_2   0.301980 0.563840 0.672490 -0.364799
O13   O     O_3   0.054330 0.556590 0.583490 -0.371805
O14   O     O_3   0.555270 0.390630 0.635330 -0.346427
O15   O     O_3   0.121067 0.711377 0.667381 -0.530940
P5    P     P_3+3 0.104568 0.222050 0.600026 0.508200
O16   O     O_3   0.637720 0.384870 0.467990 -0.372869
O17   O     O_3   0.145220 0.339960 0.601250 -0.406832
O18   O     O_2   0.255206 0.173964 0.574959 -0.325754
O19   O     O_3   0.089977 0.205141 0.690329 -0.524925
Ba2   Ba    Ba6+2 0.346570 0.458460 0.536510 1.671925
P6    P     P_3+3 0.615464 0.583323 0.270774 0.473934
C10   C     C_3   0.628186 0.754287 0.258523 0.274529
H14   H     H_    0.499101 0.744804 0.249706 0.050641
H15   H     H_    0.667243 0.806743 0.157916 0.216949
O20   O     O_3   0.551980 0.615210 0.532020 -0.346282
C11   C     C_3   0.407791 0.276788 0.328488 0.360753
H16   H     H_    0.311328 0.229175 0.339815 0.205466
H17   H     H_    0.385250 0.344985 0.357866 0.027658
C12   C     C_3   0.408021 0.284905 0.248182 -0.105589
H18   H     H_    0.299863 0.315357 0.234283 0.095241
H19   H     H_    0.506220 0.331929 0.237441 0.104959
P7    P     P_3+3 0.568030 0.268755 0.445422 0.471222
O21   O     O_2   0.394410 0.269100 0.474240 -0.327101
O22   O     O_3   0.551334 0.246859 0.351112 -0.596194
H20   H     H_    0.135868 0.671938 0.164318 0.214021
C13   C     C_3   0.024237 0.282761 0.729225 0.241104
H21   H     H_    0.117541 0.337888 0.741710 0.093982
H22   H     H_    0.931492 0.310440 0.697561 0.071069
C14   C     C_3   0.949515 0.262108 0.800142 -0.075017
H23   H     H_    0.004960 0.307614 0.846356 0.119705
H24   H     H_    0.825288 0.279273 0.800629 0.154895
P8    P     P_3+3 0.578850 0.404805 0.729187 0.520597
C15   C     C_3   0.468878 0.231827 0.718901 0.777939
O23   O     O_2   0.432056 0.454056 0.758985 -0.360281
O24   O     O_3   0.565816 0.298079 0.761026 -0.578230
H25   H     H_    0.370417 0.263735 0.694750 0.068922
H26   H     H_    0.316045 0.114673 0.736680 0.198032
C16   C     C_3   0.405430 0.162132 0.766953 -0.714722
H27   H     H_    0.503844 0.120457 0.780792 0.262507
C17   C     C_R   0.998773 0.481235 0.052733 0.098655
C18   C     C_R   0.922629 0.423495 0.095852 -0.210509
C19   C     C_R   0.777511 0.469682 0.968047 -0.255945
C20   C     C_R   0.934342 0.493148 0.985049 -0.009684
C21   C     C_R   0.721935 0.455092 0.897798 0.360123
C22   C     C_R   0.816149 0.479642 0.840559 -0.231099
C23   C     C_R   0.969289 0.520513 0.859862 0.038124
C24   C     C_R   0.028207 0.526407 0.932606 0.046642
C25   C     C_R   0.768181 0.465439 0.766022 0.211815
C26   C     C_R   0.872031 0.493434 0.714634 -0.456560
C27   C     C_R   0.015386 0.541036 0.733293 0.207195
C28   C     C_R   0.066430 0.552680 0.806774 0.055323
C29   C     C_R   0.150882 0.515963 0.073212 0.036616
C30   C     C_R   0.211269 0.506029 0.143299 0.037120
C31   C     C_R   0.120335 0.457666 0.191176 -0.060969
C32   C     C_R   0.986334 0.406573 0.160998 -0.162144
H28   H     H_    0.837535 0.480652 0.658535 0.187838
C33   C     C_R   0.212401 0.595581 0.829322 -0.083024
C34   C     C_R   0.266714 0.603187 0.900127 -0.080332
C35   C     C_R   0.180813 0.564145 0.952700 0.095316
C36   C     C_R   0.242238 0.559916 0.023882 0.066014
C37   C     C_R   0.394969 0.592993 0.046450 -0.099547
C38   C     C_R   0.362120 0.544545 0.164978 -0.044120
C39   C     C_R   0.453095 0.585022 0.114820 -0.168751
C40   C     C_R   0.417842 0.539323 0.235436 0.181747
C41   C     C_R   0.324668 0.494879 0.281909 -0.381822
C42   C     C_R   0.172968 0.459044 0.264567 0.153982
H29   H     H_    0.290407 0.622559 0.792518 0.150160
H30   H     H_    0.572322 0.609581 0.126598 0.184705
H31   H     H_    0.375451 0.483916 0.332366 0.190916
H32   H     H_    0.695507 0.455547 0.009109 0.165735
H33   H     H_    0.824234 0.379644 0.073712 0.151514
H34   H     H_    0.380458 0.637237 0.911230 0.133200
H35   H     H_    0.474487 0.624513 0.011982 0.137599
C43   C     C_R   0.706607 0.938723 0.524382 0.005925
C44   C     C_R   0.521875 0.799403 0.493180 0.165835
C45   C     C_R   0.379923 0.766384 0.458696 -0.413071
C46   C     C_R   0.277249 0.821851 0.429036 0.091258
C47   C     C_R   0.323405 0.911210 0.425728 -0.199736
C48   C     C_R   0.467342 0.949448 0.456433 -0.021043
C49   C     C_R   0.567351 0.894988 0.492186 0.003011
C50   C     C_R   0.645201 0.086954 0.485214 -0.104442
C51   C     C_R   0.747456 0.032536 0.520195 0.095744
C52   C     C_R   0.684527 0.183681 0.487081 0.168546
C53   C     C_R   0.824238 0.220593 0.521366 -0.407754
C54   C     C_R   0.929122 0.166321 0.550765 0.320269
C55   C     C_R   0.889856 0.072909 0.551342 -0.033890
C56   C     C_R   0.507283 0.042487 0.452272 0.386427
H36   H     H_    0.242522 0.949906 0.399074 0.247492
H37   H     H_    0.969082 0.032371 0.577645 0.156017
H38   H     H_    0.852523 0.293390 0.525446 0.144905
H39   H     H_    0.784693 0.900361 0.552831 0.194327
C57   C     C_2   0.296056 0.896490 0.783054 1.241553
O25   O     O_2   0.413765 0.936871 0.811282 -0.573040
O26   O     O_R   0.160879 0.943931 0.774960 -0.689667
H40   H     H_    0.172556 0.010431 0.796965 0.359577
N1    N     N_R   0.841126 0.123345 0.246716 0.273669
O27   O     O_R   0.699681 0.127290 0.222113 -0.303541
O28   O     O_R   0.941502 0.078321 0.205672 -0.202203
N2    N     N_R   0.996324 0.097841 0.348494 0.252341
O29   O     O_R   0.128431 0.096569 0.315259 -0.225639
O30   O     O_R   0.964844 0.036196 0.390074 -0.402309
C58   C     C_2   0.653944 0.659851 0.716160 0.894709
O31   O     O_2   0.611388 0.591683 0.675353 -0.562483
O32   O     O_R   0.629602 0.663942 0.790005 -0.806112
H41   H     H_    0.573640 0.607141 0.803508 0.331624
C59   C     C_2   0.614428 0.916542 0.238754 1.187391
O33   O     O_2   0.634079 0.955165 0.300045 -0.629199
O34   O     O_R   0.524830 0.954548 0.189041 -0.644047
H42   H     H_    0.470021 0.010160 0.211629 0.415749
N3    N     N_R   0.790233 0.906184 0.710479 0.275642
O35   O     O_R   0.683882 0.965838 0.706642 -0.272592
O36   O     O_R   0.921311 0.914499 0.677001 -0.348540
N4    N     N_R   0.874557 0.813349 0.797163 0.243904
O37   O     O_R   0.902795 0.879027 0.849899 -0.263922
O38   O     O_R   0.929345 0.733667 0.801586 -0.448825
N5    N     N_R   0.410516 0.197843 0.201337 0.319122
O39   O     O_R   0.485615 0.195155 0.141300 -0.252266
O40   O     O_R   0.297081 0.137077 0.205113 -0.224742
N6    N     N_R   0.956830 0.166593 0.811418 0.288777
O41   O     O_R   0.992596 0.147243 0.874771 -0.327488
O42   O     O_R   0.893557 0.102506 0.764303 -0.228530
N7    N     N_R   0.561259 0.181634 0.663072 0.227528
O43   O     O_R   0.712240 0.196231 0.663923 -0.426595
O44   O     O_R   0.501728 0.106663 0.626426 -0.362142
C60   C     C_2   0.335952 0.203495 0.836080 1.244368
O45   O     O_2   0.287612 0.280686 0.842606 -0.606259
O46   O     O_R   0.330780 0.153359 0.893902 -0.693787
H43   H     H_    0.285957 0.188797 0.938515 0.370756
N8    N     N_R   0.578465 0.402286 0.888372 0.263125
O47   O     O_R   0.449120 0.444844 0.898527 -0.385111
O48   O     O_R   0.581159 0.319630 0.904869 -0.362313
C61   C     C_2   0.935978 0.317631 0.181454 1.113310
O49   O     O_2   0.033611 0.261632 0.188256 -0.533222
O50   O     O_R   0.777250 0.291478 0.182551 -0.719859
H44   H     H_    0.707245 0.341290 0.171469 0.293747
N9    N     N_R   0.198895 0.840823 0.224000 0.214800
O51   O     O_R   0.156697 0.924347 0.241344 -0.258394
O52   O     O_R   0.290640 0.822106 0.169623 -0.400054
C62   C     C_2   0.330914 0.672744 0.454689 1.092581
O53   O     O_2   0.350129 0.622070 0.399741 -0.681254
O54   O     O_R   0.241609 0.644787 0.508692 -0.740647
H45   H     H_    0.188244 0.584488 0.489289 0.387351
N10   N     N_R   0.406689 0.089203 0.411096 0.227106
O55   O     O_R   0.422972 0.076936 0.341987 -0.350427
O56   O     O_R   0.271153 0.110971 0.437536 -0.357082
C63   C     C_2   0.269220 0.836773 0.632556 1.007257
O57   O     O_2   0.381686 0.891599 0.635527 -0.613973
O58   O     O_R   0.142889 0.844857 0.586447 -0.710910
H46   H     H_    0.154965 0.901397 0.561591 0.325312

loop_
_geom_bond_atom_site_label_1
_geom_bond_atom_site_label_2
_geom_bond_distance
_ccdc_geom_bond_type
P4    O13   1.576993 S    
C26   C27   1.399210 A    
O46   H43   1.013978 S    
H1    C10   1.113677 S    
C33   C34   1.394606 A    
C35   C36   1.444077 A    
C29   C30   1.439978 A    
C54   C55   1.405952 A    
N8    O48   1.301157 A    
N10   O55   1.297844 A    
C17   C29   1.403530 A    
C15   N7    1.458863 S    
N2    O30   1.300298 A    
N6    O41   1.300328 A    
C4    O15   1.406652 S    
C9    H13   1.106291 S    
C60   O46   1.397769 S    
C58   O32   1.400556 S    
C18   C32   1.394468 A    
C6    C7    1.553540 S    
P4    O12   1.576950 D    
C8    H12   1.106585 S    
C12   H19   1.101537 S    
N7    O43   1.295443 A    
C61   O49   1.217759 D    
Ba1   O13   2.852594 S    
C46   C47   1.369463 A    
C26   H28   1.082066 S    
O2    Ba2   2.853176 S    
C47   C48   1.411792 A    
P7    O22   1.762890 S    
P1    O1    1.576559 D    
N9    O51   1.299442 A    
C38   C39   1.406222 A    
C33   H29   1.068511 S    
O10   C8    1.395620 S    
C23   C24   1.443662 A    
C9    N3    1.459627 S    
Ba1   Ba2   4.630530 S    
C60   O45   1.220268 D    
O26   H40   1.011821 S    
C62   O54   1.373023 S    
P3    O11   1.749098 S    
P1    Ba1   3.445364 S    
C4    H6    1.096387 S    
O7    Ba1   2.926585 S    
C30   C38   1.415842 A    
P5    O19   1.756105 S    
C1    H2    1.105883 S    
P4    Ba2   3.445837 S    
P2    O20   1.605298 S    
P3    C46   1.866799 S    
C44   C49   1.449205 A    
C50   C52   1.447664 A    
C63   O57   1.222449 D    
N6    O42   1.298499 A    
C47   H36   1.077931 S    
N4    O38   1.298269 A    
O4    P6    1.536882 D    
P7    C52   1.883907 S    
C1    H15   1.111973 S    
C5    C57   1.507636 S    
O3    Ba1   2.871385 S    
C1    C59   1.483338 S    
C45   C46   1.389486 A    
C12   H18   1.089427 S    
C21   N8    1.416899 S    
N10   O56   1.299136 A    
Ba2   O20   2.849705 S    
C11   H17   1.105810 S    
C32   C61   1.465710 S    
C18   H33   1.080110 S    
C56   N10   1.414366 S    
C14   H23   1.110742 S    
C13   C14   1.546277 S    
C16   H27   1.112546 S    
O6    P6    1.739937 S    
C19   C21   1.385299 A    
N8    O47   1.296979 A    
C15   O24   1.403287 S    
C17   C18   1.399035 A    
C2    H3    1.114116 S    
N1    O28   1.301659 A    
C11   O22   1.402191 S    
C5    H7    1.099199 S    
C34   H34   1.077177 S    
Ba1   O16   2.850247 S    
P1    O5    1.778295 S    
P4    C27   1.893983 S    
P7    O21   1.581772 D    
P1    O2    1.577190 S    
C13   H22   1.111360 S    
C28   C33   1.405455 A    
C57   O26   1.393649 S    
H26   C16   1.109012 S    
C6    H9    1.101600 S    
P2    O10   1.753319 S    
C22   C23   1.435561 A    
P3    O9    1.543287 D    
N4    O37   1.300949 A    
C45   C62   1.417755 S    
C37   H35   1.077113 S    
C34   C35   1.407294 A    
O5    C6    1.405224 S    
P8    O24   1.760621 S    
C38   C40   1.417503 A    
C10   H14   1.111410 S    
N5    O39   1.300845 A    
C14   N6    1.458714 S    
C58   O31   1.217818 D    
C50   C51   1.427502 A    
P5    O17   1.756543 S    
P1    C42   1.920179 S    
C52   C53   1.400891 A    
O34   H42   1.007940 S    
C62   O53   1.207165 D    
C55   H37   1.082461 S    
C2    N9    1.461730 S    
C59   O34   1.394227 S    
C37   C39   1.396376 A    
C3    H5    1.104316 S    
C21   C22   1.426544 A    
C43   H39   1.077901 S    
O58   H46   1.013392 S    
C23   C28   1.421577 A    
P8    C25   1.888275 S    
P5    C54   1.851174 S    
P6    C40   1.861446 S    
O50   H44   1.010235 S    
C50   C56   1.415153 A    
C43   C51   1.425792 A    
C44   C45   1.403087 A    
N2    O29   1.293507 A    
O17   Ba2   2.801547 S    
C14   H24   1.100334 S    
C39   H30   1.074524 S    
O13   Ba2   3.018318 S    
C11   H16   1.099340 S    
O2    Ba1   3.017518 S    
C3    H4    1.109559 S    
C25   C26   1.408480 A    
N5    O40   1.298449 A    
C1    C10   1.525536 S    
O6    C10   1.398270 S    
N3    O36   1.297713 A    
C19   C20   1.389451 A    
O12   Ba2   2.844278 S    
C15   H25   1.105083 S    
O1    Ba1   2.843804 S    
Ba1   O20   2.989044 S    
O19   C13   1.413778 S    
C9    N4    1.463450 S    
P4    O15   1.772064 S    
N1    O27   1.294627 A    
C5    H8    1.103383 S    
C12   N5    1.456273 S    
C19   H32   1.082297 S    
O11   C2    1.413963 S    
O3    P6    1.760245 S    
C59   O33   1.220723 D    
C41   H31   1.075277 S    
C7    H11   1.107813 S    
C3    H20   1.100239 S    
C57   O25   1.222137 D    
P3    O8    1.755058 S    
C4    C63   1.513358 S    
C6    H10   1.095563 S    
C48   C49   1.423731 A    
C13   H21   1.111670 S    
C43   C49   1.415408 A    
P2    O7    1.541935 D    
C17   C20   1.418593 A    
Ba2   O21   2.926924 S    
C15   C16   1.544201 S    
C61   O50   1.391880 S    
P2    Ba1   3.500587 S    
O16   P7    1.781822 S    
C8    C58   1.499638 S    
C31   C32   1.410300 A    
O14   Ba2   2.870678 S    
C63   O58   1.396529 S    
C2    C3    1.520207 S    
N3    O35   1.300937 A    
C4    C5    1.559962 S    
C53   H38   1.082908 S    
C40   C41   1.396781 A    
P2    C44   1.905204 S    
P5    O18   1.542509 D    
N9    O52   1.301132 A    
C24   C35   1.419162 A    
C31   C42   1.445344 A    
O54   H45   1.001794 S    
O16   Ba2   2.988246 S    
C7    N2    1.451842 S    
C22   C25   1.441932 A    
C27   C28   1.430914 A    
C8    C9    1.553980 S    
C36   C37   1.410695 A    
C41   C42   1.393726 A    
O32   H41   1.010121 S    
C7    N1    1.465937 S    
C16   C60   1.498435 S    
P8    O23   1.547401 D    
O8    Ba1   2.800950 S    
C53   C54   1.387804 A    
C48   C56   1.413094 A    
C29   C36   1.422634 A    
C20   C24   1.403188 A    
C30   C31   1.436463 A    
C51   C55   1.413565 A    
N7    O44   1.300257 A    
O14   P8    1.758309 S    
C11   C12   1.532412 S    
