data_mof_unit_67507.cif
_audit_creation_date              2013-03-05T15:41:20-0500
_audit_creation_method            fapswitch 2.2
_symmetry_space_group_name_H-M    P1
_symmetry_Int_Tables_number       1
_space_group_crystal_system       triclinic
_cell_length_a                    10.940196
_cell_length_b                    8.729466
_cell_length_c                    7.873521
_cell_angle_alpha                 101.835315
_cell_angle_beta                  91.318477
_cell_angle_gamma                 95.226093
_cell_volume                      732.222098535

loop_
_atom_site_label
_atom_site_type_symbol
_atom_site_description
_atom_site_fract_x
_atom_site_fract_y
_atom_site_fract_z
_atom_type_partial_charge
O1    O     O_R   0.509190 0.286130 0.619780 -0.553007
O2    O     O_R   0.490810 0.713870 0.380220 -0.562905
O3    O     O_R   0.485310 0.256770 0.308360 -0.605476
O4    O     O_R   0.514690 0.743230 0.691640 -0.591096
C1    C     C_R   0.492899 0.202223 0.455755 0.872797
C2    C     C_R   0.505753 0.797593 0.544256 0.909272
O5    O     O_R   0.328790 0.514640 0.655680 -0.544213
O6    O     O_R   0.671210 0.485360 0.344320 -0.551573
O7    O     O_R   0.304910 0.485280 0.344260 -0.645668
O8    O     O_R   0.695090 0.514720 0.655740 -0.630137
C3    C     C_R   0.260529 0.492015 0.503794 0.819925
C4    C     C_R   0.739510 0.508220 0.496076 0.786999
Cu1   Cu    Cu3+1 0.514140 0.517380 0.684380 0.991427
Cu2   Cu    Cu3+1 0.485860 0.482620 0.315620 0.979570
N1    N     N_2   0.464560 0.456420 0.038510 -0.278721
N2    N     N_2   0.535440 0.543580 0.961490 -0.278726
C5    C     C_3   0.027020 0.441576 0.635573 0.014269
C6    C     C_3   0.973228 0.558935 0.363384 0.018428
C7    C     C_3   0.938743 0.359193 0.485218 -0.029416
C8    C     C_3   0.060961 0.641393 0.514146 -0.009549
C9    C     C_3   0.878343 0.511336 0.489494 -0.076090
C10   C     C_3   0.121875 0.489442 0.509780 -0.087471
C11   C     C_3   0.967287 0.595347 0.642190 -0.247605
C12   C     C_3   0.032721 0.403977 0.356420 -0.279369
H1    H     H_    0.960705 0.691980 0.751785 0.154907
H2    H     H_    0.042231 0.309467 0.244642 0.181804
C13   C     C_2   0.479814 0.033196 0.435615 -0.331464
C14   C     C_2   0.513548 0.966326 0.564936 -0.299495
H3    H     H_    0.439975 0.963241 0.313775 0.194960
H4    H     H_    0.550328 0.036446 0.687658 0.188821
C15   C     C_2   0.867048 0.201500 0.463411 0.825501
O9    O     O_2   0.881568 0.098422 0.337425 -0.608168
O10   O     O_R   0.784663 0.172852 0.588468 -0.779354
H5    H     H_    0.752765 0.057790 0.568410 0.327260
C16   C     C_2   0.119959 0.806926 0.554898 0.762210
O11   O     O_2   0.055639 0.914698 0.562161 -0.638471
O12   O     O_R   0.244959 0.838575 0.598051 -0.755715
H6    H     H_    0.269852 0.955578 0.636043 0.359061
C17   C     C_R   0.063045 0.390787 0.791325 0.104538
C18   C     C_R   0.136306 0.502178 0.907731 -0.150941
C19   C     C_R   0.206029 0.455450 0.027890 -0.066847
C20   C     C_R   0.199713 0.295983 0.040097 -0.063297
C21   C     C_R   0.116693 0.185714 0.933296 -0.150307
C22   C     C_R   0.046835 0.233913 0.808489 -0.117003
H7    H     H_    0.148918 0.624186 0.895485 0.160393
H8    H     H_    0.267817 0.549338 0.099961 0.204876
H9    H     H_    0.256286 0.255595 0.132860 0.168376
H10   H     H_    0.109098 0.063705 0.944483 0.154816
H11   H     H_    0.985671 0.148184 0.723084 0.207581
C23   C     C_R   0.939378 0.608476 0.205918 0.090089
C24   C     C_R   0.964051 0.762244 0.179811 -0.096993
C25   C     C_R   0.895022 0.810451 0.054006 -0.119738
C26   C     C_R   0.806074 0.703357 0.954506 -0.081120
C27   C     C_R   0.795221 0.545098 0.971051 -0.028664
C28   C     C_R   0.863097 0.498118 0.092718 -0.139841
H12   H     H_    0.032286 0.845730 0.256290 0.182671
H13   H     H_    0.909179 0.929550 0.033737 0.168651
H14   H     H_    0.749717 0.744833 0.862301 0.156181
H15   H     H_    0.731607 0.452705 0.900913 0.221233
H16   H     H_    0.846945 0.377372 0.108596 0.172438
C29   C     C_2   0.483773 0.296820 0.971521 1.109288
O13   O     O_2   0.403886 0.206974 0.883006 -0.638800
O14   O     O_R   0.595420 0.242395 0.010322 -0.768754
H17   H     H_    0.595696 0.124455 0.971635 0.303020
C30   C     C_2   0.523707 0.704477 0.034323 1.081257
O15   O     O_2   0.429260 0.761680 0.005771 -0.613954
O16   O     O_R   0.618856 0.797673 0.138003 -0.767243
H18   H     H_    0.609337 0.914067 0.156128 0.314573

loop_
_geom_bond_atom_site_label_1
_geom_bond_atom_site_label_2
_geom_bond_distance
_ccdc_geom_bond_type
C22   H11   1.068471 S    
C26   H14   1.079894 S    
C15   O10   1.394698 S    
O12   H6    1.013465 S    
C5    C10   1.539653 S    
C13   H3    1.084029 S    
C6    C9    1.540852 S    
C19   C20   1.410502 A    
C3    C10   1.516973 S    
C23   C28   1.373315 A    
Cu2   N1    2.151557 S    
C8    C11   1.538485 S    
O6    C4    1.363737 A    
O7    Cu2   1.999272 S    
C21   H10   1.082472 S    
C7    C15   1.496600 S    
C14   H4    1.079282 S    
C23   C24   1.402375 A    
N1    C29   1.421428 S    
C24   C25   1.386724 A    
O2    C2    1.345461 A    
Cu1   Cu2   2.863202 S    
O5    C3    1.364544 A    
O7    C3    1.349054 A    
C1    C13   1.444743 S    
C28   H16   1.085816 S    
C5    C11   1.537632 S    
O3    Cu2   1.960079 S    
O8    C4    1.350409 A    
C6    C12   1.545328 S    
C4    C9    1.518886 S    
C10   C12   1.552311 S    
C13   C14   1.333974 D    
C18   C19   1.350948 A    
C7    C9    1.531095 S    
C8    C10   1.532365 S    
O10   H5    1.012004 S    
C6    C8    1.523037 S    
C27   H15   1.066385 S    
C11   H1    1.084763 S    
C21   C22   1.385786 A    
C5    C17   1.445113 S    
C29   O13   1.219659 D    
O2    Cu2   1.973420 S    
O1    C1    1.346748 A    
O1    Cu1   1.973418 S    
N1    N2    1.285062 D    
C17   C22   1.399215 A    
C5    C7    1.524131 S    
O16   H18   1.011954 S    
C17   C18   1.373528 A    
O3    C1    1.345312 A    
O5    Cu1   2.032566 S    
C20   H9    1.079522 S    
C25   C26   1.390481 A    
C6    C23   1.445437 S    
O4    C2    1.345545 A    
C30   O15   1.223476 D    
C25   H13   1.081768 S    
Cu1   N2    2.151557 S    
O4    Cu1   1.960079 S    
C29   O14   1.399664 S    
C27   C28   1.349510 A    
C19   H8    1.068329 S    
O6    Cu2   2.032568 S    
N2    C30   1.422641 S    
C18   H7    1.085670 S    
C16   O12   1.390391 S    
C26   C27   1.408654 A    
C8    C16   1.495990 S    
C7    C12   1.541331 S    
C9    C11   1.544215 S    
C15   O9    1.219031 D    
C2    C14   1.442731 S    
C16   O11   1.218160 D    
C20   C21   1.390025 A    
C12   H2    1.089976 S    
O14   H17   1.012297 S    
C30   O16   1.395000 S    
O8    Cu1   1.999271 S    
C24   H12   1.072926 S    
