data_mof_unit_21128.cif
_audit_creation_date              2012-10-26T19:52:58-0400
_audit_creation_method            fapswitch 2.2
_symmetry_space_group_name_H-M    P1
_symmetry_Int_Tables_number       1
_space_group_crystal_system       triclinic
_cell_length_a                    10.929847
_cell_length_b                    9.093822
_cell_length_c                    7.7808
_cell_angle_alpha                 89.952479
_cell_angle_beta                  87.570922
_cell_angle_gamma                 90.025905
_cell_volume                      772.670216034

loop_
_atom_site_label
_atom_site_type_symbol
_atom_type_description
_atom_site_fract_x
_atom_site_fract_y
_atom_site_fract_z
_atom_type_partial_charge
C1    C     C_R   0.500145 0.219999 0.500006 0.555149
C2    C     C_1   0.499958 0.934638 0.499919 -0.060579
C3    C     C_3   0.860406 0.322497 0.143167 -0.079004
C4    C     C_3   0.168914 0.246152 0.222642 -0.107039
C5    C     C_3   0.847313 0.763796 0.585390 -0.125010
C6    C     C_3   0.096368 0.570304 0.791952 -0.050950
C7    C     C_R   0.499794 0.780001 0.499948 0.535444
C8    C     C_R   0.264039 0.491482 0.504471 0.542629
C9    C     C_R   0.735287 0.504031 0.495395 0.571799
C10   C     C_2   0.933285 0.417190 0.391390 0.302381
C11   C     C_2   0.068941 0.423029 0.380159 0.299511
C12   C     C_2   0.868121 0.522411 0.478343 0.287092
C13   C     C_2   0.130980 0.463844 0.519645 0.270622
C14   C     C_1   0.500076 0.065370 0.500016 -0.053759
Cu1   Cu    Cu3+1 0.500000 0.500000 0.669080 1.000168
Cu2   Cu    Cu3+1 0.500000 0.500000 0.330920 1.017903
H1    H     H_    0.943342 0.287067 0.067364 0.161821
H2    H     H_    0.123419 0.673346 0.722524 0.128928
H3    H     H_    0.167886 0.537542 0.881563 0.181361
H4    H     H_    0.012430 0.595195 0.871814 0.143966
H5    H     H_    0.839167 0.439088 0.111468 0.127280
H6    H     H_    0.782927 0.254548 0.100886 0.149790
H7    H     H_    0.091621 0.167807 0.244604 0.138133
H8    H     H_    0.238569 0.227159 0.320321 0.121143
H9    H     H_    0.212564 0.221483 0.094608 0.152326
H10   H     H_    0.800682 0.732257 0.709648 0.142068
H11   H     H_    0.780204 0.792871 0.487336 0.123211
H12   H     H_    0.902015 0.863905 0.609362 0.144336
N1    N     N_1   0.500000 0.500000 0.076820 -0.084707
N2    N     N_1   0.500000 0.500000 0.923180 -0.088878
O1    O     O_R   0.500000 0.288390 0.642760 -0.494538
O2    O     O_3   0.128371 0.393706 0.222947 -0.598044
O3    O     O_3   0.927652 0.651895 0.525484 -0.622259
O4    O     O_3   0.070416 0.451926 0.681353 -0.599791
O5    O     O_R   0.500000 0.711610 0.642760 -0.506770
O6    O     O_R   0.500000 0.288370 0.357190 -0.501131
O7    O     O_R   0.500000 0.711630 0.357190 -0.498609
O8    O     O_R   0.321940 0.500000 0.642750 -0.515731
O9    O     O_R   0.678060 0.500000 0.642750 -0.515572
O10   O     O_R   0.321930 0.500000 0.357180 -0.473893
O11   O     O_R   0.678070 0.500000 0.357180 -0.512862
O12   O     O_3   0.874145 0.297720 0.320826 -0.607931

loop_
_geom_bond_atom_site_label_1
_geom_bond_atom_site_label_2
_ccdc_geom_bond_type
C3    O12   S    
Cu1   O1    S    
C8    C13   S    
C10   O12   S    
C5    H12   S    
C6    H4    S    
C9    O11   A    
C2    C7    S    
C9    O9    A    
Cu2   O7    S    
C4    H9    S    
C7    O7    A    
C13   O4    S    
Cu1   O8    S    
C4    O2    S    
Cu2   O6    S    
C6    H3    S    
C11   C13   D    
Cu1   O9    S    
N1    N2    T    
C10   C12   D    
Cu2   O10   S    
C2    C14   T    
Cu1   O5    S    
C11   O2    S    
C3    H1    S    
C8    O8    A    
C4    H8    S    
C9    C12   S    
C6    H2    S    
C3    H5    S    
C10   C11   S    
Cu1   Cu2   S    
C6    O4    S    
C1    O1    A    
Cu2   N1    S    
Cu1   N2    S    
C4    H7    S    
C3    H6    S    
C1    C14   S    
C8    O10   A    
C12   O3    S    
C5    H11   S    
C7    O5    A    
Cu2   O11   S    
C5    H10   S    
C1    O6    A    
C5    O3    S    
