data_mof_unit_30925.cif
_audit_creation_date              2012-12-10T20:32:45-0500
_audit_creation_method            fapswitch 2.2
_symmetry_space_group_name_H-M    P1
_symmetry_Int_Tables_number       1
_space_group_crystal_system       triclinic
_cell_length_a                    11.539021
_cell_length_b                    10.66646
_cell_length_c                    9.88595
_cell_angle_alpha                 90.218871
_cell_angle_beta                  89.685818
_cell_angle_gamma                 89.864225
_cell_volume                      1216.73707938

loop_
_atom_site_label
_atom_site_type_symbol
_atom_type_description
_atom_site_fract_x
_atom_site_fract_y
_atom_site_fract_z
_atom_type_partial_charge
C1    C     C_R   0.504493 0.259985 0.499810 0.886057
C2    C     C_R   0.581734 0.563616 0.071611 -0.125509
C3    C     C_R   0.582264 0.562838 0.927774 -0.033465
C4    C     C_R   0.281963 0.499787 0.500261 0.918648
C5    C     C_R   0.421878 0.429435 0.929614 0.070403
C6    C     C_3   0.291772 0.437897 0.928333 -0.135690
C7    C     C_3   0.295555 0.426169 0.081910 0.334711
C8    C     C_R   0.504317 0.740085 0.500232 0.875000
C9    C     C_R   0.718064 0.500009 0.499699 0.899787
C10   C     C_1   0.161530 0.499559 0.500619 -0.144762
C11   C     C_1   0.059360 0.499529 0.500267 0.035898
C12   C     C_R   0.525904 0.128817 0.499722 -0.094969
C13   C     C_1   0.940716 0.499668 0.499552 0.021246
C14   C     C_1   0.838529 0.499841 0.499225 -0.170488
C15   C     C_R   0.533190 0.064629 0.621688 0.077734
C16   C     C_3   0.302147 0.204029 0.111121 -0.280210
C17   C     C_3   0.464471 0.879873 0.976052 -0.284884
C18   C     C_R   0.544426 0.064230 0.377667 -0.224524
C19   C     C_R   0.544089 0.934561 0.378165 -0.200828
C20   C     C_R   0.525584 0.871308 0.500611 -0.169962
C21   C     C_R   0.533301 0.936858 0.622407 0.129812
C22   C     C_3   0.462861 0.930742 0.749805 0.372100
C23   C     C_3   0.462343 0.073756 0.748208 -0.577748
C24   C     C_R   0.425404 0.424559 0.071754 0.047850
H1    H     H_    0.550658 0.112516 0.281768 0.163923
H2    H     H_    0.380830 0.201774 0.174989 0.174128
H3    H     H_    0.325153 0.189553 0.002955 0.134101
H4    H     H_    0.246831 0.124186 0.142253 0.192869
H5    H     H_    0.381222 0.829195 0.963946 0.186362
H6    H     H_    0.448364 0.976906 0.013049 0.145093
H7    H     H_    0.514729 0.830035 0.054429 0.181920
H8    H     H_    0.251071 0.357012 0.875963 0.171266
H9    H     H_    0.263573 0.511122 0.135841 0.147443
H10   H     H_    0.549811 0.885113 0.282672 0.164681
H11   H     H_    0.376912 0.885438 0.734294 0.096456
H12   H     H_    0.374835 0.114286 0.730741 0.169150
H13   H     H_    0.511742 0.117897 0.832007 0.226496
H14   H     H_    0.645871 0.617836 0.125495 0.151903
H15   H     H_    0.647091 0.616066 0.873493 0.167331
I1    I     I_    0.222277 0.617966 0.873023 -0.405807
N1    N     N_R   0.499240 0.499140 0.142800 -0.120167
N2    N     N_R   0.499240 0.499180 0.857150 -0.084484
O1    O     O_R   0.500010 0.316790 0.614690 -0.614179
O2    O     O_3   0.530106 0.880190 0.855425 -0.570921
O3    O     O_R   0.500000 0.316760 0.385350 -0.622539
O4    O     O_R   0.334450 0.500030 0.614670 -0.585931
O5    O     O_R   0.334440 0.500000 0.385330 -0.612129
O6    O     O_R   0.500000 0.683240 0.614650 -0.589434
O7    O     O_R   0.499990 0.683210 0.385310 -0.629092
O8    O     O_R   0.665560 0.500000 0.614670 -0.615898
O9    O     O_R   0.665550 0.499970 0.385330 -0.613820
O10   O     O_3   0.239411 0.316553 0.132416 -0.576897
Zn1   Zn    Zn3+2 0.500010 0.500020 0.653130 0.987373
Zn2   Zn    Zn3+2 0.499990 0.499980 0.346870 0.954597

loop_
_geom_bond_atom_site_label_1
_geom_bond_atom_site_label_2
_ccdc_geom_bond_type
C16   H4    S    
C6    H8    S    
C9    C14   S    
C8    O6    A    
C3    N2    A    
C6    C7    S    
C17   H6    S    
C23   H13   S    
C11   C13   S    
C2    H14   S    
C19   C20   A    
C9    O9    A    
C12   C15   A    
C7    O10   S    
C5    N2    A    
O9    Zn2   S    
C16   H3    S    
C15   C23   S    
C2    C3    A    
C17   O2    S    
C3    H15   S    
C18   H1    S    
C13   C14   T    
C22   H11   S    
C7    H9    S    
C4    O5    A    
C1    O3    A    
C8    C20   S    
C1    C12   S    
C24   N1    A    
O5    Zn2   S    
C5    C6    S    
O4    Zn1   S    
O1    Zn1   S    
O3    Zn2   S    
C18   C19   A    
N2    Zn1   S    
C16   H2    S    
O6    Zn1   S    
C17   H7    S    
C6    I1    S    
N1    Zn2   S    
O8    Zn1   S    
C10   C11   T    
C2    N1    A    
C4    C10   S    
O7    Zn2   S    
C16   O10   S    
C15   C21   A    
C17   H5    S    
C20   C21   A    
C23   H12   S    
C12   C18   A    
C22   C23   S    
C5    C24   A    
C4    O4    A    
C21   C22   S    
C8    O7    A    
C1    O1    A    
C22   O2    S    
C9    O8    A    
C7    C24   S    
C19   H10   S    
