data_mof_unit_13818.cif
_audit_creation_date              2012-10-26T21:00:41-0400
_audit_creation_method            fapswitch 2.2
_symmetry_space_group_name_H-M    P1
_symmetry_Int_Tables_number       1
_space_group_crystal_system       triclinic
_cell_length_a                    10.832649
_cell_length_b                    9.586897
_cell_length_c                    10.881698
_cell_angle_alpha                 93.848503
_cell_angle_beta                  92.932659
_cell_angle_gamma                 89.83534
_cell_volume                      1126.05538698

loop_
_atom_site_label
_atom_site_type_symbol
_atom_type_description
_atom_site_fract_x
_atom_site_fract_y
_atom_site_fract_z
_atom_type_partial_charge
C1    C     C_R   0.262247 0.500234 0.500149 0.566732
C2    C     C_R   0.500204 0.504916 0.738545 0.584425
C3    C     C_R   0.665469 0.686283 0.150727 -0.069830
C4    C     C_R   0.587094 0.756402 0.915566 -0.088094
C5    C     C_R   0.692783 0.817631 0.114081 0.125071
C6    C     C_R   0.644171 0.856684 0.000031 0.137819
C7    C     C_R   0.559075 0.621420 0.952361 -0.073439
C8    C     C_R   0.584060 0.596772 0.077734 -0.070847
C9    C     C_R   0.521424 0.488566 0.129889 -0.045102
C10   C     C_R   0.499821 0.513062 0.874167 -0.051327
C11   C     C_R   0.455702 0.388988 0.053778 0.421081
C12   C     C_R   0.737644 0.499922 0.498512 0.540138
C13   C     C_R   0.447945 0.398608 0.927596 0.414881
C14   C     C_R   0.063645 0.374055 0.493703 -0.092861
C15   C     C_R   0.936041 0.373845 0.489111 -0.098017
C16   C     C_R   0.871456 0.500451 0.496309 0.021545
C17   C     C_R   0.128212 0.500806 0.499494 0.027806
C18   C     C_R   0.935784 0.627667 0.502635 -0.120920
C19   C     C_R   0.063666 0.627814 0.503376 -0.116512
C20   C     C_R   0.414659 0.066554 0.428545 0.201683
C21   C     C_R   0.587163 0.076891 0.569487 0.216850
C22   C     C_R   0.415150 0.919203 0.429423 0.041695
C23   C     C_R   0.585696 0.929366 0.569719 0.036894
C24   C     C_R   0.506412 0.495735 0.262894 0.572054
Cu1   Cu    Cu3+1 0.500000 0.640660 0.500000 0.962100
Cu2   Cu    Cu3+1 0.500000 0.359340 0.500000 1.115620
F1    F     F_    0.396159 0.282871 0.101030 -0.543545
F2    F     F_    0.383016 0.298194 0.857840 -0.550956
H1    H     H_    0.700986 0.658809 0.240721 0.153590
H2    H     H_    0.554436 0.791692 0.827965 0.165483
H3    H     H_    0.111159 0.274764 0.492590 0.166882
H4    H     H_    0.888502 0.274405 0.480371 0.175710
H5    H     H_    0.887669 0.726956 0.507294 0.155874
H6    H     H_    0.111668 0.727134 0.507857 0.149710
H7    H     H_    0.347558 0.857998 0.372556 0.143920
H8    H     H_    0.654526 0.876290 0.625072 0.131640
I1    I     I_    0.793622 0.955563 0.243218 -0.311728
I2    I     I_    0.632823 0.069427 0.965471 -0.167431
I3    I     I_    0.277297 0.144027 0.306539 -0.157951
I4    I     I_    0.736100 0.171915 0.677462 -0.273239
N1    N     N_R   0.500000 0.852070 0.500000 -0.265512
N2    N     N_R   0.500000 0.147940 0.500000 -0.220560
O1    O     O_R   0.319640 0.618740 0.499990 -0.516991
O2    O     O_R   0.680360 0.618740 0.500010 -0.528584
O3    O     O_R   0.319620 0.381170 0.499990 -0.482588
O4    O     O_R   0.680380 0.381170 0.500010 -0.493183
O5    O     O_R   0.500000 0.618810 0.319650 -0.518019
O6    O     O_R   0.500000 0.618810 0.680350 -0.530624
O7    O     O_R   0.499970 0.381240 0.319640 -0.427430
O8    O     O_R   0.500030 0.381240 0.680360 -0.413910

loop_
_geom_bond_atom_site_label_1
_geom_bond_atom_site_label_2
_ccdc_geom_bond_type
C7    C10   A    
C20   N2    A    
C6    I2    S    
C13   F2    S    
C5    I1    S    
C11   C13   A    
Cu1   O5    S    
C1    C17   S    
C14   C17   A    
C11   F1    S    
C14   H3    S    
Cu1   O1    S    
C21   C23   A    
C15   H4    S    
C12   O2    A    
C22   H7    S    
C9    C11   A    
Cu1   O6    S    
C1    O3    A    
C21   I4    S    
C4    C7    A    
Cu1   O2    S    
C12   O4    A    
C17   C19   A    
C20   C22   A    
C23   H8    S    
C19   H6    S    
Cu2   O8    S    
C5    C6    A    
C18   H5    S    
C22   N1    A    
C15   C16   A    
Cu2   O4    S    
C4    C6    A    
C21   N2    A    
C2    C10   S    
C7    C8    A    
Cu2   N2    S    
C16   C18   A    
C3    C8    A    
Cu2   O7    S    
Cu1   N1    S    
C24   O7    A    
C3    H1    S    
C20   I3    S    
C14   C15   A    
C18   C19   A    
C2    O8    A    
Cu2   O3    S    
C2    O6    A    
Cu1   Cu2   S    
C24   O5    A    
C1    O1    A    
C9    C24   S    
C4    H2    S    
C12   C16   S    
C8    C9    A    
C3    C5    A    
C10   C13   A    
C23   N1    A    
