data_mof_unit_8243.cif
_audit_creation_date              2012-12-11T17:00:26-0500
_audit_creation_method            fapswitch 2.2
_symmetry_space_group_name_H-M    P1
_symmetry_Int_Tables_number       1
_space_group_crystal_system       triclinic
_cell_length_a                    6.952415
_cell_length_b                    13.646278
_cell_length_c                    20.293414
_cell_angle_alpha                 103.243907
_cell_angle_beta                  90.648545
_cell_angle_gamma                 90.285632
_cell_volume                      1873.945651

loop_
_atom_site_label
_atom_site_type_symbol
_atom_type_description
_atom_site_fract_x
_atom_site_fract_y
_atom_site_fract_z
_atom_type_partial_charge
O1    O     O_R   0.506770 0.599700 0.449550 -0.535286
O2    O     O_R   0.179980 0.595740 0.587960 -0.539109
O3    O     O_R   0.004580 0.400300 0.550450 -0.543194
C1    C     C_R   0.348702 0.616056 0.615521 0.761539
O4    O     O_R   0.177380 0.611700 0.452380 -0.539345
O5    O     O_R   0.001970 0.416370 0.413900 -0.548446
C2    C     C_R   0.345789 0.637529 0.435609 0.710472
O6    O     O_R   0.509390 0.583630 0.586100 -0.528851
O7    O     O_3   0.337530 0.435890 0.487530 -0.383846
V1    V     V_3+5 0.064660 0.511890 0.502310 1.475415
O8    O     O_R   0.671950 0.404260 0.412040 -0.546584
C3    C     C_R   0.839356 0.383747 0.384551 0.683212
O9    O     O_R   0.674540 0.388300 0.547620 -0.541023
C4    C     C_R   0.844194 0.362418 0.564782 0.697654
V2    V     V_3+5 0.564030 0.488110 0.497690 1.469431
O10   O     O_3   0.841030 0.564110 0.512470 -0.351567
C5    C     C_R   0.993907 0.128365 0.616933 -0.122384
H1    H     H_    0.999108 0.180336 0.525315 0.113428
H2    H     H_    0.052802 0.007874 0.699894 0.165133
H3    H     H_    0.061117 0.057678 0.593387 0.139713
C6    C     C_R   0.860431 0.286727 0.605558 -0.076829
C7    C     C_R   0.809842 0.314154 0.931853 -0.182626
C8    C     C_R   0.800450 0.391200 0.897558 -0.092777
C9    C     C_R   0.826679 0.370764 0.827774 -0.121161
C10   C     C_R   0.856712 0.271324 0.789870 0.060272
C11   C     C_R   0.888373 0.195267 0.826584 0.075217
C12   C     C_R   0.870601 0.246057 0.717425 0.028233
C13   C     C_R   0.952494 0.151561 0.686095 0.140358
C14   C     C_R   0.993211 0.080396 0.723832 -0.156360
C15   C     C_R   0.954990 0.100382 0.792433 -0.217734
C16   C     C_R   0.806463 0.309074 0.674208 -0.106923
C17   C     C_R   0.956006 0.197318 0.577847 -0.179602
C18   C     C_R   0.857500 0.216727 0.897296 -0.069743
H4    H     H_    0.786329 0.331158 0.985981 0.102028
H5    H     H_    0.833333 0.434995 0.805380 0.152579
H6    H     H_    0.774464 0.467617 0.925316 0.146742
H7    H     H_    0.985504 0.041761 0.818969 0.126400
C19   C     C_R   0.691993 0.233262 0.209441 0.180752
C20   C     C_R   0.863981 0.187253 0.183590 -0.117317
C21   C     C_R   0.024854 0.202331 0.227596 -0.201774
H8    H     H_    0.159124 0.168504 0.211335 0.170365
C22   C     C_R   0.016324 0.263969 0.293201 -0.198135
H9    H     H_    0.145173 0.274069 0.324609 0.136254
C23   C     C_R   0.845636 0.314010 0.317020 -0.105382
C24   C     C_R   0.682550 0.294562 0.274621 0.110040
C25   C     C_3   0.553639 0.367979 0.251976 -0.449659
C26   C     C_3   0.565094 0.301896 0.180941 -0.414772
H10   H     H_    0.622134 0.443246 0.257177 0.172010
H11   H     H_    0.407814 0.369267 0.273991 0.173565
H12   H     H_    0.641565 0.338541 0.145023 0.158755
H13   H     H_    0.425033 0.266392 0.161871 0.193034
C27   C     C_R   0.477524 0.765654 0.701350 0.102009
C28   C     C_R   0.352321 0.683347 0.683994 -0.149657
C29   C     C_R   0.212411 0.673078 0.731946 -0.155300
H14   H     H_    0.108255 0.612098 0.719587 0.148894
C30   C     C_R   0.213759 0.736358 0.797764 0.233885
C31   C     C_R   0.352033 0.815008 0.816151 -0.137406
C32   C     C_R   0.476213 0.830110 0.765209 0.007277
C33   C     C_3   0.689009 0.845110 0.765356 -0.419445
C34   C     C_3   0.690445 0.772631 0.695939 0.130754
H15   H     H_    0.763170 0.815521 0.805293 0.207431
H16   H     H_    0.727108 0.923795 0.764497 0.197292
H17   H     H_    0.763943 0.700308 0.695580 0.130833
C35   C     C_R   0.377014 0.888757 0.393037 -0.149215
H18   H     H_    0.370383 0.837346 0.485117 0.139124
H19   H     H_    0.397108 0.014830 0.314180 0.123384
H20   H     H_    0.387506 0.967078 0.419837 0.117833
C36   C     C_R   0.354482 0.714454 0.396849 -0.032986
C37   C     C_R   0.344649 0.685384 0.071043 -0.145792
C38   C     C_R   0.336091 0.609676 0.106195 -0.116351
C39   C     C_R   0.341162 0.632928 0.176542 -0.154481
C40   C     C_R   0.355514 0.733947 0.214302 0.075548
C41   C     C_R   0.365959 0.812629 0.178218 0.022216
C42   C     C_R   0.359771 0.758968 0.286812 0.075499
C43   C     C_R   0.373647 0.861467 0.321995 0.126786
C44   C     C_R   0.385132 0.936727 0.286552 -0.233360
C45   C     C_R   0.382705 0.913986 0.216323 -0.075778
C46   C     C_R   0.350705 0.685947 0.326146 -0.223007
C47   C     C_R   0.367317 0.815462 0.430289 -0.136219
C48   C     C_R   0.359330 0.786203 0.105609 -0.095766
H21   H     H_    0.340819 0.606403 0.303951 0.091289
H22   H     H_    0.339800 0.665140 0.016170 0.135822
H23   H     H_    0.333388 0.569462 0.199596 0.111523
H24   H     H_    0.325017 0.531867 0.078602 0.122856
O11   O     O_R   0.203450 0.916320 0.913910 -0.526265
O12   O     O_R   0.535520 0.888300 0.047620 -0.536931
O13   O     O_R   0.710860 0.083650 0.086100 -0.522830
C49   C     C_R   0.366892 0.860654 0.063545 0.731322
O14   O     O_R   0.532860 0.904250 0.912040 -0.541459
O15   O     O_R   0.708190 0.099710 0.949550 -0.544493
C50   C     C_R   0.363271 0.881814 0.885066 0.750505
O16   O     O_R   0.206120 0.900260 0.050460 -0.528818
O17   O     O_3   0.375280 0.064080 0.012470 -0.369521
V3    V     V_3+5 0.648180 0.988110 0.997690 1.501929
O18   O     O_R   0.038220 0.111740 0.952370 -0.548380
C51   C     C_R   0.868881 0.138260 0.935852 0.668373
O19   O     O_R   0.040880 0.095790 0.087940 -0.540181
C52   C     C_R   0.872618 0.119367 0.114712 0.695128
V4    V     V_3+5 0.148800 0.011950 0.002300 1.491010
O20   O     O_3   0.871820 0.935920 0.987530 -0.353390
Br1   Br    Br    0.043150 0.701848 0.862847 -0.609879
Br2   Br    Br    0.762783 0.835883 0.623315 -0.589727
C53   C     C_1   0.400148 0.998746 0.186333 0.258452
N1    N     N_1   0.414037 0.066510 0.161695 -0.354915
C54   C     C_1   0.669873 0.389596 0.696048 0.279175
N2    N     N_1   0.560142 0.453707 0.713020 -0.356768

loop_
_geom_bond_atom_site_label_1
_geom_bond_atom_site_label_2
_ccdc_geom_bond_type
O17   V3    S    
H18   C47   S    
C1    C28   S    
O18   C51   A    
C1    O6    A    
O19   C52   A    
O11   C50   A    
C28   C29   A    
C23   C24   A    
C6    C16   A    
C25   H11   S    
C34   H17   S    
C4    C6    S    
C13   C14   A    
C30   Br1   S    
O5    C3    A    
C19   C20   A    
O12   C49   A    
V2    O10   S    
O13   V3    S    
C5    H3    S    
C30   C31   A    
O14   V3    S    
C19   C24   A    
C37   H22   S    
O12   V3    S    
C2    C36   S    
C29   H14   S    
O8    V2    S    
C35   C43   A    
C49   O16   A    
C8    C9    A    
C38   C39   A    
O1    V2    S    
O14   C50   A    
C38   H24   S    
O7    V1    S    
O17   V4    S    
O13   C52   A    
C36   C47   A    
C21   C22   A    
C33   C34   S    
O9    C4    A    
C16   C54   S    
C22   C23   A    
C34   Br2   S    
O19   V4    S    
O15   V3    S    
C26   H12   S    
C39   H23   S    
C36   C46   A    
C7    H4    S    
C6    C17   A    
C29   C30   A    
C33   H15   S    
C9    H5    S    
C42   C43   A    
C12   C16   A    
C35   H20   S    
C9    C10   A    
C40   C42   A    
C20   C21   A    
O4    C2    A    
C20   C52   S    
C26   H13   S    
C10   C11   A    
C24   C25   S    
C15   H7    S    
O2    C1    A    
C43   C44   A    
C14   C15   A    
O11   V4    S    
C11   C18   A    
V4    O20   S    
V3    O20   S    
H19   C44   S    
C44   C45   A    
C19   C26   S    
O3    C4    A    
C27   C32   A    
C21   H8    S    
C11   C15   A    
O6    V2    S    
O9    V2    S    
C35   C47   A    
C45   C53   S    
H1    C17   S    
C22   H9    S    
O2    V1    S    
C18   C51   S    
C53   N1    T    
C27   C28   A    
C7    C18   A    
C25   C26   S    
C33   H16   S    
C31   C50   S    
O1    C2    A    
C5    C13   A    
C40   C41   A    
O5    V1    S    
O8    C3    A    
O15   C51   A    
C10   C12   A    
C54   N2    T    
C32   C33   S    
O4    V1    S    
C48   C49   S    
O3    V1    S    
V1    O10   S    
C46   H21   S    
C31   C32   A    
C41   C48   A    
O18   V4    S    
O7    V2    S    
C37   C38   A    
C25   H10   S    
C39   C40   A    
C27   C34   S    
C8    H6    S    
C42   C46   A    
C12   C13   A    
C5    C17   A    
C41   C45   A    
C7    C8    A    
C3    C23   S    
C37   C48   A    
O16   V4    S    
H2    C14   S    
