data_mof_unit_47489.cif
_audit_creation_date              2012-12-10T18:11:09-0500
_audit_creation_method            fapswitch 2.2
_symmetry_space_group_name_H-M    P1
_symmetry_Int_Tables_number       1
_space_group_crystal_system       triclinic
_cell_length_a                    10.769617
_cell_length_b                    9.554043
_cell_length_c                    10.605111
_cell_angle_alpha                 89.645226
_cell_angle_beta                  90.38897
_cell_angle_gamma                 89.869842
_cell_volume                      1091.14677334

loop_
_atom_site_label
_atom_site_type_symbol
_atom_type_description
_atom_site_fract_x
_atom_site_fract_y
_atom_site_fract_z
_atom_type_partial_charge
C1    C     C_R   0.259999 0.500077 0.500176 0.758535
C2    C     C_3   0.499561 0.501370 0.122581 0.037591
C3    C     C_3   0.072008 0.587087 0.612123 -0.398918
C4    C     C_3   0.071066 0.349338 0.514031 -0.394343
C5    C     C_3   0.928778 0.589029 0.610556 -0.379919
C6    C     C_3   0.929282 0.349607 0.516335 -0.380807
C7    C     C_3   0.070712 0.563740 0.375196 -0.373365
C8    C     C_3   0.121700 0.500256 0.500182 0.173825
C9    C     C_3   0.877996 0.500039 0.499997 0.177588
C10   C     C_3   0.927056 0.561529 0.374242 -0.393755
C11   C     C_3   0.629742 0.082331 0.516342 0.015904
C12   C     C_3   0.628375 0.914181 0.525405 0.012593
C13   C     C_3   0.429332 0.082107 0.612142 0.128318
C14   C     C_3   0.419724 0.916244 0.605388 0.112424
C15   C     C_3   0.451577 0.084703 0.380856 0.074048
C16   C     C_3   0.461625 0.917967 0.377260 0.085689
C17   C     C_R   0.499681 0.500456 0.259732 0.768309
C18   C     C_R   0.739736 0.499906 0.500074 0.745122
C19   C     C_R   0.499796 0.499548 0.740329 0.779374
C20   C     C_3   0.499983 0.633395 0.039564 -0.138270
C21   C     C_3   0.397314 0.434748 0.041930 -0.168587
C22   C     C_3   0.397747 0.566651 0.956619 -0.174805
C23   C     C_3   0.499588 0.498663 0.877431 0.031191
C24   C     C_3   0.601805 0.565288 0.958070 -0.177174
C25   C     C_3   0.499140 0.366635 0.960419 -0.137855
C26   C     C_3   0.601378 0.433393 0.043350 -0.186100
Cu1   Cu    Cu3+1 0.499860 0.642410 0.500060 0.957908
Cu2   Cu    Cu3+1 0.499860 0.357590 0.500060 0.958721
H1    H     H_    0.314538 0.621021 0.917748 0.113103
H2    H     H_    0.891169 0.669851 0.359921 0.154710
H3    H     H_    0.893227 0.497466 0.293768 0.142287
H4    H     H_    0.681813 0.108880 0.428807 0.100734
H5    H     H_    0.689785 0.876545 0.448388 0.118710
H6    H     H_    0.482252 0.102358 0.699705 0.100518
H7    H     H_    0.455766 0.876405 0.697003 0.123339
H8    H     H_    0.514680 0.122234 0.304814 0.101145
H9    H     H_    0.538444 0.896209 0.309862 0.080887
H10   H     H_    0.500446 0.742716 0.074451 0.123067
H11   H     H_    0.313721 0.381532 0.079578 0.113128
H12   H     H_    0.685366 0.618544 0.920375 0.120481
H13   H     H_    0.498766 0.257366 0.925339 0.117150
H14   H     H_    0.684649 0.379088 0.082128 0.110857
H15   H     H_    0.105680 0.696350 0.605661 0.182220
H16   H     H_    0.103429 0.282889 0.434888 0.173224
H17   H     H_    0.106395 0.542388 0.703068 0.146787
H18   H     H_    0.104992 0.303409 0.604372 0.168438
H19   H     H_    0.892825 0.549174 0.702119 0.147076
H20   H     H_    0.899418 0.308388 0.609325 0.175000
H21   H     H_    0.897357 0.698690 0.599174 0.171758
H22   H     H_    0.893235 0.279756 0.440887 0.164159
H23   H     H_    0.103380 0.673465 0.364068 0.160971
H24   H     H_    0.106254 0.503290 0.293573 0.144853
N1    N     N_3   0.500250 0.143650 0.502780 -0.124973
N2    N     N_3   0.500250 0.856350 0.502780 -0.127609
O1    O     O_R   0.317570 0.620260 0.500070 -0.537948
O2    O     O_R   0.317570 0.379740 0.500070 -0.534666
O3    O     O_R   0.499850 0.620240 0.316900 -0.564203
O4    O     O_R   0.499850 0.379760 0.316900 -0.582936
O5    O     O_R   0.682190 0.620260 0.500030 -0.573037
O6    O     O_R   0.682190 0.379740 0.500030 -0.560449
O7    O     O_R   0.499910 0.620280 0.683200 -0.564843
O8    O     O_R   0.499910 0.379720 0.683200 -0.559005
N3    N     N_3   0.702021 0.147678 0.618517 -0.536138
H25   H     H_    0.793162 0.110742 0.613415 0.173451
H26   H     H_    0.671392 0.125031 0.709085 0.191035
N4    N     N_3   0.683698 0.857000 0.642432 -0.537645
H27   H     H_    0.778452 0.879418 0.643366 0.176328
H28   H     H_    0.647430 0.902225 0.723334 0.179583
N5    N     N_3   0.329072 0.142373 0.347161 -0.529144
H29   H     H_    0.257015 0.078733 0.377425 0.172360
H30   H     H_    0.321026 0.147088 0.248839 0.179715
N6    N     N_3   0.355839 0.845434 0.318776 -0.521592
H31   H     H_    0.272641 0.856556 0.365829 0.216801
H32   H     H_    0.342674 0.884405 0.227258 0.164437
N7    N     N_3   0.312646 0.154902 0.637727 -0.536797
H33   H     H_    0.276618 0.118743 0.723291 0.158720
H34   H     H_    0.246153 0.137344 0.568998 0.217550
N8    N     N_3   0.292282 0.862668 0.602080 -0.549609
H35   H     H_    0.255710 0.865237 0.693249 0.167090
H36   H     H_    0.232733 0.922661 0.546649 0.175677

loop_
_geom_bond_atom_site_label_1
_geom_bond_atom_site_label_2
_ccdc_geom_bond_type
C7    C10   S    
N4    H28   S    
N3    H26   S    
N6    H32   S    
C22   H1    S    
C1    C8    S    
C16   N6    S    
C4    C8    S    
C6    C9    S    
Cu2   O2    S    
Cu1   N2    S    
C7    C8    S    
C4    H18   S    
C5    H19   S    
C3    H15   S    
C6    H20   S    
C15   N1    S    
C1    O2    A    
C24   C26   S    
C7    H24   S    
C11   N3    S    
Cu1   O1    S    
C19   O8    A    
C15   C16   S    
N5    H30   S    
Cu1   O7    S    
C10   H3    S    
C13   N7    S    
C23   C24   S    
C9    C10   S    
C11   N1    S    
C16   H9    S    
C23   C25   S    
N4    H27   S    
C21   C22   S    
C2    C17   S    
C5    H21   S    
C13   N1    S    
Cu2   O6    S    
C15   N5    S    
C2    C20   S    
C20   C24   S    
C4    C6    S    
C3    C8    S    
Cu1   O3    S    
C25   H13   S    
C14   H7    S    
N8    H35   S    
C4    H16   S    
C25   C26   S    
C12   N4    S    
C3    H17   S    
C19   C23   S    
N7    H33   S    
C5    C9    S    
C20   H10   S    
C10   H2    S    
C21   H11   S    
C11   C12   S    
C2    C21   S    
C2    C26   S    
C6    H22   S    
N7    H34   S    
C18   O6    A    
C14   N2    S    
C20   C22   S    
C11   H4    S    
C15   H8    S    
C26   H14   S    
C21   C25   S    
N6    H31   S    
C3    C5    S    
Cu2   N1    S    
Cu2   O4    S    
C17   O4    A    
C1    O1    A    
C7    H23   S    
C13   H6    S    
Cu1   O5    S    
C9    C18   S    
C19   O7    A    
C24   H12   S    
N8    H36   S    
C14   N8    S    
N5    H29   S    
C16   N2    S    
N3    H25   S    
C18   O5    A    
Cu1   Cu2   S    
C22   C23   S    
C12   H5    S    
C13   C14   S    
C12   N2    S    
C17   O3    A    
Cu2   O8    S    
