data_mof_unit_12682.cif
_audit_creation_date              2012-12-11T16:13:43-0500
_audit_creation_method            fapswitch 2.2
_symmetry_space_group_name_H-M    P1
_symmetry_Int_Tables_number       1
_space_group_crystal_system       triclinic
_cell_length_a                    26.033141
_cell_length_b                    7.255759
_cell_length_c                    23.837868
_cell_angle_alpha                 90.000294
_cell_angle_beta                  101.344965
_cell_angle_gamma                 90.001687
_cell_volume                      4414.75866552

loop_
_atom_site_label
_atom_site_type_symbol
_atom_type_description
_atom_site_fract_x
_atom_site_fract_y
_atom_site_fract_z
_atom_type_partial_charge
O1    O     O_R   0.192370 0.384760 0.193350 -0.533076
O2    O     O_R   0.807630 0.615240 0.806650 -0.533758
O3    O     O_R   0.307630 0.884760 0.306650 -0.533081
O4    O     O_R   0.692370 0.115240 0.693350 -0.533740
O5    O     O_R   0.296630 0.711620 0.196480 -0.509042
O6    O     O_R   0.703370 0.288380 0.803520 -0.506723
O7    O     O_R   0.203370 0.211620 0.303520 -0.509027
O8    O     O_R   0.796630 0.788380 0.696480 -0.506725
C1    C     C_R   0.312186 0.545698 0.183643 0.714394
C2    C     C_R   0.687309 0.454305 0.815786 0.715035
C3    C     C_R   0.187816 0.045695 0.316360 0.714468
C4    C     C_R   0.812686 0.954308 0.684208 0.715002
O9    O     O_R   0.192080 0.714290 0.186600 -0.535273
O10   O     O_R   0.807920 0.285710 0.813400 -0.536140
O11   O     O_R   0.307920 0.214290 0.313400 -0.535278
O12   O     O_R   0.692080 0.785710 0.686600 -0.536140
O13   O     O_R   0.202340 0.887460 0.296690 -0.545205
O14   O     O_R   0.797660 0.112540 0.703310 -0.548019
O15   O     O_R   0.297660 0.387460 0.203310 -0.545226
O16   O     O_R   0.702340 0.612540 0.796690 -0.547992
C5    C     C_R   0.173877 0.545865 0.171228 0.709643
C6    C     C_R   0.826044 0.454068 0.828917 0.702084
C7    C     C_R   0.326121 0.045868 0.328774 0.709664
C8    C     C_R   0.673958 0.954062 0.671081 0.702048
O17   O     O_3   0.253490 0.552180 0.286130 -0.380947
O18   O     O_3   0.746510 0.447820 0.713870 -0.372593
O19   O     O_3   0.246510 0.052180 0.213870 -0.380937
O20   O     O_3   0.753490 0.947820 0.786130 -0.372579
V1    V     V_3+5 0.249350 0.825920 0.243300 1.442285
V2    V     V_3+5 0.750650 0.174080 0.756700 1.465246
V3    V     V_3+5 0.250650 0.325920 0.256700 1.442266
V4    V     V_3+5 0.749350 0.674080 0.743300 1.465241
C9    C     C_3   0.533034 0.885597 0.483881 0.518341
C10   C     C_3   0.465359 0.109232 0.517403 0.497544
C11   C     C_3   0.966972 0.385529 0.016098 0.518262
C12   C     C_3   0.034626 0.609405 0.982637 0.497544
C13   C     C_3   0.512957 0.066378 0.452976 -0.288094
C14   C     C_3   0.485483 0.928812 0.548610 -0.291696
C15   C     C_3   0.987027 0.566266 0.047047 -0.288019
C16   C     C_3   0.014523 0.429035 0.951385 -0.291082
H1    H     H_    0.524457 0.119256 0.413676 0.134884
H2    H     H_    0.474146 0.874076 0.587920 0.140839
H3    H     H_    0.975522 0.619020 0.086358 0.134875
H4    H     H_    0.025872 0.374509 0.912057 0.140746
H5    H     H_    0.539182 0.304322 0.521261 0.142219
H6    H     H_    0.459241 0.690661 0.480127 0.139632
H7    H     H_    0.960763 0.804329 0.978825 0.142114
H8    H     H_    0.040785 0.190732 0.019803 0.139571
C17   C     C_1   0.371520 0.036474 0.374978 -0.178971
C18   C     C_1   0.628159 0.962422 0.625271 -0.158832
C19   C     C_1   0.128474 0.536462 0.125031 -0.178974
C20   C     C_1   0.871842 0.462452 0.874727 -0.158839
C21   C     C_3   0.477206 0.828714 0.489650 -0.258078
C22   C     C_3   0.521282 0.166116 0.511754 -0.279054
C23   C     C_3   0.022805 0.328775 0.010317 -0.258095
C24   C     C_3   0.978695 0.666161 0.988294 -0.279577
C25   C     C_3   0.456948 0.011144 0.459369 0.069838
C26   C     C_3   0.541638 0.983546 0.542028 0.064232
C27   C     C_3   0.043043 0.511154 0.040643 0.069935
C28   C     C_3   0.958360 0.483629 0.957976 0.064164
C29   C     C_1   0.409828 0.026311 0.413250 0.007038
C30   C     C_1   0.589364 0.970521 0.587506 0.007185
C31   C     C_1   0.090163 0.526302 0.086763 0.007106
C32   C     C_1   0.910636 0.470582 0.912494 0.007100
C33   C     C_R   0.854971 0.131813 0.615005 -0.264724
C34   C     C_R   0.122516 0.870162 0.360167 -0.265164
C35   C     C_R   0.645019 0.631810 0.884983 -0.264602
C36   C     C_R   0.377479 0.370152 0.139831 -0.265200
H9    H     H_    0.829984 0.246745 0.620807 0.204484
H10   H     H_    0.128839 0.753159 0.334091 0.191734
H11   H     H_    0.670011 0.746738 0.879185 0.204475
H12   H     H_    0.371147 0.253141 0.165899 0.191753
C37   C     C_R   0.890657 0.151969 0.577857 -0.024104
C38   C     C_R   0.086971 0.852112 0.397358 -0.012492
C39   C     C_R   0.609336 0.651961 0.922132 -0.024088
C40   C     C_R   0.413027 0.352100 0.102643 -0.012514
C41   C     C_R   0.923292 0.000774 0.570457 -0.103585
C42   C     C_R   0.077724 0.004892 0.431292 -0.109862
C43   C     C_R   0.576699 0.500763 0.929531 -0.103604
C44   C     C_R   0.422281 0.504881 0.068713 -0.109887
C45   C     C_R   0.918308 0.834924 0.598952 -0.239960
C46   C     C_R   0.106803 0.166831 0.429001 -0.233829
C47   C     C_R   0.581672 0.334927 0.901025 -0.239971
C48   C     C_R   0.393216 0.666838 0.071015 -0.233782
H13   H     H_    0.942398 0.717921 0.592518 0.164493
H14   H     H_    0.100674 0.284492 0.454804 0.188369
H15   H     H_    0.557573 0.217933 0.907449 0.164468
H16   H     H_    0.399353 0.784503 0.045218 0.188405
C49   C     C_R   0.883262 0.816877 0.636510 0.446165
C50   C     C_R   0.143173 0.182707 0.392865 0.423967
C51   C     C_R   0.616713 0.316892 0.863460 0.446184
C52   C     C_R   0.356852 0.682731 0.107156 0.423945
C53   C     C_R   0.850621 0.966134 0.644605 -0.161436
C54   C     C_R   0.150538 0.034469 0.356714 -0.160877
C55   C     C_R   0.649367 0.466133 0.855380 -0.161497
C56   C     C_R   0.349469 0.534475 0.143292 -0.160889
N1    N     N_R   0.954580 0.913497 0.483086 -0.248641
N2    N     N_R   0.044654 0.099568 0.517596 -0.267617
N3    N     N_R   0.545415 0.413471 0.016903 -0.248634
N4    N     N_R   0.455344 0.599552 0.982405 -0.267626
N5    N     N_R   0.990911 0.913111 0.450676 -0.242661
N6    N     N_R   0.008256 0.100637 0.549939 -0.247223
N7    N     N_R   0.509088 0.413085 0.049318 -0.242647
N8    N     N_R   0.491740 0.600620 0.950058 -0.247246
C57   C     C_R   0.037041 0.004108 0.467534 0.577647
C58   C     C_R   0.962505 0.007815 0.533219 0.590575
C59   C     C_R   0.462959 0.504088 0.032465 0.577645
C60   C     C_R   0.537488 0.507794 0.966773 0.590588
O21   O     O_3   0.570604 0.765102 0.468519 -0.567952
C61   C     C_3   0.557453 0.719018 0.409653 0.084945
H17   H     H_    0.593115 0.737822 0.391215 0.154089
H18   H     H_    0.526432 0.806835 0.383821 0.105757
C62   C     C_3   0.540369 0.517532 0.402411 -0.327684
H19   H     H_    0.572793 0.427530 0.424137 0.211677
H20   H     H_    0.505796 0.494797 0.422411 0.198622
C63   C     C_3   0.525938 0.465502 0.339142 -0.795800
H21   H     H_    0.493183 0.553007 0.316848 0.234410
H22   H     H_    0.513238 0.319445 0.334574 0.229733
H23   H     H_    0.560282 0.483390 0.318425 0.240692
O22   O     O_3   0.426896 0.228094 0.531395 -0.573536
C64   C     C_3   0.444420 0.301022 0.586662 0.062848
H24   H     H_    0.482574 0.373674 0.589736 0.117651
H25   H     H_    0.448641 0.189087 0.619216 0.124444
C65   C     C_3   0.404073 0.440054 0.599165 -0.284505
H26   H     H_    0.399756 0.552810 0.566979 0.204318
H27   H     H_    0.365517 0.370689 0.595847 0.204702
C66   C     C_3   0.420468 0.522645 0.658843 -0.839982
H28   H     H_    0.424044 0.412852 0.691866 0.236330
H29   H     H_    0.390558 0.623742 0.666446 0.239321
H30   H     H_    0.458577 0.594701 0.662715 0.228245
O23   O     O_3   0.929412 0.264906 0.031426 -0.567974
C67   C     C_3   0.942535 0.218810 0.090293 0.084959
H31   H     H_    0.906843 0.237378 0.108693 0.154090
H32   H     H_    0.973500 0.306772 0.116157 0.105775
C68   C     C_3   0.959704 0.017416 0.097546 -0.327759
H33   H     H_    0.927318 0.927256 0.075817 0.211636
H34   H     H_    0.994292 0.994879 0.077558 0.198640
C69   C     C_3   0.974143 0.965429 0.160818 -0.795786
H35   H     H_    0.006849 0.053130 0.183120 0.234404
H36   H     H_    0.986918 0.819455 0.165395 0.229737
H37   H     H_    0.939782 0.983073 0.181521 0.240680
O24   O     O_3   0.073125 0.728193 0.968682 -0.573519
C70   C     C_3   0.055451 0.802498 0.913627 0.062837
H38   H     H_    0.017612 0.876771 0.911088 0.117965
H39   H     H_    0.050561 0.691201 0.880827 0.124100
C71   C     C_3   0.096123 0.940006 0.900981 -0.284510
H40   H     H_    0.101113 0.052110 0.933413 0.204527
H41   H     H_    0.134378 0.868987 0.903771 0.204654
C72   C     C_3   0.079558 0.024165 0.841542 -0.839934
H42   H     H_    0.075179 0.914996 0.808265 0.236252
H43   H     H_    0.109778 0.123786 0.833786 0.239388
H44   H     H_    0.041822 0.098256 0.838265 0.228270
C73   C     C_2   0.890728 0.329555 0.546222 0.796081
O25   O     O_2   0.925903 0.366946 0.520910 -0.535137
O26   O     O_R   0.849709 0.455031 0.545008 -0.649505
H45   H     H_    0.853445 0.568950 0.521504 0.312172
C74   C     C_2   0.062393 0.669010 0.400996 0.815145
O27   O     O_2   0.054001 0.612583 0.446684 -0.541554
O28   O     O_R   0.050626 0.557539 0.352285 -0.657657
H46   H     H_    0.034137 0.435905 0.359982 0.305046
C75   C     C_2   0.609267 0.829547 0.953769 0.796075
O29   O     O_2   0.574107 0.866895 0.979107 -0.535126
O30   O     O_R   0.650272 0.955074 0.954956 -0.649544
H47   H     H_    0.646541 0.068986 0.978465 0.312159
C76   C     C_2   0.437602 0.169000 0.099006 0.815160
O31   O     O_2   0.445993 0.112568 0.053318 -0.541577
O32   O     O_R   0.449371 0.057542 0.147718 -0.657625
H48   H     H_    0.465863 0.935914 0.140023 0.305050
O33   O     O_3   0.879574 0.649286 0.662987 -0.554620
C77   C     C_3   0.921936 0.632507 0.709847 0.069517
H49   H     H_    0.916676 0.730853 0.744181 0.104631
H50   H     H_    0.960317 0.659798 0.697305 0.115586
C78   C     C_3   0.923105 0.436129 0.733019 -0.251103
H51   H     H_    0.884793 0.403563 0.744421 0.192480
H52   H     H_    0.929566 0.337743 0.699364 0.198101
C79   C     C_3   0.966642 0.411818 0.785570 -0.885098
H53   H     H_    0.005590 0.423063 0.773437 0.240978
H54   H     H_    0.963097 0.273828 0.804519 0.229262
H55   H     H_    0.963648 0.518311 0.818204 0.228508
O34   O     O_3   0.168897 0.348581 0.390906 -0.560382
C80   C     C_3   0.213243 0.352463 0.435835 0.083602
H56   H     H_    0.241700 0.243788 0.429089 0.106616
H57   H     H_    0.201949 0.330755 0.478124 0.118510
C81   C     C_3   0.239641 0.540898 0.436599 -0.267130
H58   H     H_    0.249585 0.568357 0.394208 0.218651
H59   H     H_    0.212075 0.649704 0.445091 0.192513
C82   C     C_3   0.289671 0.550113 0.482304 -0.852478
H60   H     H_    0.280656 0.526676 0.525391 0.234064
H61   H     H_    0.307842 0.688372 0.481615 0.233219
H62   H     H_    0.318178 0.444606 0.473939 0.251595
O35   O     O_3   0.620364 0.149351 0.836941 -0.554636
C83   C     C_3   0.577986 0.132746 0.790089 0.069568
H63   H     H_    0.583244 0.231208 0.755783 0.104600
H64   H     H_    0.539616 0.160014 0.802659 0.115625
C84   C     C_3   0.576781 0.936450 0.766844 -0.251104
H65   H     H_    0.615082 0.903897 0.755416 0.192382
H66   H     H_    0.570320 0.837941 0.800469 0.198046
C85   C     C_3   0.533226 0.912385 0.714294 -0.884945
H67   H     H_    0.494286 0.923585 0.726446 0.240859
H68   H     H_    0.536747 0.774487 0.695275 0.229211
H69   H     H_    0.536223 0.019023 0.681703 0.228497
O36   O     O_3   0.331161 0.848653 0.109139 -0.560391
C86   C     C_3   0.286786 0.852598 0.064245 0.083695
H70   H     H_    0.258293 0.744151 0.071069 0.106745
H71   H     H_    0.298025 0.830584 0.021942 0.118381
C87   C     C_3   0.260487 0.041213 0.063435 -0.267123
H72   H     H_    0.250642 0.069060 0.105852 0.218680
H73   H     H_    0.288075 0.149758 0.054814 0.192486
C88   C     C_3   0.210394 0.050446 0.017822 -0.852589
H74   H     H_    0.219308 0.026583 0.974710 0.234140
H75   H     H_    0.192302 0.188851 0.018465 0.233162
H76   H     H_    0.181863 0.945229 0.026326 0.251504

loop_
_geom_bond_atom_site_label_1
_geom_bond_atom_site_label_2
_ccdc_geom_bond_type
O17   V3    S    
H8    C23   S    
N3    N7    A    
C86   H70   S    
O1    C5    A    
C9    C26   S    
C16   C28   S    
C23   C27   S    
O19   V1    S    
O13   V1    S    
O33   C77   S    
O3    C7    A    
O30   H47   S    
C52   C56   A    
C44   C48   A    
C12   C27   S    
O15   V3    S    
C75   O29   D    
O4    V2    S    
C68   H33   S    
C78   H51   S    
C81   H58   S    
O7    C3    A    
N3    C60   A    
C86   H71   S    
C44   C59   S    
C76   O31   D    
N2    C57   A    
C42   C57   S    
C6    C20   S    
C41   C58   S    
C71   H40   S    
C72   H43   S    
O16   V4    S    
O4    C8    A    
C82   H61   S    
C87   H73   S    
C7    C17   S    
C77   H49   S    
C70   H38   S    
C34   C38   A    
C70   H39   S    
O1    V3    S    
C88   H76   S    
C33   C37   A    
C63   H21   S    
O2    V4    S    
O3    V1    S    
C12   O24   S    
C61   H17   S    
C82   H62   S    
C14   C26   S    
C1    O15   A    
C79   H55   S    
O28   H46   S    
C2    O16   A    
C67   H31   S    
C64   C65   S    
O2    C6    A    
C10   C25   S    
O12   V4    S    
C85   H67   S    
O14   V2    S    
C73   O26   S    
O5    V1    S    
C36   H12   S    
C34   C54   A    
C62   C63   S    
C45   C49   A    
N8    C60   A    
O11   C7    A    
O12   C8    A    
C8    C18   S    
C76   O32   S    
O10   V2    S    
C75   O30   S    
C50   C54   A    
C71   H41   S    
C78   H52   S    
C9    C21   S    
C80   H57   S    
C86   C87   S    
C50   O34   S    
N5    C57   A    
O7    V3    S    
O36   C86   S    
C11   C23   S    
O35   C83   S    
O8    V4    S    
C83   C84   S    
C48   H16   S    
C12   C16   S    
C17   C29   T    
C20   C32   T    
C72   H44   S    
O32   H48   S    
C21   C25   S    
C87   H72   S    
C15   H3    S    
N4    N8    A    
C80   H56   S    
C51   O35   S    
O11   V3    S    
C49   C53   A    
C9    C13   S    
C24   C28   S    
C74   O27   D    
C11   C28   S    
C83   H64   S    
C11   C15   S    
C66   H29   S    
O5    C1    A    
C12   C24   S    
N2    N6    A    
C71   C72   S    
C42   C46   A    
N1    N5    A    
C81   H59   S    
C15   C24   S    
C61   C62   S    
C41   C45   A    
O8    C4    A    
C16   C23   S    
C15   C27   S    
C85   H69   S    
C88   H74   S    
C19   C31   T    
C40   C76   S    
C36   C56   A    
C25   C29   S    
C1    C56   S    
C64   H24   S    
C68   C69   S    
C69   H36   S    
C26   C30   S    
C65   C66   S    
N1    C58   A    
C3    C54   S    
C67   H32   S    
C79   H53   S    
O6    V2    S    
C35   C55   A    
H5    C22   S    
C10   C22   S    
C18   C30   T    
C4    C53   S    
C9    O21   S    
C70   C71   S    
C13   C22   S    
C37   C73   S    
C66   H28   S    
C11   O23   S    
C5    C19   S    
C52   O36   S    
O34   C80   S    
C65   H27   S    
C62   H19   S    
C22   C26   S    
C78   C79   S    
O9    V1    S    
C68   H34   S    
C3    O13   A    
N4    C59   A    
C80   C81   S    
C38   C74   S    
C10   C14   S    
C40   C44   A    
C69   H37   S    
C47   H15   S    
O6    C2    A    
N7    C59   A    
C63   H23   S    
C13   C25   S    
O18   V4    S    
C36   C40   A    
C47   C51   A    
C27   C31   S    
C46   C50   A    
C81   C82   S    
C39   C75   S    
C28   C32   S    
C83   H63   S    
O10   C6    A    
O20   V2    S    
C66   H30   S    
C49   O33   S    
C82   H60   S    
C46   H14   S    
C72   H42   S    
O9    C5    A    
C43   C47   A    
C87   C88   S    
C34   H10   S    
C14   C21   S    
C77   H50   S    
C2    C55   S    
C67   C68   S    
C33   H9    S    
H6    C21   S    
C79   H54   S    
C33   C53   A    
C88   H75   S    
C63   H22   S    
C43   C60   S    
N6    C58   A    
C35   H11   S    
C13   H1    S    
C61   H18   S    
C64   H25   S    
C69   H35   S    
C51   C55   A    
C84   H65   S    
C14   H2    S    
C16   H4    S    
C35   C39   A    
C84   C85   S    
C10   O22   S    
C74   O28   S    
C38   C42   A    
C4    O14   A    
O26   H45   S    
O24   C70   S    
C37   C41   A    
O22   C64   S    
H7    C24   S    
C85   H68   S    
C48   C52   A    
C62   H20   S    
C73   O25   D    
O21   C61   S    
C39   C43   A    
C45   H13   S    
O23   C67   S    
C65   H26   S    
C84   H66   S    
C77   C78   S    
