data_mof_unit_39439.cif
_audit_creation_date              2012-12-10T19:47:19-0500
_audit_creation_method            fapswitch 2.2
_symmetry_space_group_name_H-M    P1
_symmetry_Int_Tables_number       1
_space_group_crystal_system       triclinic
_cell_length_a                    14.960663
_cell_length_b                    14.11194
_cell_length_c                    10.618855
_cell_angle_alpha                 89.930586
_cell_angle_beta                  89.847289
_cell_angle_gamma                 90.104023
_cell_volume                      2241.88159959

loop_
_atom_site_label
_atom_site_type_symbol
_atom_type_description
_atom_site_fract_x
_atom_site_fract_y
_atom_site_fract_z
_atom_type_partial_charge
C1    C     C_R   0.327529 0.499956 0.499315 0.924223
C2    C     C_R   0.951465 0.502525 0.471020 0.003383
C3    C     C_R   0.462305 0.104605 0.399624 0.377681
C4    C     C_R   0.540884 0.104279 0.599214 0.383064
C5    C     C_R   0.461811 0.204463 0.402882 -0.148146
C6    C     C_R   0.538187 0.204686 0.597463 -0.157826
C7    C     C_R   0.500679 0.053462 0.499999 0.005603
C8    C     C_R   0.580623 0.896113 0.483634 0.341964
C9    C     C_R   0.420345 0.895759 0.515528 0.369215
C10   C     C_R   0.578614 0.795768 0.487468 -0.111369
C11   C     C_R   0.421655 0.795947 0.512369 -0.094322
C12   C     C_R   0.672294 0.500127 0.498646 0.915342
C13   C     C_R   0.500536 0.946980 0.499995 0.007382
C14   C     C_R   0.511252 0.500291 0.260207 0.922452
C15   C     C_R   0.489646 0.500244 0.740120 0.919516
C16   C     C_R   0.560334 0.673717 0.103863 0.418115
C17   C     C_R   0.445982 0.674688 0.896162 0.419710
C18   C     C_R   0.535581 0.759469 0.048053 -0.262171
C19   C     C_R   0.474051 0.760058 0.949753 -0.257727
C20   C     C_R   0.481110 0.587820 0.941676 -0.033149
C21   C     C_R   0.523308 0.587554 0.058721 -0.033263
C22   C     C_R   0.522995 0.500968 0.125816 -0.068152
C23   C     C_R   0.231588 0.500020 0.493205 -0.088403
C24   C     C_R   0.479812 0.501105 0.874825 -0.067903
C25   C     C_R   0.510491 0.414860 0.063376 -0.215985
C26   C     C_R   0.492408 0.414942 0.937242 -0.216621
C27   C     C_R   0.095797 0.578346 0.433617 -0.264873
C28   C     C_R   0.907896 0.575009 0.536338 -0.262827
C29   C     C_R   0.187692 0.578996 0.443363 -0.159749
C30   C     C_R   0.815894 0.574747 0.544262 -0.175926
C31   C     C_3   0.706146 0.917098 0.360701 0.097499
C32   C     C_3   0.768011 0.996724 0.318586 -0.822730
C33   C     C_3   0.321842 0.951752 0.659536 0.086159
C34   C     C_R   0.767805 0.500799 0.489217 -0.076903
C35   C     C_3   0.240234 0.014434 0.677323 -0.771909
C36   C     C_3   0.025699 0.353994 0.700436 0.076635
C37   C     C_3   0.963292 0.275098 0.743540 -0.790403
C38   C     C_3   0.959195 0.392877 0.217082 0.076823
C39   C     C_3   0.011262 0.318511 0.143998 -0.781406
C40   C     C_3   0.478912 0.057071 0.196833 0.084434
C41   C     C_3   0.434382 0.004087 0.089268 -0.804629
C42   C     C_3   0.660903 0.082695 0.735045 0.177668
C43   C     C_3   0.661402 0.122711 0.868253 -0.914027
C44   C     C_R   0.183657 0.420638 0.534530 -0.305251
C45   C     C_R   0.810899 0.429246 0.421399 -0.295633
C46   C     C_R   0.091116 0.420830 0.528755 0.552416
C47   C     C_R   0.903061 0.431298 0.408650 0.556998
C48   C     C_R   0.047675 0.499427 0.475375 0.013376
Cl1   Cl    Cl    0.649464 0.675894 0.212247 -0.695832
Cl2   Cl    Cl    0.355151 0.678630 0.790691 -0.681241
H1    H     H_    0.513194 0.347375 0.112059 0.160519
H2    H     H_    0.782473 0.630562 0.596117 0.159360
H3    H     H_    0.217584 0.359451 0.573319 0.173392
H4    H     H_    0.773159 0.373114 0.376431 0.166697
H5    H     H_    0.430545 0.243712 0.327384 0.164127
H6    H     H_    0.565896 0.244792 0.674703 0.160056
H7    H     H_    0.659987 0.901069 0.281047 0.151855
H8    H     H_    0.747411 0.853543 0.381365 0.180435
H9    H     H_    0.816446 0.013645 0.394437 0.265916
H10   H     H_    0.805404 0.974814 0.232997 0.219908
H11   H     H_    0.728314 0.061061 0.296459 0.243769
H12   H     H_    0.489243 0.347509 0.888685 0.165410
H13   H     H_    0.378767 0.985160 0.710746 0.155914
H14   H     H_    0.307313 0.881070 0.701627 0.184557
H15   H     H_    0.181582 0.982582 0.629296 0.263346
H16   H     H_    0.224998 0.021665 0.779268 0.203676
H17   H     H_    0.253306 0.085892 0.637220 0.260188
H18   H     H_    0.992296 0.422984 0.720333 0.138835
H19   H     H_    0.088728 0.349432 0.755677 0.139901
H20   H     H_    0.899720 0.278303 0.689862 0.259508
H21   H     H_    0.948185 0.283163 0.845372 0.197567
H22   H     H_    0.995199 0.205077 0.727876 0.259598
H23   H     H_    0.640241 0.756505 0.480221 0.180621
H24   H     H_    0.998582 0.460009 0.215165 0.143229
H25   H     H_    0.893939 0.404349 0.169108 0.141292
H26   H     H_    0.972653 0.251277 0.140282 0.255012
H27   H     H_    0.023603 0.343855 0.046444 0.193541
H28   H     H_    0.076553 0.305258 0.190318 0.268205
H29   H     H_    0.542779 0.020500 0.219761 0.134362
H30   H     H_    0.493591 0.130568 0.164227 0.129215
H31   H     H_    0.417513 0.930830 0.119473 0.264382
H32   H     H_    0.480315 0.000887 0.007064 0.211075
H33   H     H_    0.372132 0.041040 0.060815 0.260935
H34   H     H_    0.359513 0.757438 0.521643 0.191597
H35   H     H_    0.692647 0.134418 0.669002 0.124015
H36   H     H_    0.703953 0.018665 0.733701 0.187068
H37   H     H_    0.636676 0.068496 0.935858 0.259939
H38   H     H_    0.730558 0.143136 0.894717 0.222465
H39   H     H_    0.617916 0.186192 0.874218 0.247367
H40   H     H_    0.562554 0.825735 0.082642 0.176103
H41   H     H_    0.449352 0.826831 0.913691 0.180551
H42   H     H_    0.061998 0.639264 0.393876 0.169663
H43   H     H_    0.945335 0.630117 0.583915 0.169057
H44   H     H_    0.224425 0.640420 0.410160 0.168918
N1    N     N_R   0.500000 0.252470 0.500000 -0.127329
N2    N     N_R   0.500000 0.747550 0.500000 -0.116821
O1    O     O_R   0.369060 0.579480 0.500010 -0.606428
O2    O     O_3   0.340191 0.942997 0.529600 -0.573050
O3    O     O_3   0.043506 0.342850 0.570712 -0.577082
O4    O     O_3   0.945708 0.360652 0.341581 -0.579264
O5    O     O_3   0.420955 0.057216 0.301952 -0.565697
O6    O     O_3   0.573011 0.054511 0.702493 -0.620084
O7    O     O_R   0.630940 0.579480 0.499990 -0.603144
O8    O     O_R   0.369050 0.420520 0.500010 -0.619050
O9    O     O_R   0.630950 0.420520 0.499990 -0.626506
O10   O     O_R   0.500000 0.579490 0.316770 -0.578217
O11   O     O_R   0.500000 0.579490 0.683230 -0.578516
O12   O     O_R   0.499990 0.420540 0.316770 -0.643103
O13   O     O_R   0.500010 0.420540 0.683230 -0.640323
O14   O     O_3   0.660120 0.945909 0.470555 -0.621922
Zn1   Zn    Zn3+2 0.500000 0.606140 0.500000 1.008280
Zn2   Zn    Zn3+2 0.500000 0.393860 0.500000 0.943824

loop_
_geom_bond_atom_site_label_1
_geom_bond_atom_site_label_2
_ccdc_geom_bond_type
C27   C48   A    
C11   N2    A    
C7    C13   S    
C46   O3    S    
C9    O2    S    
C27   C29   A    
C15   O13   A    
C43   H39   S    
C43   H38   S    
C23   C29   A    
C31   H8    S    
C36   C37   S    
C24   C26   A    
C32   H11   S    
C18   C19   A    
C3    C7    A    
N1    Zn2   S    
C12   O9    A    
O1    Zn1   S    
C10   H23   S    
C35   H15   S    
C41   H33   S    
C17   C20   A    
O7    Zn1   S    
C33   O2    S    
C15   O11   A    
C9    C13   A    
C17   C19   A    
C40   O5    S    
C44   H3    S    
C20   C24   A    
C22   C25   A    
C4    O6    S    
C40   H30   S    
C42   H36   S    
C35   H17   S    
C38   H25   S    
C3    O5    S    
C14   O12   A    
C21   C22   A    
C4    C7    A    
C42   O6    S    
C5    N1    A    
C44   C46   A    
O10   Zn1   S    
C45   C47   A    
N2    Zn1   S    
C46   C48   A    
C30   C34   A    
C18   H40   S    
C39   H28   S    
C16   Cl1   S    
C12   O7    A    
C38   O4    S    
O13   Zn2   S    
C1    O1    A    
C34   C45   A    
C35   H16   S    
C2    C48   S    
C25   C26   A    
C23   C44   A    
O12   Zn2   S    
C28   H43   S    
C25   H1    S    
C8    O14   S    
C31   C32   S    
C10   N2    A    
C33   H13   S    
C41   H31   S    
C40   H29   S    
C27   H42   S    
C42   H35   S    
C39   H26   S    
C9    C11   A    
C1    O8    A    
C4    C6    A    
C40   C41   S    
O9    Zn2   S    
C45   H4    S    
C1    C23   S    
C37   H21   S    
C29   H44   S    
C11   H34   S    
C42   C43   S    
C32   H10   S    
C12   C34   S    
C39   H27   S    
C36   H19   S    
O8    Zn2   S    
C38   H24   S    
C30   H2    S    
C15   C24   S    
O11   Zn1   S    
C5    H5    S    
C16   C18   A    
C6    H6    S    
C3    C5    A    
C17   Cl2   S    
C36   H18   S    
C16   C21   A    
C2    C47   A    
C43   H37   S    
C14   C22   S    
C28   C30   A    
C26   H12   S    
C31   H7    S    
C38   C39   S    
C33   H14   S    
C41   H32   S    
C33   C35   S    
C31   O14   S    
C36   O3    S    
C19   H41   S    
C47   O4    S    
C8    C13   A    
C14   O10   A    
C20   C21   A    
C8    C10   A    
C6    N1    A    
C37   H22   S    
C2    C28   A    
C32   H9    S    
C37   H20   S    
