data_mof_unit_28100.cif
_audit_creation_date              2012-12-10T19:07:07-0500
_audit_creation_method            fapswitch 2.2
_symmetry_space_group_name_H-M    P1
_symmetry_Int_Tables_number       1
_space_group_crystal_system       triclinic
_cell_length_a                    27.815315
_cell_length_b                    10.809894
_cell_length_c                    9.550223
_cell_angle_alpha                 89.826411
_cell_angle_beta                  89.75355
_cell_angle_gamma                 90.320294
_cell_volume                      2871.48202412

loop_
_atom_site_label
_atom_site_type_symbol
_atom_type_description
_atom_site_fract_x
_atom_site_fract_y
_atom_site_fract_z
_atom_type_partial_charge
C1    C     C_R   0.499133 0.262347 0.500149 0.797810
C2    C     C_R   0.974159 0.385830 0.520060 0.043395
C3    C     C_R   0.974715 0.614165 0.505800 0.043438
C4    C     C_R   0.407560 0.498510 0.500251 0.821228
C5    C     C_R   0.949191 0.499989 0.512226 0.067289
C6    C     C_R   0.946940 0.274734 0.519562 -0.204579
C7    C     C_R   0.897044 0.275925 0.516296 -0.144716
C8    C     C_R   0.872170 0.387646 0.512857 -0.019961
C9    C     C_R   0.898055 0.499960 0.510599 -0.044268
C10   C     C_R   0.872666 0.612235 0.506553 -0.019662
C11   C     C_R   0.822189 0.610153 0.505133 0.533635
C12   C     C_R   0.277923 0.438678 0.398509 -0.173206
C13   C     C_R   0.821713 0.389634 0.510362 0.533957
C14   C     C_R   0.720237 0.458307 0.621836 -0.098392
C15   C     C_R   0.670125 0.458238 0.620045 -0.222538
C16   C     C_R   0.499157 0.737648 0.499848 0.795315
C17   C     C_R   0.671637 0.541156 0.383876 -0.220849
C18   C     C_R   0.721765 0.541227 0.385811 -0.097332
C19   C     C_R   0.746251 0.499772 0.504753 0.351969
C20   C     C_R   0.025214 0.386202 0.526748 0.043473
C21   C     C_R   0.050764 0.499941 0.513957 0.067971
C22   C     C_R   0.025820 0.613774 0.500965 0.043327
C23   C     C_R   0.253751 0.498469 0.507677 0.321768
C24   C     C_R   0.051882 0.276378 0.546555 -0.204967
C25   C     C_R   0.103044 0.721991 0.480438 -0.145841
C26   C     C_R   0.947961 0.725236 0.505028 -0.204623
C27   C     C_R   0.898035 0.723990 0.505111 -0.144954
C28   C     C_R   0.592491 0.499983 0.499957 0.795953
C29   C     C_R   0.053126 0.723586 0.482199 -0.204688
C30   C     C_R   0.498210 0.063250 0.625860 0.123350
C31   C     C_R   0.494495 0.129177 0.500640 -0.096153
C32   C     C_R   0.484273 0.064709 0.376487 -0.220213
C33   C     C_R   0.484327 0.935714 0.376257 -0.208516
C34   C     C_R   0.101906 0.499796 0.513835 -0.044290
C35   C     C_R   0.494532 0.870726 0.500222 -0.093764
C36   C     C_R   0.498174 0.935943 0.625620 0.132221
C37   C     C_3   0.535898 0.929316 0.736167 -0.471449
C38   C     C_3   0.536092 0.069662 0.736161 -0.459347
C39   C     C_R   0.524258 0.589626 0.072920 0.245765
C40   C     C_R   0.177700 0.390109 0.529394 0.537805
C41   C     C_R   0.472480 0.418825 0.075752 -0.126088
C42   C     C_R   0.471774 0.419440 0.926544 0.317178
C43   C     C_R   0.524266 0.589661 0.925582 0.198691
C44   C     C_3   0.576881 0.615691 0.918791 -0.482366
C45   C     C_R   0.127228 0.388311 0.530292 -0.021745
C46   C     C_3   0.576955 0.614663 0.077424 -0.499208
C47   C     C_R   0.178337 0.608689 0.495293 0.537534
C48   C     C_R   0.279983 0.556434 0.613743 -0.102578
C49   C     C_R   0.330033 0.555336 0.610486 -0.293378
C50   C     C_R   0.328266 0.435236 0.395113 0.225838
C51   C     C_3   0.367531 0.246592 0.326667 -0.659080
C52   C     C_3   0.391605 0.347239 0.873959 -0.669973
C53   C     C_R   0.101795 0.277671 0.547977 -0.146465
C54   C     C_R   0.127863 0.611083 0.496928 -0.022185
C55   C     C_R   0.354673 0.495701 0.501449 -0.063144
C56   C     C_R   0.645379 0.499513 0.500883 -0.036474
Cu1   Cu    Cu3+1 0.500000 0.499980 0.640670 0.958878
Cu2   Cu    Cu3+1 0.500000 0.500020 0.359330 0.953185
H1    H     H_    0.261509 0.602553 0.698696 0.153896
H2    H     H_    0.521825 0.888502 0.835272 0.196210
H3    H     H_    0.257404 0.393122 0.317226 0.145306
H4    H     H_    0.570090 0.888777 0.697282 0.198968
H5    H     H_    0.522466 0.109451 0.835718 0.188394
H6    H     H_    0.570355 0.110823 0.697004 0.203216
H7    H     H_    0.451266 0.351488 0.133200 0.161622
H8    H     H_    0.597755 0.538205 0.873353 0.214502
H9    H     H_    0.585002 0.708170 0.873265 0.196533
H10   H     H_    0.597345 0.535394 0.120725 0.213899
H11   H     H_    0.585433 0.706291 0.124000 0.196940
H12   H     H_    0.122151 0.808706 0.465635 0.187093
H13   H     H_    0.120412 0.190874 0.562918 0.186728
H14   H     H_    0.650786 0.424727 0.711288 0.146955
H15   H     H_    0.738915 0.426316 0.714255 0.143471
H16   H     H_    0.877998 0.188207 0.516226 0.187370
H17   H     H_    0.962991 0.184386 0.518941 0.135446
H18   H     H_    0.035382 0.187305 0.563732 0.136403
H19   H     H_    0.349559 0.602758 0.692423 0.164143
H20   H     H_    0.333063 0.367899 0.193387 0.243913
H21   H     H_    0.387433 0.203716 0.238437 0.207633
H22   H     H_    0.335992 0.187255 0.353073 0.238209
H23   H     H_    0.964383 0.815592 0.506701 0.135304
H24   H     H_    0.391906 0.251295 0.418295 0.223713
H25   H     H_    0.453299 0.242250 0.872847 0.225073
H26   H     H_    0.380708 0.316622 0.980571 0.199776
H27   H     H_    0.372139 0.290011 0.796009 0.236112
H28   H     H_    0.381224 0.445394 0.858810 0.239400
H29   H     H_    0.653561 0.575553 0.291947 0.147765
H30   H     H_    0.879357 0.811685 0.504047 0.186976
H31   H     H_    0.741639 0.573593 0.294965 0.144086
H32   H     H_    0.037149 0.812854 0.465696 0.136440
H33   H     H_    0.478408 0.113342 0.278759 0.157737
H34   H     H_    0.478538 0.887581 0.278404 0.163578
N1    N     N_R   0.202158 0.499196 0.511277 -0.459987
N2    N     N_R   0.797829 0.499866 0.506733 -0.468665
N3    N     N_R   0.500300 0.500930 0.147930 -0.198631
N4    N     N_R   0.500310 0.500890 0.852020 -0.200012
N5    N     N_2   0.351835 0.368980 0.286305 -0.426145
N6    N     N_2   0.442840 0.332144 0.854492 -0.376136
O1    O     O_R   0.500000 0.319640 0.618810 -0.558286
O2    O     O_R   0.569730 0.499960 0.618810 -0.588383
O3    O     O_R   0.569740 0.500000 0.381220 -0.579974
O4    O     O_2   0.202176 0.283783 0.547218 -0.540121
O5    O     O_2   0.796697 0.282278 0.510476 -0.534493
O6    O     O_2   0.203421 0.714730 0.476466 -0.537495
O7    O     O_2   0.797616 0.717458 0.503188 -0.534991
O8    O     O_R   0.500010 0.319680 0.381230 -0.587155
O9    O     O_R   0.430260 0.500000 0.618780 -0.563622
O10   O     O_R   0.430270 0.500040 0.381190 -0.549280
O11   O     O_R   0.499990 0.680320 0.618770 -0.578784
O12   O     O_R   0.500000 0.680360 0.381190 -0.584639

loop_
_geom_bond_atom_site_label_1
_geom_bond_atom_site_label_2
_ccdc_geom_bond_type
C10   C27   A    
C51   N5    S    
C8    C13   A    
C22   C29   A    
C41   C42   A    
C44   H8    S    
C35   C36   A    
C40   N1    A    
C43   C44   S    
C1    O1    A    
C37   H4    S    
C28   C56   S    
C16   O12   A    
C6    H17   S    
C5    C9    A    
C15   H14   S    
C4    O10   A    
C12   C23   A    
C26   C27   A    
C42   N4    A    
C36   C37   S    
C42   N6    S    
C16   C35   S    
C30   C31   A    
C32   H33   S    
Cu1   O1    S    
C1    C31   S    
C30   C38   S    
C18   C19   A    
C52   H26   S    
C51   H22   S    
C46   H11   S    
C28   O3    A    
Cu1   O11   S    
C20   C24   A    
C8    C9    A    
H25   N6    S    
C11   O7    S    
C23   C48   A    
C13   O5    S    
C9    C10   A    
C1    O8    A    
C28   O2    A    
C45   C53   A    
C17   H29   S    
C21   C22   A    
C2    C6    A    
C29   H32   S    
C44   C46   S    
C16   O11   A    
C17   C18   A    
C7    H16   S    
C38   H6    S    
C25   C29   A    
C40   C45   A    
C4    O9    A    
C44   H9    S    
C2    C20   A    
C14   H15   S    
C7    C8    A    
C25   C54   A    
C33   H34   S    
C34   C45   A    
C24   H18   S    
C39   C43   A    
C21   C34   A    
C24   C53   A    
C49   C55   A    
Cu1   O2    S    
Cu1   N4    S    
C23   N1    S    
Cu2   O8    S    
Cu2   N3    S    
C46   H10   S    
C37   C38   S    
C31   C32   A    
C17   C56   A    
H20   N5    S    
C43   N4    A    
C47   N1    A    
Cu2   O3    S    
C51   H24   S    
C39   N3    A    
C19   N2    S    
C39   C46   S    
C11   N2    A    
C48   C49   A    
Cu1   O9    S    
C34   C54   A    
C26   H23   S    
C47   C54   A    
C4    C55   S    
C2    C5    A    
C53   H13   S    
C48   H1    S    
C38   H5    S    
C52   H27   S    
C50   N5    S    
C47   O6    S    
Cu2   O12   S    
C18   H31   S    
C14   C19   A    
C3    C26   A    
C3    C5    A    
C12   C50   A    
C6    C7    A    
C50   C55   A    
C30   C36   A    
C13   N2    A    
C15   C56   A    
C52   H28   S    
C32   C33   A    
C12   H3    S    
Cu1   Cu2   S    
C41   N3    A    
C52   N6    S    
C33   C35   A    
C49   H19   S    
Cu2   O10   S    
C41   H7    S    
C27   H30   S    
C51   H21   S    
C37   H2    S    
C10   C11   A    
C40   O4    S    
C20   C21   A    
C14   C15   A    
C3    C22   A    
C25   H12   S    
