data_mof_unit_38760.cif
_audit_creation_date              2012-12-11T17:25:02-0500
_audit_creation_method            fapswitch 2.2
_symmetry_space_group_name_H-M    P1
_symmetry_Int_Tables_number       1
_space_group_crystal_system       triclinic
_cell_length_a                    6.953753
_cell_length_b                    20.552432
_cell_length_c                    24.470776
_cell_angle_alpha                 90.10286
_cell_angle_beta                  90.226757
_cell_angle_gamma                 89.265062
_cell_volume                      3496.95811558

loop_
_atom_site_label
_atom_site_type_symbol
_atom_type_description
_atom_site_fract_x
_atom_site_fract_y
_atom_site_fract_z
_atom_type_partial_charge
O1    O     O_R   0.507280 0.423750 0.460310 -0.534893
O2    O     O_R   0.171030 0.555650 0.437630 -0.538065
O3    O     O_R   0.004080 0.576250 0.539690 -0.536108
C1    C     C_R   0.339101 0.575706 0.421818 0.718162
O4    O     O_R   0.177330 0.422980 0.453960 -0.544162
O5    O     O_R   0.010420 0.442640 0.556140 -0.534270
C2    C     C_R   0.346923 0.398913 0.443551 0.752494
O6    O     O_R   0.500930 0.557360 0.443860 -0.536645
O7    O     O_3   0.340310 0.506600 0.533500 -0.365063
V1    V     V_3+5 0.064140 0.498780 0.493780 1.422097
O8    O     O_R   0.680890 0.444350 0.562370 -0.532583
C3    C     C_R   0.850517 0.424273 0.578059 0.724115
O9    O     O_R   0.674590 0.577020 0.546040 -0.539118
C4    C     C_R   0.842189 0.600909 0.556775 0.710112
V2    V     V_3+5 0.564550 0.501220 0.506220 1.437554
O10   O     O_3   0.838250 0.493400 0.466500 -0.370237
C5    C     C_R   0.978171 0.838597 0.910572 -0.044052
C6    C     C_R   0.844786 0.661934 0.588605 -0.097570
C7    C     C_R   0.054153 0.723805 0.903715 -0.160187
C8    C     C_R   0.041660 0.780614 0.934557 -0.166678
C9    C     C_R   0.927952 0.839510 0.854814 -0.214151
C10   C     C_R   0.943501 0.782282 0.821912 0.084431
C11   C     C_R   0.007181 0.724162 0.847880 0.138581
C12   C     C_R   0.900794 0.780675 0.764351 0.060705
C13   C     C_R   0.921789 0.721063 0.734082 0.077686
C14   C     C_R   0.984602 0.664921 0.762544 -0.187029
C15   C     C_R   0.026001 0.666648 0.818046 -0.204374
C16   C     C_R   0.839046 0.836764 0.736024 -0.194982
C17   C     C_R   0.796482 0.835116 0.680645 -0.187912
C18   C     C_R   0.811946 0.777425 0.650266 0.067849
C19   C     C_R   0.878234 0.719468 0.676490 0.049110
C20   C     C_R   0.762368 0.777273 0.593891 0.303669
C21   C     C_R   0.777633 0.718967 0.564098 -0.198256
C22   C     C_R   0.895968 0.662099 0.644055 -0.224104
H1    H     H_    0.074422 0.622192 0.837871 0.124233
H2    H     H_    0.944058 0.616196 0.660630 0.105449
H3    H     H_    0.750786 0.880350 0.661760 0.147086
H4    H     H_    0.103695 0.679469 0.923473 0.114213
H5    H     H_    0.882390 0.885816 0.838417 0.095122
H6    H     H_    0.003757 0.618259 0.743210 0.123399
H7    H     H_    0.821509 0.883425 0.755522 0.123720
H8    H     H_    0.620229 0.212768 0.798100 0.111496
C23   C     C_R   0.730570 0.272984 0.733768 -0.154284
C24   C     C_R   0.894268 0.294265 0.705891 0.136078
C25   C     C_R   0.075944 0.270282 0.721920 -0.159357
H9    H     H_    0.204045 0.286006 0.700917 0.113027
C26   C     C_R   0.093730 0.225781 0.765266 -0.155702
H10   H     H_    0.235245 0.207984 0.777001 0.111479
C27   C     C_R   0.930039 0.204554 0.793189 0.137101
C28   C     C_R   0.748348 0.228473 0.777100 -0.157776
C29   C     C_1   0.876248 0.340455 0.661004 -0.063693
C30   C     C_1   0.948065 0.158664 0.838309 -0.062053
C31   C     C_1   0.961244 0.120575 0.876175 -0.193295
C32   C     C_1   0.862986 0.378861 0.623381 -0.186497
C33   C     C_R   0.596670 0.768542 0.234100 -0.156066
H11   H     H_    0.740508 0.782044 0.222093 0.110885
C34   C     C_R   0.436016 0.795224 0.206811 0.136068
C35   C     C_R   0.251282 0.776645 0.223367 -0.155587
H12   H     H_    0.125210 0.796518 0.202929 0.112444
C36   C     C_R   0.227538 0.732180 0.266433 -0.156446
H13   H     H_    0.083702 0.718662 0.278428 0.110798
C37   C     C_R   0.388194 0.705469 0.293699 0.135892
C38   C     C_R   0.572925 0.724079 0.277168 -0.156379
C39   C     C_1   0.459724 0.841157 0.161846 -0.059885
C40   C     C_1   0.364489 0.659386 0.338552 -0.061633
C41   C     C_1   0.349113 0.621093 0.376240 -0.192218
C42   C     C_1   0.475099 0.879287 0.124039 -0.192351
C43   C     C_R   0.466788 0.161662 0.088861 -0.094113
C44   C     C_R   0.357998 0.337704 0.411967 -0.078988
C45   C     C_R   0.456447 0.280056 0.090234 0.305201
C46   C     C_R   0.469576 0.220919 0.061490 -0.200739
C47   C     C_R   0.450485 0.160458 0.145900 -0.221311
C48   C     C_R   0.437173 0.218931 0.177003 0.049251
C49   C     C_R   0.440041 0.279017 0.148103 0.068155
C50   C     C_R   0.421317 0.219749 0.235689 0.074953
C51   C     C_R   0.407308 0.280542 0.264520 0.073654
C52   C     C_R   0.412568 0.338421 0.233887 -0.193601
C53   C     C_R   0.429208 0.337571 0.177438 -0.187972
C54   C     C_R   0.419987 0.161783 0.266600 -0.185897
C55   C     C_R   0.405590 0.162845 0.323147 -0.187502
C56   C     C_R   0.390704 0.221444 0.351648 0.101981
C57   C     C_R   0.390178 0.281405 0.323110 0.091672
C58   C     C_R   0.376625 0.220046 0.408832 -0.229583
C59   C     C_R   0.359312 0.277570 0.439119 0.278363
C60   C     C_R   0.372999 0.339516 0.354668 -0.284750
H14   H     H_    0.434616 0.384119 0.156915 0.147342
H15   H     H_    0.371038 0.387091 0.336283 0.107679
H16   H     H_    0.405932 0.116919 0.344901 0.123283
H17   H     H_    0.405623 0.385949 0.252348 0.124461
H18   H     H_    0.430854 0.114168 0.248474 0.121777
H19   H     H_    0.377906 0.173875 0.430231 0.117567
O11   O     O_R   0.323320 0.942780 0.056240 -0.534905
O12   O     O_R   0.647300 0.077050 0.046060 -0.537733
O13   O     O_R   0.813840 0.057330 0.943840 -0.535002
C61   C     C_R   0.477695 0.100831 0.056944 0.711766
O14   O     O_R   0.653250 0.944380 0.062400 -0.537037
O15   O     O_R   0.819830 0.923720 0.960300 -0.536116
C62   C     C_R   0.485142 0.924467 0.078312 0.723516
O16   O     O_R   0.317330 0.076390 0.039790 -0.536030
O17   O     O_3   0.483830 0.993470 0.966560 -0.367257
V3    V     V_3+5 0.760140 0.001210 0.006210 1.423852
O18   O     O_R   0.149290 0.922840 0.953850 -0.538169
C63   C     C_R   0.981556 0.899035 0.943132 0.694620
O19   O     O_R   0.143340 0.055500 0.937510 -0.537991
C64   C     C_R   0.973708 0.075508 0.921766 0.725684
V4    V     V_3+5 0.259690 0.998600 0.993650 1.424886
O20   O     O_3   0.986130 0.006520 0.033440 -0.366296
N1    N     N_2   0.689311 0.835429 0.568709 -0.529362
H20   H     H_    0.563387 0.853296 0.585464 0.253351
C65   C     C_3   0.703078 0.843163 0.510065 -0.549439
H21   H     H_    0.675042 0.894884 0.499323 0.200384
H22   H     H_    0.593876 0.812950 0.489081 0.188873
H23   H     H_    0.849823 0.829730 0.495784 0.205657
H24   H     H_    0.589067 0.290817 0.722057 0.112696
H25   H     H_    0.698996 0.704193 0.297598 0.112100
N2    N     N_2   0.347771 0.274759 0.497120 -0.533834
H26   H     H_    0.433586 0.238692 0.514037 0.253402
C66   C     C_3   0.153461 0.272903 0.517913 -0.539936
H27   H     H_    0.083013 0.227032 0.505163 0.187724
H28   H     H_    0.067431 0.315024 0.502710 0.209696
H29   H     H_    0.156885 0.275142 0.563253 0.198523
N3    N     N_2   0.453782 0.340907 0.061795 -0.529388
H30   H     H_    0.329468 0.368125 0.066864 0.251210
C67   C     C_3   0.537600 0.345056 0.007868 -0.548930
H31   H     H_    0.555403 0.397004 0.996865 0.200394
H32   H     H_    0.441484 0.322380 0.977095 0.187508
H33   H     H_    0.681743 0.321084 0.007297 0.207215
H34   H     H_    0.478876 0.220320 0.017359 0.114676
H35   H     H_    0.448000 0.112991 0.164388 0.102270
H36   H     H_    0.733746 0.717029 0.521653 0.116890
H37   H     H_    0.083001 0.779475 0.977290 0.108252

loop_
_geom_bond_atom_site_label_1
_geom_bond_atom_site_label_2
_ccdc_geom_bond_type
C21   H36   S    
V3    O20   S    
C18   C20   A    
C33   H11   S    
O13   C64   A    
C13   C19   A    
C48   C49   A    
C4    C6    S    
O2    C1    A    
C7    C8    A    
C1    O6    A    
O19   V4    S    
C56   C57   A    
O11   C62   A    
C47   H35   S    
C26   C27   A    
C52   C53   A    
N2    H26   S    
C52   H17   S    
C14   C15   A    
C17   C18   A    
C16   C17   A    
C23   H24   S    
O5    C3    A    
C18   C19   A    
C61   O16   A    
V4    O20   S    
C35   C36   A    
V2    O10   S    
C16   H7    S    
C5    C8    A    
N1    H20   S    
C36   C37   A    
C66   H27   S    
C54   H18   S    
C50   C51   A    
C42   C62   S    
C65   H21   S    
O8    V2    S    
C58   C59   A    
O13   V3    S    
N2    C66   S    
C33   C38   A    
C45   C49   A    
C45   C46   A    
O1    V2    S    
C11   C15   A    
O7    V1    S    
C38   H25   S    
C53   H14   S    
C60   H15   S    
O12   C61   A    
C3    C32   S    
O9    C4    A    
C48   C50   A    
O19   C64   A    
C56   C58   A    
C65   H22   S    
C25   C26   A    
C43   C61   S    
C39   C42   T    
O14   V3    S    
C12   C13   A    
C51   C57   A    
O4    C2    A    
C55   C56   A    
C15   H1    S    
C13   C14   A    
C25   H9    S    
C5    C9    A    
O14   C62   A    
C36   H13   S    
C66   H29   S    
C7    C11   A    
C23   C24   A    
C2    C44   S    
C37   C38   A    
C7    H4    S    
C45   N3    S    
C26   H10   S    
C9    H5    S    
C43   C47   A    
C27   C30   S    
C5    C63   S    
C19   C22   A    
C51   C52   A    
C6    C22   A    
C65   H23   S    
O15   C63   A    
O3    C4    A    
H8    C28   S    
C67   H33   S    
C24   C29   S    
O11   V4    S    
C27   C28   A    
O6    V2    S    
O9    V2    S    
C49   C53   A    
C10   C12   A    
C46   H34   S    
C8    H37   S    
O12   V3    S    
O2    V1    S    
C44   C60   A    
C30   C31   T    
C34   C39   S    
C67   H32   S    
O16   V4    S    
C37   C40   S    
O1    C2    A    
C24   C25   A    
C12   C16   A    
C47   C48   A    
O5    V1    S    
O8    C3    A    
C23   C28   A    
C57   C60   A    
C58   H19   S    
O17   V4    S    
C29   C32   T    
C20   C21   A    
C33   C34   A    
C35   H12   S    
O4    V1    S    
C55   H16   S    
O3    V1    S    
V1    O10   S    
C1    C41   S    
C14   H6    S    
C34   C35   A    
C50   C54   A    
C43   C46   A    
O17   V3    S    
N1    C65   S    
O18   V4    S    
C22   H2    S    
O7    V2    S    
O18   C63   A    
C6    C21   A    
C66   H28   S    
C54   C55   A    
C31   C64   S    
C59   N2    S    
C40   C41   T    
C20   N1    S    
C17   H3    S    
C44   C59   A    
C10   C11   A    
N3    H30   S    
C9    C10   A    
N3    C67   S    
O15   V3    S    
C67   H31   S    
