data_mof_unit_65445.cif
_audit_creation_date              2012-12-10T16:51:46-0500
_audit_creation_method            fapswitch 2.2
_symmetry_space_group_name_H-M    P1
_symmetry_Int_Tables_number       1
_space_group_crystal_system       triclinic
_cell_length_a                    18.36057
_cell_length_b                    18.386915
_cell_length_c                    18.37547
_cell_angle_alpha                 90.689204
_cell_angle_beta                  119.508511
_cell_angle_gamma                 119.571341
_cell_volume                      4420.80432123

loop_
_atom_site_label
_atom_site_type_symbol
_atom_type_description
_atom_site_fract_x
_atom_site_fract_y
_atom_site_fract_z
_atom_type_partial_charge
C1    C     C_R   0.776799 0.636296 0.638432 0.506714
C2    C     C_2   0.112296 0.307749 0.303279 -0.095484
C3    C     C_2   0.431140 0.162549 0.719276 -0.137705
C4    C     C_R   0.223006 0.361604 0.361205 0.509505
C5    C     C_2   0.493583 0.195827 0.808067 -0.128392
C6    C     C_2   0.418723 0.219286 0.664191 0.121119
C7    C     C_2   0.499461 0.304234 0.692914 -0.070744
C8    C     C_2   0.056242 0.750348 0.727591 0.256372
C9    C     C_2   0.110469 0.815142 0.805375 0.284928
C10   C     C_2   0.944820 0.705164 0.665083 -0.113381
C11   C     C_2   0.886279 0.680103 0.695341 -0.099409
C12   C     C_3   0.558995 0.757667 0.835467 -0.126158
C13   C     C_2   0.438526 0.160885 0.224970 0.239049
C14   C     C_2   0.508151 0.193743 0.205842 -0.058621
C15   C     C_2   0.456067 0.220242 0.293187 -0.159076
C16   C     C_R   0.499691 0.638129 0.361098 0.511864
C17   C     C_2   0.494224 0.304723 0.298739 -0.136988
C18   C     C_2   0.439158 0.776707 0.220533 -0.159656
C19   C     C_2   0.504217 0.808817 0.196562 -0.096165
C20   C     C_2   0.441839 0.723197 0.279428 -0.159609
C21   C     C_2   0.498262 0.690572 0.302795 -0.094483
C22   C     C_R   0.499482 0.138776 0.861677 0.510269
C23   C     C_3   0.597094 0.787452 0.775170 -0.168271
C24   C     C_R   0.500340 0.861736 0.138751 0.508142
C25   C     C_R   0.777076 0.138557 0.138839 0.511940
C26   C     C_R   0.222697 0.863922 0.861618 0.518330
C27   C     C_R   0.500451 0.140618 0.141928 0.527500
C28   C     C_R   0.498479 0.361127 0.638314 0.507463
C29   C     C_R   0.499670 0.857943 0.858357 0.503588
C30   C     C_R   0.500002 0.359307 0.358970 0.517170
C31   C     C_R   0.500350 0.642050 0.641607 0.534926
C32   C     C_3   0.463169 0.670823 0.757949 0.303247
C33   C     C_3   0.405494 0.713936 0.724189 0.138437
C34   C     C_3   0.538509 0.831635 0.741981 -0.161411
C35   C     C_3   0.499714 0.800798 0.801038 0.026669
C36   C     C_3   0.225717 0.593980 0.618981 -0.306142
C37   C     C_3   0.239219 0.092252 0.548423 -0.302646
C38   C     C_3   0.087449 0.646950 0.711456 -0.007383
C39   C     C_3   0.176018 0.662134 0.801564 -0.252667
C40   C     C_3   0.168656 0.576340 0.807690 -0.484784
C41   C     C_3   0.094563 0.867168 0.912074 0.008998
C42   C     C_3   0.078177 0.789117 0.948143 -0.272891
C43   C     C_3   0.126107 0.819512 0.047328 -0.467193
C44   C     C_3   0.263354 0.061001 0.155582 0.010129
C45   C     C_3   0.442464 0.743537 0.664165 -0.131953
C46   C     C_3   0.224181 0.019890 0.211384 -0.263022
C47   C     C_3   0.120620 0.002944 0.176179 -0.482948
C48   C     C_3   0.395916 0.576324 0.823745 0.012512
C49   C     C_3   0.466522 0.563607 0.904070 -0.262385
C50   C     C_3   0.438886 0.553819 0.970952 -0.486723
C51   C     C_3   0.500860 0.699877 0.698659 0.058158
C52   C     C_2   0.944031 0.162580 0.219672 -0.160967
C53   C     C_2   0.887781 0.195335 0.196825 -0.094018
C54   C     C_2   0.056397 0.218812 0.278418 -0.162788
H1    H     H_    0.078230 0.343918 0.280443 0.105113
H2    H     H_    0.382107 0.790922 0.197405 0.154727
H3    H     H_    0.563934 0.798389 0.220083 0.105285
H4    H     H_    0.394349 0.709658 0.303311 0.154692
H5    H     H_    0.544097 0.700160 0.278363 0.104534
H6    H     H_    0.606506 0.763927 0.905804 0.118472
H7    H     H_    0.676159 0.817184 0.794827 0.125504
H8    H     H_    0.570138 0.899031 0.736584 0.124768
H9    H     H_    0.394854 0.737433 0.593881 0.126871
H10   H     H_    0.906861 0.091441 0.195518 0.153522
H11   H     H_    0.921582 0.265371 0.221364 0.105566
H12   H     H_    0.385037 0.091391 0.686542 0.157298
H13   H     H_    0.093877 0.184954 0.300818 0.152348
H14   H     H_    0.282579 0.718811 0.690706 0.279289
H15   H     H_    0.149555 0.563821 0.606259 0.123659
H16   H     H_    0.244223 0.544356 0.629757 0.188836
H17   H     H_    0.221803 0.609825 0.559536 0.145347
H18   H     H_    0.299052 0.226967 0.572333 0.261483
H19   H     H_    0.171802 0.077586 0.483627 0.138947
H20   H     H_    0.217301 0.077160 0.595725 0.146923
H21   H     H_    0.261456 0.049212 0.537235 0.153265
H22   H     H_    0.083590 0.613505 0.657838 0.158579
H23   H     H_    0.537237 0.266055 0.843399 0.105081
H24   H     H_    0.013195 0.600371 0.702765 0.108512
H25   H     H_    0.249934 0.711974 0.811731 0.192367
H26   H     H_    0.174826 0.688348 0.855467 0.135962
H27   H     H_    0.096157 0.525987 0.799448 0.145244
H28   H     H_    0.233751 0.589877 0.873735 0.141512
H29   H     H_    0.171889 0.549494 0.755717 0.156856
H30   H     H_    0.048178 0.887514 0.915389 0.142298
H31   H     H_    0.173932 0.927704 0.954385 0.169975
H32   H     H_    0.995062 0.737774 0.913552 0.149869
H33   H     H_    0.111763 0.757798 0.936683 0.162002
H34   H     H_    0.571842 0.332196 0.756427 0.072013
H35   H     H_    0.209495 0.871467 0.084346 0.196121
H36   H     H_    0.114552 0.762284 0.071481 0.142402
H37   H     H_    0.089157 0.845923 0.060112 0.137670
H38   H     H_    0.206694 0.014725 0.085994 0.130580
H39   H     H_    0.266860 0.123233 0.153017 0.124202
H40   H     H_    0.217028 0.956230 0.210451 0.169398
H41   H     H_    0.279020 0.064709 0.281429 0.165258
H42   H     H_    0.127259 0.066498 0.179802 0.154888
H43   H     H_    0.093665 0.972045 0.217112 0.149546
H44   H     H_    0.063340 0.957333 0.106223 0.139410
H45   H     H_    0.911208 0.689135 0.594312 0.152120
H46   H     H_    0.316279 0.516485 0.789702 0.146183
H47   H     H_    0.396730 0.633312 0.846942 0.139736
H48   H     H_    0.460341 0.503198 0.881579 0.178961
H49   H     H_    0.546922 0.621707 0.937122 0.164006
H50   H     H_    0.446994 0.614519 0.995922 0.150374
H51   H     H_    0.490951 0.544127 0.028134 0.153295
H52   H     H_    0.359022 0.495417 0.939632 0.146271
H53   H     H_    0.919348 0.688615 0.765041 0.129554
H54   H     H_    0.575548 0.261865 0.240144 0.058794
H55   H     H_    0.432310 0.193102 0.335633 0.156246
H56   H     H_    0.516059 0.333157 0.255567 0.095681
N1    N     N_2   0.301353 0.673836 0.696195 -0.536650
N2    N     N_2   0.322246 0.184920 0.581492 -0.475567
O1    O     O_3   0.500000 0.500000 0.500000 -0.445848
O2    O     O_R   0.270900 0.886160 0.946260 -0.583421
O3    O     O_R   0.560160 0.177420 0.117340 -0.556464
O4    O     O_R   0.729180 0.615300 0.675360 -0.544189
O5    O     O_R   0.440020 0.882760 0.822680 -0.543494
O6    O     O_R   0.439990 0.057240 0.117340 -0.486861
O7    O     O_R   0.560190 0.882760 0.942820 -0.550228
O8    O     O_R   0.729270 0.053840 0.113900 -0.540472
O9    O     O_R   0.270910 0.884750 0.824690 -0.505677
O10   O     O_R   0.560170 0.175430 0.946260 -0.538487
O11   O     O_R   0.440000 0.886160 0.115330 -0.540746
O12   O     O_R   0.439910 0.615300 0.386140 -0.542958
O13   O     O_R   0.270820 0.446200 0.386140 -0.543241
O14   O     O_R   0.560090 0.613880 0.384720 -0.540825
O15   O     O_R   0.439920 0.324620 0.553780 -0.519662
O16   O     O_R   0.560100 0.442800 0.382710 -0.541233
O17   O     O_R   0.560070 0.617290 0.677370 -0.524017
O18   O     O_R   0.439930 0.322630 0.382710 -0.545289
O19   O     O_R   0.439900 0.617290 0.557220 -0.553594
O20   O     O_3   0.105059 0.729307 0.702108 -0.569569
O21   O     O_3   0.059923 0.843189 0.821965 -0.616627
O22   O     O_3   0.356821 0.071547 0.186424 -0.537968
O23   O     O_R   0.560080 0.446200 0.675360 -0.542368
O24   O     O_3   0.423277 0.584371 0.762955 -0.571997
O25   O     O_R   0.729180 0.613880 0.553780 -0.541095
O26   O     O_R   0.270820 0.324620 0.384720 -0.543262
O27   O     O_3   0.500090 0.000040 0.000040 -0.447479
O28   O     O_R   0.440010 0.053840 0.824690 -0.541149
O29   O     O_R   0.560180 0.884750 0.113900 -0.545487
O30   O     O_R   0.729260 0.175430 0.115330 -0.540621
Zn1   Zn    Zn3+2 0.414150 0.543930 0.458110 0.933571
Zn2   Zn    Zn3+2 0.585850 0.541910 0.456060 0.935929
Zn3   Zn    Zn3+2 0.414160 0.370220 0.456060 0.934757
Zn4   Zn    Zn3+2 0.585840 0.543930 0.629770 0.948166
Zn5   Zn    Zn3+2 0.585940 0.956110 0.041940 0.924577
Zn6   Zn    Zn3+2 0.585930 0.129820 0.043980 0.935768
Zn7   Zn    Zn3+2 0.414240 0.958130 0.043980 0.930231
Zn8   Zn    Zn3+2 0.414250 0.956110 0.870280 0.943165

loop_
_geom_bond_atom_site_label_1
_geom_bond_atom_site_label_2
_ccdc_geom_bond_type
O4    Zn4   S    
C37   H20   S    
H18   N2    S    
C50   H50   S    
C16   C21   S    
C28   O23   A    
C33   C45   S    
C41   C42   S    
C15   H55   S    
C25   O30   A    
C1    C11   S    
C3    C6    S    
C17   H56   S    
C41   O21   S    
C1    O25   A    
C38   H22   S    
C19   H3    S    
C29   O7    A    
C12   C23   S    
O27   Zn5   S    
C43   H35   S    
C47   H44   S    
C4    O13   A    
C25   C53   S    
C21   H5    S    
C2    H1    S    
C38   C39   S    
C45   C51   S    
O26   Zn3   S    
O7    Zn5   S    
C22   O28   A    
C34   H8    S    
O9    Zn8   S    
C34   C35   S    
C13   O22   S    
O1    Zn3   S    
C37   N2    S    
C31   O19   A    
C44   H39   S    
C27   O3    A    
C5    C22   S    
C36   H16   S    
C8    C9    D    
C8    O20   S    
C50   H51   S    
C47   H42   S    
O12   Zn1   S    
O5    Zn8   S    
C33   N1    S    
C26   O9    A    
O10   Zn6   S    
C14   C27   S    
C53   H11   S    
C44   H38   S    
C36   H17   S    
C18   H2    S    
O11   Zn7   S    
C23   C34   S    
C14   H54   S    
C37   H21   S    
C13   C14   D    
C12   C32   S    
O18   Zn3   S    
C17   C30   S    
C40   H29   S    
C10   H45   S    
C44   C46   S    
C9    C26   S    
C22   O10   A    
C44   O22   S    
C48   H46   S    
C30   O16   A    
O27   Zn6   S    
C43   H36   S    
C46   H41   S    
O30   Zn6   S    
C2    C54   D    
C49   H48   S    
C32   O24   S    
C18   C19   D    
C54   H13   S    
C38   H24   S    
C30   O18   A    
C41   H30   S    
C29   O5    A    
O3    Zn6   S    
C45   H9    S    
C24   O11   A    
C43   H37   S    
C7    C28   S    
O1    Zn1   S    
H14   N1    S    
C38   O20   S    
O1    Zn4   S    
O6    Zn7   S    
C2    C4    S    
C26   O2    A    
C32   C51   S    
C40   H28   S    
C23   C51   S    
C7    H34   S    
C46   H40   S    
C24   O29   A    
O23   Zn4   S    
C36   N1    S    
C52   C54   S    
C34   C45   S    
C12   C35   S    
O16   Zn2   S    
O17   Zn4   S    
O15   Zn3   S    
C42   H32   S    
C48   C49   S    
C1    O4    A    
O25   Zn2   S    
C13   C15   S    
C52   H10   S    
C3    H12   S    
C42   C43   S    
C20   H4    S    
C25   O8    A    
O28   Zn8   S    
C39   C40   S    
O19   Zn1   S    
C52   C53   D    
C27   O6    A    
C15   C17   D    
C37   H19   S    
C46   C47   S    
C6    N2    S    
C40   H27   S    
C48   O24   S    
C31   C51   S    
C3    C5    D    
C49   H49   S    
C28   O15   A    
C6    C7    D    
C41   H31   S    
C29   C35   S    
O27   Zn8   S    
C47   H43   S    
O1    Zn2   S    
C32   C33   S    
C19   C24   S    
C16   O12   A    
C31   O17   A    
C39   H26   S    
C11   H53   S    
C16   O14   A    
O13   Zn1   S    
C48   H47   S    
O14   Zn2   S    
C33   C35   S    
O27   Zn7   S    
C18   C20   S    
C36   H15   S    
C10   C11   D    
O29   Zn5   S    
C4    O26   A    
C12   H6    S    
C23   H7    S    
C20   C21   D    
O8    Zn5   S    
C8    C10   S    
C49   C50   S    
C50   H52   S    
C42   H33   S    
O2    Zn7   S    
C5    H23   S    
C39   H25   S    
C9    O21   S    
