data_mof_unit_36788.cif
_audit_creation_date              2012-12-10T17:03:24-0500
_audit_creation_method            fapswitch 2.2
_symmetry_space_group_name_H-M    P1
_symmetry_Int_Tables_number       1
_space_group_crystal_system       triclinic
_cell_length_a                    15.127321
_cell_length_b                    11.07316
_cell_length_c                    9.853077
_cell_angle_alpha                 112.01658
_cell_angle_beta                  98.013839
_cell_angle_gamma                 90.962955
_cell_volume                      1510.86590591

loop_
_atom_site_label
_atom_site_type_symbol
_atom_type_description
_atom_site_fract_x
_atom_site_fract_y
_atom_site_fract_z
_atom_type_partial_charge
C1    C     C_R   0.493364 0.253650 0.439445 0.803809
C2    C     C_R   0.506614 0.746350 0.560555 0.803030
C3    C     C_R   0.056887 0.412408 0.699512 0.114318
C4    C     C_R   0.943152 0.590661 0.301898 0.162728
C5    C     C_2   0.489772 0.112868 0.403189 -0.046999
C6    C     C_2   0.510158 0.887130 0.596812 -0.046693
C7    C     C_2   0.500994 0.069529 0.513927 -0.114472
C8    C     C_2   0.498848 0.930466 0.486074 -0.116998
C9    C     C_2   0.505804 0.511395 0.081348 0.065919
C10   C     C_2   0.494235 0.488549 0.918638 0.067064
C11   C     C_R   0.328908 0.496971 0.501196 0.806689
C12   C     C_R   0.671103 0.503212 0.498845 0.809448
C13   C     C_R   0.806446 0.553420 0.401267 0.114566
C14   C     C_R   0.193392 0.447160 0.598312 0.113237
C15   C     C_R   0.767519 0.505757 0.495414 -0.125315
C16   C     C_R   0.232528 0.495329 0.504887 -0.100311
C17   C     C_R   0.820577 0.461407 0.591170 -0.233558
C18   C     C_R   0.179849 0.541384 0.410382 -0.272519
C19   C     C_R   0.912821 0.460668 0.595563 0.080263
C20   C     C_R   0.087525 0.542829 0.405847 0.028806
C21   C     C_R   0.953334 0.503432 0.498900 -0.060605
C22   C     C_R   0.046900 0.499465 0.502122 -0.039496
C23   C     C_R   0.900210 0.550145 0.399562 0.033222
C24   C     C_R   0.099816 0.451974 0.601046 0.063338
C25   C     C_R   0.964340 0.417190 0.695850 0.146630
C26   C     C_R   0.035479 0.587289 0.306115 0.146230
Cu1   Cu    Cu3+1 0.515770 0.521810 0.644910 0.936647
Cu2   Cu    Cu3+1 0.484230 0.478190 0.355090 0.933847
H1    H     H_    0.788613 0.425880 0.662312 0.195085
H2    H     H_    0.212555 0.577108 0.340360 0.158910
H3    H     H_    0.487656 0.861418 0.371645 0.188195
H4    H     H_    0.512141 0.138577 0.628357 0.188887
H5    H     H_    0.445258 0.412204 0.842585 0.144195
H6    H     H_    0.554842 0.587657 0.157383 0.144837
N1    N     N_2   0.460520 0.445420 0.137370 -0.141108
N2    N     N_2   0.539480 0.554580 0.862630 -0.140573
O1    O     O_R   0.508410 0.332340 0.577400 -0.598792
O2    O     O_R   0.491590 0.667660 0.422600 -0.600005
O3    O     O_R   0.481780 0.295500 0.332650 -0.576340
O4    O     O_R   0.518220 0.704500 0.667350 -0.576368
O5    O     O_R   0.383570 0.518390 0.622380 -0.590313
O6    O     O_R   0.616430 0.481610 0.377620 -0.588616
O7    O     O_R   0.356940 0.481550 0.377630 -0.579155
O8    O     O_R   0.643060 0.518450 0.622370 -0.577767
N3    N     N_3   0.751622 0.610145 0.313274 -0.628161
H7    H     H_    0.709618 0.536652 0.228276 0.243010
H8    H     H_    0.714058 0.680261 0.379954 0.223524
N4    N     N_3   0.247760 0.387995 0.684108 -0.626136
H9    H     H_    0.284664 0.317794 0.616036 0.221480
H10   H     H_    0.290431 0.460138 0.769556 0.241208
N5    N     N_3   0.921997 0.377875 0.796269 -0.606005
H11   H     H_    0.950305 0.436704 0.904912 0.260982
H12   H     H_    0.934733 0.280925 0.777902 0.238677
N6    N     N_3   0.074911 0.629434 0.205139 -0.562474
H13   H     H_    0.121042 0.709296 0.265794 0.216061
H14   H     H_    0.107408 0.552592 0.137191 0.216756
N7    N     N_3   0.104231 0.369259 0.807871 -0.608891
H15   H     H_    0.152576 0.442015 0.879486 0.240697
H16   H     H_    0.131868 0.281112 0.755128 0.256576
N8    N     N_3   0.895936 0.634052 0.193635 -0.552413
H17   H     H_    0.867242 0.721244 0.246429 0.252627
H18   H     H_    0.848476 0.560666 0.120479 0.239133
N9    N     N_3   0.525292 0.976479 0.749076 -0.598326
H19   H     H_    0.474638 0.956096 0.801229 0.226346
H20   H     H_    0.586237 0.958299 0.799743 0.225579
N10   N     N_3   0.474689 0.023520 0.250923 -0.599481
H21   H     H_    0.413774 0.041721 0.200187 0.224281
H22   H     H_    0.525388 0.043883 0.198839 0.227365
N11   N     N_3   0.601130 0.654445 0.959623 -0.531507
H23   H     H_    0.662840 0.635374 0.922841 0.244254
H24   H     H_    0.582139 0.740672 0.947826 0.241857
N12   N     N_3   0.398720 0.345749 0.040424 -0.533208
H25   H     H_    0.337043 0.365063 0.077265 0.239795
H26   H     H_    0.417549 0.259452 0.052203 0.242501

loop_
_geom_bond_atom_site_label_1
_geom_bond_atom_site_label_2
_ccdc_geom_bond_type
C6    N9    S    
N10   H22   S    
C25   N5    S    
C2    O4    A    
C11   O7    A    
C18   H2    S    
C14   C16   A    
C1    O1    A    
Cu1   N2    S    
C17   H1    S    
C11   C16   S    
C2    O2    A    
Cu2   O7    S    
C4    C26   A    
C12   C15   S    
Cu2   O2    S    
Cu1   O4    S    
N12   H25   S    
C4    N8    S    
N9    H20   S    
N10   H21   S    
C3    C24   A    
C7    C8    S    
C12   O8    A    
C16   C18   A    
N3    H7    S    
Cu1   O8    S    
C13   N3    S    
N4    H10   S    
N7    H15   S    
C2    C6    S    
C20   C26   A    
C14   C24   A    
Cu1   O1    S    
C14   N4    S    
C1    C5    S    
C6    C8    D    
C22   C24   A    
N8    H18   S    
N4    H9    S    
C17   C19   A    
C20   C22   A    
N1    N12   S    
C11   O5    A    
C10   H5    S    
C5    C7    D    
C21   C23   A    
C13   C15   A    
N11   H23   S    
C19   C25   A    
N6    H14   S    
N7    H16   S    
N11   H24   S    
C1    O3    A    
N5    H12   S    
C9    N1    D    
N5    H11   S    
C26   N6    S    
C3    C25   A    
N2    N11   S    
C13   C23   A    
C18   C20   A    
N12   H26   S    
C9    C10   S    
N3    H8    S    
Cu2   O6    S    
Cu1   Cu2   S    
C15   C17   A    
C4    C23   A    
Cu1   O5    S    
N6    H13   S    
N8    H17   S    
C12   O6    A    
C7    H4    S    
Cu2   O3    S    
C19   C21   A    
C21   C22   A    
C8    H3    S    
C3    N7    S    
N9    H19   S    
Cu2   N1    S    
C9    H6    S    
C5    N10   S    
C10   N2    D    
