data_mof_unit_26901.cif
_audit_creation_date              2013-03-05T15:41:39-0500
_audit_creation_method            fapswitch 2.2
_symmetry_space_group_name_H-M    P1
_symmetry_Int_Tables_number       1
_space_group_crystal_system       triclinic
_cell_length_a                    7.80797
_cell_length_b                    8.703927
_cell_length_c                    15.733505
_cell_angle_alpha                 91.372564
_cell_angle_beta                  85.691546
_cell_angle_gamma                 93.344624
_cell_volume                      1064.20554011

loop_
_atom_site_label
_atom_site_type_symbol
_atom_site_description
_atom_site_fract_x
_atom_site_fract_y
_atom_site_fract_z
_atom_type_partial_charge
O1    O     O_R   0.389240 0.738570 0.505550 -0.594182
O2    O     O_R   0.678400 0.711630 0.491050 -0.589475
C1    C     C_R   0.544725 0.793756 0.497184 0.878766
O3    O     O_R   0.355360 0.513470 0.630110 -0.602679
O4    O     O_R   0.644510 0.486530 0.615610 -0.626590
C2    C     C_R   0.501636 0.499853 0.661361 0.877454
Zn1   Zn    Zn3+2 0.306930 0.517990 0.509680 1.137682
Zn2   Zn    Zn3+2 0.693070 0.482010 0.490320 1.135393
O5    O     O_R   0.321600 0.288370 0.508950 -0.564373
O6    O     O_R   0.610760 0.261430 0.494450 -0.593052
O7    O     O_R   0.355490 0.513470 0.384390 -0.574538
O8    O     O_R   0.644640 0.486530 0.369890 -0.582415
C3    C     C_R   0.455215 0.206281 0.503273 0.884007
C4    C     C_R   0.498352 0.500365 0.338672 0.892647
C5    C     C_3   0.339541 0.589312 0.954166 0.002419
C6    C     C_3   0.667886 0.596579 0.945480 0.044425
C7    C     C_3   0.664236 0.602286 0.045428 0.022694
C8    C     C_1   0.495290 0.505261 0.250314 0.029928
C9    C     C_3   0.501952 0.506263 0.916772 -0.205044
C10   C     C_3   0.327272 0.582310 0.053608 0.067644
C11   C     C_3   0.494918 0.513187 0.083645 -0.171314
C12   C     C_3   0.503879 0.342008 0.048982 -0.039047
C13   C     C_3   0.493933 0.337590 0.950111 0.037239
C14   C     C_1   0.494293 0.509994 0.175256 0.166548
C15   C     C_1   0.504980 0.502568 0.825078 0.110987
C16   C     C_1   0.505073 0.500670 0.749877 -0.010681
H1    H     H_    0.224391 0.523623 0.932164 0.217731
C17   C     C_2   0.568531 0.955588 0.501977 -0.005152
C18   C     C_2   0.431032 0.044447 0.499923 0.000113
N1    N     N_2   0.950340 0.457950 0.477370 0.033442
N2    N     N_2   0.049660 0.542050 0.522630 -0.117454
N3    N     N_R   0.277885 0.728416 0.095222 0.283954
O9    O     O_R   0.130898 0.781501 0.080202 -0.231635
O10   O     O_R   0.361128 0.792325 0.156579 -0.252764
H2    H     H_    0.218069 0.499014 0.071029 0.186804
H3    H     H_    0.633721 0.304525 0.061443 0.173217
N4    N     N_R   0.739930 0.015871 0.514971 0.235118
O11   O     O_R   0.859384 0.008083 0.453125 -0.226888
O12   O     O_R   0.779918 0.061774 0.590649 -0.311428
N5    N     N_R   0.259593 0.984037 0.487052 0.245384
O13   O     O_R   0.144183 0.976881 0.551088 -0.272925
O14   O     O_R   0.218170 0.941678 0.411054 -0.255829
N6    N     N_R   0.025248 0.411853 0.399043 0.331251
O15   O     O_R   0.008039 0.493198 0.332232 -0.303936
O16   O     O_R   0.073980 0.271992 0.388509 -0.260647
H4    H     H_    0.986679 0.594667 0.574239 0.203896
N7    N     N_R   0.332134 0.745756 0.921052 0.252856
O17   O     O_R   0.223524 0.771059 0.864893 -0.248026
O18   O     O_R   0.426661 0.861373 0.948731 -0.252718
N8    N     N_R   0.825980 0.531334 0.906766 0.207568
O19   O     O_R   0.906714 0.595748 0.840316 -0.305779
O20   O     O_R   0.886536 0.409243 0.936817 -0.365231
H5    H     H_    0.667896 0.713665 0.919931 0.230518
N9    N     N_R   0.691093 0.759198 0.081795 0.287260
O21   O     O_R   0.725138 0.775348 0.161344 -0.280563
O22   O     O_R   0.719603 0.878730 0.033569 -0.241497
H6    H     H_    0.774531 0.539180 0.064779 0.175370
N10   N     N_R   0.345092 0.243787 0.921108 0.261089
O23   O     O_R   0.190967 0.254121 0.957623 -0.260290
O24   O     O_R   0.368073 0.146207 0.857897 -0.267708
H7    H     H_    0.609753 0.281119 0.922155 0.211073
N11   N     N_R   0.381410 0.228746 0.092415 0.274726
O25   O     O_R   0.253931 0.268669 0.144816 -0.305424
O26   O     O_R   0.408040 0.083317 0.082115 -0.179917

loop_
_geom_bond_atom_site_label_1
_geom_bond_atom_site_label_2
_geom_bond_distance
_ccdc_geom_bond_type
C6    N8    1.472919 S    
O4    Zn2   1.979105 S    
C9    C13   1.567051 S    
N6    O15   1.300888 A    
N11   O25   1.301745 A    
C12   N11   1.475558 S    
C12   H3    1.115429 S    
C4    C8    1.393892 S    
C5    H1    1.110129 S    
N7    O17   1.300784 A    
C5    N7    1.475344 S    
Zn2   O8    1.961559 S    
Zn2   N1    2.026331 S    
N3    O9    1.301662 A    
N5    O14   1.301288 A    
O2    C1    1.295480 A    
N10   O23   1.301005 A    
N7    O18   1.299127 A    
N4    O12   1.301287 A    
O1    Zn1   1.989735 S    
C11   C12   1.577885 S    
C6    H5    1.104435 S    
Zn1   O7    1.979105 S    
N6    O16   1.299636 A    
C2    C16   1.394777 S    
C17   N4    1.436010 S    
O3    Zn1   1.961560 S    
C8    C14   1.183252 T    
O4    C2    1.290931 A    
C18   N5    1.436243 S    
O3    C2    1.289648 A    
N5    O13   1.300395 A    
N4    O11   1.299696 A    
O8    C4    1.289793 A    
N8    O19   1.300990 A    
C13   N10   1.475307 S    
C6    C9    1.566093 S    
N1    N2    1.279082 D    
C9    C15   1.440696 S    
O7    C4    1.290361 A    
N9    O22   1.301190 A    
N1    N6    1.384615 S    
Zn1   N2    2.026331 S    
N10   O24   1.301204 A    
C13   H7    1.111121 S    
C10   C11   1.580247 S    
C1    C17   1.410951 S    
Zn2   O6    1.989735 S    
C10   N3    1.474443 S    
C11   C14   1.441937 S    
C3    C18   1.410485 S    
N8    O20   1.301026 A    
Zn1   O5    2.008246 S    
O5    C3    1.294911 A    
N9    O21   1.301571 A    
C17   C18   1.362025 D    
N11   O26   1.299067 A    
O2    Zn2   2.008247 S    
C15   C16   1.182851 T    
C5    C9    1.565645 S    
C10   H2    1.109071 S    
C7    N9    1.477779 S    
O6    C3    1.278481 A    
C12   C13   1.562796 S    
C7    C11   1.579246 S    
C6    C7    1.570283 S    
C7    H6    1.112933 S    
C5    C10   1.562742 S    
O1    C1    1.277840 A    
N2    H4    1.029256 S    
N3    O10   1.300064 A    
