data_mof_unit_68586.cif
_audit_creation_date              2012-12-11T18:46:58-0500
_audit_creation_method            fapswitch 2.2
_symmetry_space_group_name_H-M    P1
_symmetry_Int_Tables_number       1
_space_group_crystal_system       triclinic
_cell_length_a                    8.230977
_cell_length_b                    15.01327
_cell_length_c                    14.884968
_cell_angle_alpha                 98.94896
_cell_angle_beta                  97.892765
_cell_angle_gamma                 98.670372
_cell_volume                      1771.72861681

loop_
_atom_site_label
_atom_site_type_symbol
_atom_type_description
_atom_site_fract_x
_atom_site_fract_y
_atom_site_fract_z
_atom_type_partial_charge
Ba1   Ba    Ba6+2 0.844900 0.542440 0.457470 1.676941
Ba2   Ba    Ba6+2 0.344940 0.457640 0.542540 1.684684
C1    C     C_3   0.671300 0.877388 0.247768 -0.317711
C2    C     C_R   0.112315 0.470780 0.205648 0.032925
C3    C     C_R   0.922895 0.473518 0.763449 -0.268750
C4    C     C_3   0.133543 0.767957 0.213370 0.713013
C5    C     C_R   0.823635 0.440705 0.824227 -0.011987
C6    C     C_R   0.887575 0.450017 0.917526 -0.138812
C7    C     C_R   0.053822 0.493029 0.953090 0.011590
C8    C     C_R   0.150770 0.531826 0.891218 -0.025869
C9    C     C_R   0.125901 0.500391 0.048387 0.011376
C10   C     C_R   0.293615 0.546405 0.079806 -0.036847
C11   C     C_R   0.383135 0.584732 0.017774 -0.102341
C12   C     C_3   0.627996 0.781792 0.269291 0.345203
C13   C     C_R   0.311932 0.579188 0.926870 -0.029373
C14   C     C_R   0.037934 0.463002 0.113564 -0.145970
C15   C     C_R   0.274919 0.517250 0.234821 -0.245878
C16   C     C_3   0.023541 0.715894 0.124426 -0.260610
C17   C     C_R   0.083853 0.522486 0.795368 0.054309
C18   C     C_R   0.329865 0.822129 0.436986 -0.023568
C19   C     C_R   0.582634 0.791434 0.522850 0.072335
C20   C     C_R   0.773571 0.229550 0.520498 -0.237352
C21   C     C_R   0.872440 0.171693 0.556159 -0.031737
C22   C     C_R   0.808820 0.078461 0.547564 -0.149075
C23   C     C_3   0.323839 0.263138 0.253519 0.506743
C24   C     C_R   0.643462 0.041264 0.502200 -0.000995
C25   C     C_R   0.546971 0.101189 0.462701 -0.032849
C26   C     C_R   0.570845 0.946739 0.493735 -0.012578
C27   C     C_R   0.404237 0.914839 0.445986 -0.031742
C28   C     C_3   0.367605 0.750428 0.727486 0.765195
C29   C     C_R   0.314785 0.976003 0.408270 -0.059323
C30   C     C_R   0.385533 0.066322 0.414674 -0.015227
C31   C     C_R   0.656066 0.883356 0.533281 -0.114057
C32   C     C_R   0.422027 0.760997 0.473316 -0.271816
C33   C     C_R   0.613431 0.195227 0.472540 0.047243
C34   C     C_3   0.296542 0.224364 0.149659 0.874530
C35   C     C_3   0.486613 0.775260 0.819291 0.442235
C36   C     C_3   0.816015 0.250541 0.222715 0.703403
C37   C     C_3   0.840828 0.216740 0.124002 -0.368969
C38   C     C_3   0.795269 0.668583 0.738334 0.272105
C39   C     C_3   0.885842 0.705199 0.836997 -0.394883
C40   C     C_3   0.512065 0.832559 0.974332 0.160966
C41   C     C_3   0.870897 0.130181 0.301409 0.210602
C42   C     C_3   0.456106 0.339210 0.093636 0.074346
C43   C     C_3   0.215319 0.087590 0.044877 0.270147
C44   C     C_3   0.775973 0.069567 0.896830 0.079853
C45   C     C_3   0.047876 0.232146 0.777633 0.332344
C46   C     C_3   0.411749 0.067084 0.681663 0.335157
C47   C     C_3   0.198095 0.826613 0.638343 0.259146
C48   C     C_3   0.142878 0.261720 0.875476 -0.292930
C49   C     C_3   0.639526 0.230463 0.804124 0.447941
C50   C     C_3   0.567065 0.137307 0.826694 0.730584
C51   C     C_R   0.367576 0.553929 0.173103 -0.019267
Cl1   Cl    Cl    0.252460 0.867401 0.187760 -0.787290
H1    H     H_    0.711438 0.778267 0.333372 0.094071
H2    H     H_    0.806971 0.895403 0.247655 0.137789
H3    H     H_    0.005509 0.750171 0.836690 0.177429
H4    H     H_    0.909914 0.648042 0.872751 0.061340
H5    H     H_    0.811449 0.746311 0.877761 0.101790
H6    H     H_    0.497096 0.770990 0.281167 -0.010192
H7    H     H_    0.634752 0.927570 0.300783 0.100513
H8    H     H_    0.218470 0.228695 0.281803 -0.019419
H9    H     H_    0.326238 0.338180 0.265426 -0.203731
H10   H     H_    0.187705 0.250328 0.116299 -0.283595
H11   H     H_    0.603687 0.881378 0.179284 0.151109
H12   H     H_    0.535111 0.713475 0.833714 -0.135294
H13   H     H_    0.100931 0.699628 0.070605 0.078816
H14   H     H_    0.993882 0.291548 0.758433 -0.048896
H15   H     H_    0.946124 0.174223 0.775886 0.031404
H16   H     H_    0.238376 0.323487 0.879255 0.142084
H17   H     H_    0.056253 0.278631 0.923945 0.048870
H18   H     H_    0.205433 0.205933 0.896437 0.133289
H19   H     H_    0.750143 0.261206 0.857447 -0.206419
H20   H     H_    0.679201 0.220876 0.735322 -0.108633
H21   H     H_    0.217933 0.722224 0.237648 -0.116241
H22   H     H_    0.547064 0.151345 0.899968 -0.017524
H23   H     H_    0.592974 0.828175 0.813025 0.037343
H24   H     H_    0.331444 0.522604 0.305929 0.081263
H25   H     H_    0.510484 0.619743 0.038375 0.101170
H26   H     H_    0.910781 0.428239 0.095501 0.065048
H27   H     H_    0.870176 0.466225 0.691459 0.063351
H28   H     H_    0.803284 0.423643 0.960215 0.064091
H29   H     H_    0.388399 0.610810 0.884554 0.110175
H30   H     H_    0.365150 0.690053 0.467300 0.071476
H31   H     H_    0.188412 0.955063 0.372116 0.121481
H32   H     H_    0.778849 0.903190 0.573731 0.078443
H33   H     H_    0.824569 0.301377 0.526253 0.066271
H34   H     H_    0.720056 0.294156 0.217984 0.093023
H35   H     H_    0.892153 0.037225 0.575746 0.070245
H36   H     H_    0.308958 0.108288 0.381917 0.085869
H37   H     H_    0.955116 0.650866 0.136999 0.110455
H38   H     H_    0.932260 0.757387 0.098753 0.132728
H39   H     H_    0.422752 0.710498 0.674383 -0.124294
H40   H     H_    0.557396 0.771280 0.994582 0.032538
H41   H     H_    0.443653 0.860517 0.028220 0.138010
H42   H     H_    0.619376 0.886307 0.971864 0.013481
H43   H     H_    0.949960 0.174851 0.363344 0.051786
H44   H     H_    0.948958 0.104825 0.251275 0.038699
H45   H     H_    0.719286 0.183051 0.081438 0.126531
H46   H     H_    0.807758 0.070200 0.325624 0.040661
H47   H     H_    0.487931 0.389305 0.159126 0.052273
H48   H     H_    0.341525 0.350480 0.051270 0.042652
H49   H     H_    0.559775 0.351425 0.054171 0.077541
H50   H     H_    0.324308 0.097099 0.008559 0.078064
H51   H     H_    0.110293 0.114982 0.010386 -0.039123
H52   H     H_    0.173976 0.012849 0.039450 0.096259
H53   H     H_    0.697639 0.041443 0.944533 0.060508
H54   H     H_    0.848674 0.138033 0.929922 0.018197
H55   H     H_    0.865385 0.022890 0.882482 0.089563
H56   H     H_    0.925745 0.166221 0.122118 0.107104
H57   H     H_    0.476393 0.007205 0.674621 0.084001
H58   H     H_    0.468944 0.120925 0.646817 0.010420
H59   H     H_    0.282141 0.043542 0.645036 0.051727
H60   H     H_    0.207628 0.884897 0.601079 0.007898
H61   H     H_    0.092559 0.830472 0.677145 0.097969
H62   H     H_    0.174787 0.762197 0.586702 0.047351
H63   H     H_    0.892898 0.274485 0.092617 0.038543
H64   H     H_    0.881298 0.636924 0.697822 0.043919
H65   H     H_    0.685925 0.615779 0.739407 0.048824
O1    O     O_2   0.826460 0.445380 0.275370 -0.485844
O2    O     O_2   0.212017 0.179247 0.550856 -0.500484
O3    O     O_3   0.156404 0.201907 0.719361 -0.539298
O4    O     O_3   0.098920 0.448470 0.388920 -0.449065
O5    O     O_3   0.590770 0.611390 0.551120 -0.487344
O6    O     O_2   0.326540 0.275010 0.446300 -0.474528
O7    O     O_3   0.474540 0.243859 0.294941 -0.619406
O8    O     O_2   0.495238 0.458603 0.823082 -0.487359
O9    O     O_3   0.519452 0.287507 0.806540 -0.585432
O10   O     O_3   0.628660 0.613390 0.338240 -0.484166
O11   O     O_2   0.707245 0.549076 0.176762 -0.495125
O12   O     O_3   0.742483 0.741404 0.700893 -0.656800
O13   O     O_3   0.966996 0.298472 0.277780 -0.683389
O14   O     O_3   0.649690 0.716555 0.195344 -0.603716
O15   O     O_2   0.863170 0.725020 0.553760 -0.478436
O16   O     O_3   0.060910 0.661460 0.386100 -0.470499
O17   O     O_2   0.992684 0.822564 0.448654 -0.519851
O18   O     O_3   0.401804 0.809620 0.889768 -0.634051
O19   O     O_3   0.747798 0.175071 0.261196 -0.628330
O20   O     O_3   0.442262 0.249132 0.111554 -0.673562
O21   O     O_3   0.258905 0.127697 0.139049 -0.642735
O22   O     O_3   0.677381 0.073888 0.812898 -0.688441
O23   O     O_3   0.031322 0.796026 0.276921 -0.590305
O24   O     O_3   0.406106 0.101246 0.774908 -0.625481
O25   O     O_3   0.346916 0.834962 0.700171 -0.704783
O26   O     O_2   0.363260 0.554650 0.724690 -0.494841
O27   O     O_3   0.090800 0.551610 0.611090 -0.484740
O28   O     O_3   0.561050 0.386690 0.661770 -0.461027
O29   O     O_3   0.215010 0.701628 0.740830 -0.677215
O30   O     O_3   0.598950 0.388690 0.448890 -0.461342
O31   O     O_3   0.128800 0.338610 0.613910 -0.454418
P1    P     P_3+3 0.996570 0.418570 0.288410 0.979209
P2    P     P_3+3 0.693070 0.712070 0.580610 0.976534
P3    P     P_3+3 0.106864 0.778136 0.387502 0.940569
P4    P     P_3+3 0.193140 0.581510 0.711600 0.954947
P5    P     P_3+3 0.090000 0.220333 0.608350 0.989761
P6    P     P_3+3 0.587450 0.607028 0.219305 0.945649
P7    P     P_3+3 0.502186 0.274147 0.415290 1.000330
P8    P     P_3+3 0.602789 0.393057 0.780719 0.975807

loop_
_geom_bond_atom_site_label_1
_geom_bond_atom_site_label_2
_ccdc_geom_bond_type
Ba2   O31   S    
C38   H64   S    
C11   H25   S    
C29   H31   S    
C21   P5    S    
O14   P6    S    
O3    P5    S    
C41   H44   S    
C23   O7    S    
C12   H1    S    
C22   H35   S    
C33   P7    S    
O12   P2    S    
O9    P8    S    
C4    H21   S    
C5    P8    S    
Ba2   O4    S    
Ba2   O26   S    
C20   C33   A    
C24   C25   A    
O29   P4    S    
C41   O19   S    
C6    H28   S    
C16   H37   S    
C26   C27   A    
C22   C24   A    
C39   H4    S    
C28   H39   S    
Ba1   O10   S    
C8    C13   A    
C36   C37   S    
O6    P7    D    
C19   C31   A    
C47   O25   S    
C28   O25   S    
Ba1   P2    S    
Ba1   Ba2   S    
C23   H9    S    
C19   P2    S    
C48   H18   S    
C45   H15   S    
C37   H56   S    
C30   H36   S    
C6    C7    A    
C44   H54   S    
C21   C22   A    
C49   H20   S    
Ba1   O30   S    
C4    O23   S    
C7    C8    A    
C10   C51   A    
C18   C32   A    
Ba2   O30   S    
C47   H60   S    
O5    P2    S    
Ba2   P4    S    
C35   O18   S    
C44   H53   S    
C40   O18   S    
Ba1   O27   S    
C1    H11   S    
C32   H30   S    
C4    Cl1   S    
C42   H49   S    
C43   H51   S    
C47   H62   S    
C45   C48   S    
C18   C27   A    
C1    H7    S    
C4    C16   S    
O4    P1    S    
C50   O24   S    
C18   P3    S    
C49   C50   S    
C49   H19   S    
C5    C6    A    
C41   H46   S    
C39   H5    S    
C3    C5    A    
C42   H48   S    
C45   O3    S    
C13   H29   S    
C19   C32   A    
C25   C33   A    
C16   H13   S    
C37   H63   S    
C35   H23   S    
C43   O21   S    
C40   H41   S    
C28   C35   S    
C36   H34   S    
C14   H26   S    
Ba1   O1    S    
C36   O13   S    
C2    C14   A    
C48   H17   S    
Ba1   O4    S    
C43   H50   S    
C3    H27   S    
C1    H2    S    
C37   H45   S    
C29   C30   A    
O27   P4    S    
C8    C17   A    
C9    C10   A    
O15   P2    D    
C35   H12   S    
C46   H57   S    
C36   O19   S    
C20   H33   S    
C7    C9    A    
O8    P8    D    
C1    C12   S    
C2    C15   A    
C38   C39   S    
C47   H61   S    
C38   O12   S    
C26   C31   A    
C42   O20   S    
O31   P5    S    
C11   C13   A    
C40   H42   S    
C49   O9    S    
Ba1   O15   S    
C15   C51   A    
C45   H14   S    
C43   H52   S    
O7    P7    S    
O13   P1    S    
C2    P1    S    
O1    P1    D    
O2    P5    D    
C46   H58   S    
C25   C30   A    
C40   H40   S    
C41   H43   S    
C50   H22   S    
O10   P6    S    
C42   H47   S    
C28   O29   S    
C3    C17   A    
C12   O14   S    
Ba2   O5    S    
Ba2   O27   S    
C12   H6    S    
C24   C26   A    
C50   O22   S    
O16   P3    S    
C16   H38   S    
Ba2   O28   S    
Ba1   O5    S    
C39   H3    S    
C44   O22   S    
C34   H10   S    
O17   P3    D    
C15   H24   S    
Ba1   P1    S    
C23   H8    S    
C34   O21   S    
O23   P3    S    
C48   H16   S    
C34   O20   S    
C9    C14   A    
C23   C34   S    
Ba2   O6    S    
C38   H65   S    
C10   C11   A    
C46   O24   S    
C51   P6    S    
C27   C29   A    
C44   H55   S    
C17   P4    S    
C20   C21   A    
O11   P6    D    
O26   P4    D    
Ba1   O16   S    
O28   P8    S    
O30   P7    S    
C31   H32   S    
C46   H59   S    
