data_mof_unit_7534.cif
_audit_creation_date              2012-12-11T15:12:19-0500
_audit_creation_method            fapswitch 2.2
_symmetry_space_group_name_H-M    P1
_symmetry_Int_Tables_number       1
_space_group_crystal_system       triclinic
_cell_length_a                    30.450448
_cell_length_b                    22.193396
_cell_length_c                    17.967942
_cell_angle_alpha                 90.022069
_cell_angle_beta                  122.648427
_cell_angle_gamma                 89.999294
_cell_volume                      10224.1248104

loop_
_atom_site_label
_atom_site_type_symbol
_atom_type_description
_atom_site_fract_x
_atom_site_fract_y
_atom_site_fract_z
_atom_type_partial_charge
C1    C     C_R   0.540791 0.588669 0.736576 -0.202472
C2    C     C_R   0.266957 0.641302 0.583247 0.045625
C3    C     C_R   0.353264 0.211442 0.106408 0.116184
C4    C     C_R   0.860747 0.313887 0.157775 0.108227
C5    C     C_R   0.152935 0.725256 0.934556 0.114047
C6    C     C_R   0.162953 0.221723 0.011717 0.096280
C7    C     C_R   0.847209 0.726304 0.060090 0.116284
C8    C     C_R   0.248960 0.681745 0.966435 0.051985
C9    C     C_R   0.750441 0.321554 0.057168 0.041991
C10   C     C_R   0.752865 0.678824 0.031353 0.045935
C11   C     C_R   0.269529 0.240502 0.085138 0.025992
C12   C     C_R   0.774803 0.266728 0.096032 0.041883
C13   C     C_R   0.359929 0.211500 0.581240 0.042760
C14   C     C_R   0.225201 0.731745 0.910517 0.034657
C15   C     C_R   0.247561 0.185930 0.041829 0.067026
C16   C     C_R   0.777943 0.726242 0.092325 0.030900
C17   C     C_R   0.781513 0.373608 0.076413 -0.225888
C18   C     C_R   0.219914 0.648618 0.993406 -0.240464
C19   C     C_R   0.241278 0.277881 0.108450 -0.176380
C20   C     C_R   0.779046 0.651135 0.994581 -0.256410
C21   C     C_R   0.253500 0.765552 0.882985 -0.150284
C22   C     C_R   0.744747 0.218898 0.097833 -0.247208
C23   C     C_R   0.751418 0.755639 0.127143 -0.132020
C24   C     C_R   0.737535 0.638280 0.424894 0.045897
C25   C     C_R   0.280382 0.141571 0.040231 -0.229774
C26   C     C_R   0.836510 0.371259 0.130518 0.112397
C27   C     C_R   0.172682 0.670237 0.979999 0.104322
C28   C     C_R   0.188718 0.266825 0.076889 0.142759
C29   C     C_R   0.825805 0.673982 0.007979 0.106065
C30   C     C_R   0.305206 0.752646 0.911715 0.140376
C31   C     C_R   0.690256 0.221996 0.053151 0.110226
C32   C     C_R   0.699728 0.742502 0.098779 0.125756
C33   C     C_R   0.333503 0.152915 0.073768 0.112195
C34   C     C_R   0.595320 0.584017 0.424540 -0.119588
C35   C     C_R   0.140515 0.713295 0.416951 0.041989
C36   C     C_R   0.425351 0.387829 0.574702 -0.111791
C37   C     C_R   0.404675 0.583360 0.575678 -0.118974
C38   C     C_R   0.576324 0.388952 0.425463 -0.110411
C39   C     C_R   0.096135 0.081300 0.424590 -0.135736
C40   C     C_R   0.924534 0.889105 0.575400 -0.108266
C41   C     C_R   0.903454 0.079018 0.575907 -0.126060
C42   C     C_R   0.076005 0.888522 0.425715 -0.108853
C43   C     C_R   0.386289 0.591865 0.264382 0.521747
C44   C     C_R   0.615852 0.415896 0.742886 0.473637
C45   C     C_R   0.614257 0.590221 0.737118 0.521613
C46   C     C_R   0.765542 0.135344 0.583080 0.046134
C47   C     C_R   0.385123 0.410419 0.262978 0.469196
C48   C     C_R   0.894553 0.109365 0.292612 0.525787
C49   C     C_R   0.114691 0.910742 0.737259 0.449773
C50   C     C_R   0.112909 0.094557 0.733071 0.523018
C51   C     C_R   0.885813 0.908850 0.264141 0.453652
C52   C     C_R   0.591892 0.608015 0.784742 -0.107436
C53   C     C_R   0.408339 0.384177 0.222089 0.007050
C54   C     C_R   0.409211 0.610887 0.218106 -0.107659
C55   C     C_R   0.593369 0.396581 0.788843 -0.001227
C56   C     C_R   0.089355 0.115762 0.777378 -0.110780
C57   C     C_R   0.859723 0.718168 0.592092 0.039931
C58   C     C_R   0.909790 0.881797 0.225502 0.008403
C59   C     C_R   0.922727 0.142079 0.265378 -0.109709
C60   C     C_R   0.091165 0.883916 0.776696 0.012191
C61   C     C_R   0.644439 0.598577 0.497135 0.024737
C62   C     C_R   0.390458 0.353233 0.501738 0.061706
C63   C     C_R   0.355238 0.597246 0.503401 0.024172
C64   C     C_R   0.610716 0.354156 0.498392 0.064051
C65   C     C_R   0.145812 0.094441 0.496645 0.025388
C66   C     C_R   0.890837 0.853458 0.503593 0.063349
C67   C     C_R   0.853028 0.088341 0.504183 0.010497
C68   C     C_R   0.231983 0.142115 0.414391 0.045401
C69   C     C_R   0.110176 0.853549 0.498593 0.061501
C70   C     C_R   0.663691 0.263255 0.576716 -0.219660
C71   C     C_R   0.261176 0.622716 0.423338 -0.228190
C72   C     C_R   0.338925 0.261725 0.421690 -0.235479
C73   C     C_R   0.736003 0.631761 0.579615 -0.230688
C74   C     C_R   0.160233 0.760550 0.577152 -0.241174
C75   C     C_R   0.758325 0.109400 0.423938 -0.227954
C76   C     C_R   0.844473 0.757252 0.430725 -0.244537
C77   C     C_R   0.241103 0.115563 0.575281 -0.223659
C78   C     C_R   0.629445 0.293165 0.497374 0.115139
C79   C     C_R   0.684744 0.192968 0.497829 -0.030237
C80   C     C_R   0.308274 0.612773 0.503810 0.121460
C81   C     C_R   0.372970 0.291170 0.501784 0.122680
C82   C     C_R   0.691656 0.615567 0.498673 0.121255
C83   C     C_R   0.127206 0.791406 0.497741 0.128604
C84   C     C_R   0.805575 0.100673 0.504432 0.119464
C85   C     C_R   0.874776 0.791473 0.507678 0.129158
C86   C     C_R   0.192842 0.108920 0.495481 0.119299
C87   C     C_R   0.616312 0.266731 0.417279 -0.214675
C88   C     C_R   0.310099 0.618733 0.583130 -0.219724
C89   C     C_R   0.386645 0.263057 0.581277 -0.203001
C90   C     C_R   0.221342 0.656393 0.500948 -0.034052
C91   C     C_R   0.693315 0.615897 0.422176 -0.220737
C92   C     C_R   0.113669 0.764254 0.417670 -0.206231
C93   C     C_R   0.807748 0.109124 0.583481 -0.216180
C94   C     C_R   0.886435 0.768151 0.588824 -0.205468
C95   C     C_R   0.189501 0.118472 0.415490 -0.217900
C96   C     C_3   0.600426 0.225376 0.245444 -0.330677
C97   C     C_3   0.548115 0.192145 0.197667 -0.243358
C98   C     C_3   0.512978 0.214829 0.102857 -0.944125
C99   C     C_3   0.314090 0.631225 0.752573 -0.356906
C100  C     C_3   0.312855 0.562922 0.763946 -0.250297
C101  C     C_R   0.317107 0.191099 0.499018 -0.029052
C102  C     C_3   0.357419 0.542985 0.855341 -0.921861
C103  C     C_3   0.423676 0.189350 0.747828 -0.344282
C104  C     C_3   0.455023 0.130490 0.770785 -0.204943
C105  C     C_3   0.509423 0.137506 0.853941 -0.972764
C106  C     C_3   0.697015 0.617944 0.258923 -0.353635
C107  C     C_3   0.701991 0.549293 0.257137 -0.251817
C108  C     C_3   0.660994 0.523556 0.166865 -0.927128
C109  C     C_3   0.076983 0.690092 0.251652 -0.348600
C110  C     C_3   0.049663 0.628681 0.232670 -0.201674
C111  C     C_3   0.994307 0.631516 0.151933 -0.991262
C112  C     C_R   0.458785 0.406559 0.265944 -0.253357
C113  C     C_R   0.780768 0.657904 0.507516 -0.033673
C114  C     C_3   0.811445 0.123763 0.751654 -0.344369
C115  C     C_3   0.805691 0.055575 0.758060 -0.267082
C116  C     C_3   0.849890 0.030756 0.846364 -0.919521
C117  C     C_3   0.914928 0.711093 0.763592 -0.338362
C118  C     C_3   0.947314 0.653585 0.805583 -0.203838
C119  C     C_3   0.984678 0.660965 0.905194 -0.964414
C120  C     C_3   0.180759 0.140438 0.243728 -0.352540
C121  C     C_3   0.180302 0.073263 0.223504 -0.250672
C122  C     C_3   0.134229 0.057954 0.130994 -0.922080
C123  C     C_3   0.869571 0.428585 0.159465 -0.425391
C124  C     C_R   0.182622 0.691744 0.498678 -0.027521
C125  C     C_3   0.839616 0.488453 0.138652 -0.252745
C126  C     C_3   0.876872 0.542127 0.175094 -0.903976
C127  C     C_3   0.142561 0.635608 0.012201 -0.424691
C128  C     C_3   0.161735 0.571400 0.046816 -0.228005
C129  C     C_3   0.124048 0.538525 0.064153 -0.920119
C130  C     C_3   0.159114 0.304969 0.106583 -0.435116
C131  C     C_3   0.193052 0.343205 0.190235 -0.233208
C132  C     C_3   0.160302 0.371618 0.221941 -0.937137
C133  C     C_3   0.852766 0.644018 0.966347 -0.427647
C134  C     C_3   0.835031 0.579576 0.930895 -0.222993
C135  C     C_R   0.721122 0.152945 0.500626 -0.032828
C136  C     C_3   0.875151 0.547080 0.919161 -0.920307
C137  C     C_3   0.334086 0.788754 0.878326 -0.433625
C138  C     C_3   0.300087 0.828177 0.796054 -0.239481
C139  C     C_3   0.331787 0.853446 0.760296 -0.923086
C140  C     C_3   0.658004 0.168504 0.051593 -0.431211
C141  C     C_3   0.688271 0.111110 0.100189 -0.200645
C142  C     C_3   0.651024 0.059595 0.085020 -0.893339
C143  C     C_3   0.671956 0.775439 0.137003 -0.426304
C144  C     C_3   0.706269 0.814723 0.219304 -0.244108
C145  C     C_3   0.675609 0.837554 0.258380 -0.924563
C146  C     C_R   0.820237 0.692407 0.510867 -0.025270
C147  C     C_3   0.368827 0.104808 0.071833 -0.434582
C148  C     C_3   0.343027 0.044018 0.029745 -0.231575
C149  C     C_3   0.381865 0.000820 0.029163 -0.905576
C150  C     C_R   0.278748 0.154773 0.496546 -0.033013
C151  C     C_R   0.691142 0.212419 0.577943 -0.035313
C152  C     C_R   0.217018 0.642333 0.420761 -0.030584
C153  C     C_R   0.309945 0.212093 0.419226 -0.030998
C154  C     C_R   0.781489 0.649647 0.585840 -0.027724
C155  C     C_R   0.188592 0.710472 0.578397 -0.030494
C156  C     C_R   0.459903 0.590286 0.265179 -0.200112
C157  C     C_R   0.715855 0.135315 0.420909 -0.027356
C158  C     C_R   0.816833 0.707001 0.431624 -0.029879
C159  C     C_R   0.284642 0.137105 0.576854 -0.032144
C160  C     C_R   0.638508 0.197314 0.335398 0.014462
C161  C     C_R   0.268548 0.651756 0.662828 0.028284
C162  C     C_R   0.371123 0.183277 0.660548 0.008055
C163  C     C_R   0.739323 0.643977 0.347656 0.027513
C164  C     C_R   0.130289 0.687042 0.337314 0.008578
C165  C     C_R   0.767902 0.148260 0.662619 0.017056
C166  C     C_R   0.866506 0.697997 0.672590 0.009479
C167  C     C_R   0.541984 0.414061 0.739228 -0.264495
C168  C     C_R   0.228329 0.156534 0.334022 0.024850
C169  C     C_R   0.169542 0.652475 0.339205 0.437204
C170  C     C_R   0.729024 0.185057 0.658956 0.435255
C171  C     C_R   0.826291 0.664408 0.668747 0.430887
C172  C     C_R   0.269603 0.188112 0.337779 0.419109
C173  C     C_R   0.671230 0.151489 0.338836 0.426185
C174  C     C_R   0.227037 0.683270 0.658655 0.418911
C175  C     C_R   0.332835 0.146085 0.657943 0.435476
C176  C     C_R   0.781107 0.675825 0.353027 0.417271
C177  C     C_R   0.384064 0.637344 0.129668 0.145508
C178  C     C_R   0.039227 0.093073 0.732147 -0.198600
C179  C     C_R   0.617078 0.363101 0.872206 0.138658
C180  C     C_R   0.617887 0.632253 0.874754 0.149243
C181  C     C_R   0.389281 0.329643 0.166729 0.123518
C182  C     C_R   0.905677 0.199051 0.216431 0.129408
C183  C     C_R   0.111356 0.830721 0.833744 0.148375
C184  C     C_R   0.113408 0.146608 0.862964 0.145475
C185  C     C_R   0.889806 0.829086 0.167271 0.150026
C186  C     C_R   0.386315 0.704885 0.026929 -0.237538
C187  C     C_R   0.610513 0.277973 0.949254 -0.231035
C188  C     C_R   0.617586 0.696629 0.982472 -0.229672
C189  C     C_R   0.959440 0.905633 0.267138 -0.252260
C190  C     C_R   0.405657 0.227389 0.139902 -0.214992
C191  C     C_R   0.915732 0.306638 0.209378 -0.219187
C192  C     C_R   0.110549 0.755453 0.930021 -0.209499
C193  C     C_R   0.108086 0.219805 0.957437 -0.237717
C194  C     C_R   0.888759 0.758356 0.064258 -0.227055
C195  C     C_R   0.412395 0.672153 0.105051 -0.139895
C196  C     C_R   0.586752 0.321450 0.883768 -0.169456
C197  C     C_R   0.590468 0.665707 0.902634 -0.140042
C198  C     C_R   0.423861 0.285391 0.172457 -0.161220
C199  C     C_R   0.937891 0.249736 0.241856 -0.147256
C200  C     C_R   0.968059 0.109747 0.292885 -0.201391
C201  C     C_R   0.091254 0.809245 0.882606 -0.176853
C202  C     C_R   0.083724 0.184133 0.881863 -0.140913
C203  C     C_R   0.908519 0.810731 0.115015 -0.173525
C204  C     C_R   0.330889 0.629811 0.070789 -0.277455
C205  C     C_R   0.670406 0.366897 0.935086 -0.201003
C206  C     C_R   0.671200 0.624535 0.931891 -0.283417
C207  C     C_R   0.336847 0.315422 0.125497 -0.217299
C208  C     C_R   0.852772 0.205076 0.154535 -0.250341
C209  C     C_R   0.149622 0.797813 0.832252 -0.196097
C210  C     C_R   0.166415 0.139667 0.925149 -0.278510
C211  C     C_R   0.041113 0.906649 0.734105 -0.251405
C212  C     C_R   0.852950 0.794014 0.169989 -0.189076
C213  C     C_R   0.302791 0.670983 0.001790 0.089070
C214  C     C_R   0.695485 0.322565 0.000815 0.053109
C215  C     C_R   0.699944 0.665778 0.000522 0.089426
C216  C     C_R   0.319839 0.255789 0.106398 0.038871
C217  C     C_R   0.829144 0.261669 0.135386 0.073471
C218  C     C_R   0.175791 0.750981 0.891158 0.044309
C219  C     C_R   0.192713 0.179983 0.996010 0.083336
C220  C     C_R   0.826335 0.747963 0.109103 0.047154
C221  C     C_R   0.644361 0.582434 0.571447 -0.090768
C222  C     C_R   0.645351 0.218430 0.415754 0.043863
C223  C     C_R   0.375288 0.388301 0.427755 -0.177931
C224  C     C_R   0.355411 0.581929 0.428812 -0.087760
C225  C     C_R   0.624625 0.388342 0.572623 -0.173460
C226  C     C_R   0.145105 0.080622 0.571140 -0.080611
C227  C     C_R   0.875910 0.887472 0.428609 -0.186009
C228  C     C_R   0.853927 0.075471 0.429948 -0.031328
C229  C     C_R   0.124707 0.888235 0.572577 -0.180206
C230  C     C_R   0.331343 0.708628 0.977937 0.094241
C231  C     C_R   0.665278 0.274150 0.002503 0.120521
C232  C     C_R   0.672540 0.700848 0.029273 0.091803
H1    H     H_    0.513764 0.587922 0.758062 0.121795
H2    H     H_    0.312268 0.595032 0.085578 0.155315
H3    H     H_    0.448370 0.225463 0.747159 0.164151
H4    H     H_    0.417220 0.201141 0.801365 0.217044
H5    H     H_    0.621185 0.533838 0.151308 0.258883
H6    H     H_    0.665767 0.542937 0.114610 0.270750
H7    H     H_    0.665554 0.473888 0.167390 0.253414
H8    H     H_    0.741374 0.537641 0.271574 0.212796
H9    H     H_    0.697254 0.528007 0.308337 0.196098
H10   H     H_    0.657766 0.631063 0.243410 0.154202
H11   H     H_    0.699295 0.637217 0.204102 0.238900
H12   H     H_    0.970604 0.663221 0.164093 0.272326
H13   H     H_    0.309240 0.351008 0.110573 0.187078
H14   H     H_    0.994571 0.646531 0.093261 0.271477
H15   H     H_    0.976298 0.586098 0.138472 0.254901
H16   H     H_    0.071486 0.593901 0.220906 0.223849
H17   H     H_    0.048067 0.614470 0.290528 0.189615
H18   H     H_    0.050961 0.723882 0.253603 0.170114
H19   H     H_    0.081441 0.703169 0.196332 0.213508
H20   H     H_    0.888084 0.038712 0.853786 0.256121
H21   H     H_    0.849859 0.052695 0.901919 0.269197
H22   H     H_    0.844587 0.981491 0.849196 0.255320
H23   H     H_    0.767886 0.046140 0.751486 0.213920
H24   H     H_    0.689399 0.589397 0.916640 0.153371
H25   H     H_    0.805875 0.031601 0.703971 0.200305
H26   H     H_    0.850114 0.134981 0.762968 0.161138
H27   H     H_    0.811549 0.145642 0.807319 0.243079
H28   H     H_    0.010384 0.700496 0.919859 0.258068
H29   H     H_    0.962274 0.667390 0.937017 0.268836
H30   H     H_    0.009166 0.619971 0.933283 0.257770
H31   H     H_    0.921991 0.614054 0.793683 0.216010
H32   H     H_    0.970085 0.643615 0.775194 0.182588
H33   H     H_    0.941607 0.744589 0.763225 0.152183
H34   H     H_    0.902251 0.730401 0.806212 0.217362
H35   H     H_    0.157950 0.808254 0.782579 0.132525
H36   H     H_    0.096891 0.068723 0.125261 0.257031
H37   H     H_    0.136688 0.083805 0.080385 0.274050
H38   H     H_    0.134788 0.009106 0.118158 0.253665
H39   H     H_    0.217064 0.061474 0.227677 0.216050
H40   H     H_    0.177789 0.045562 0.272559 0.194434
H41   H     H_    0.144275 0.153781 0.239200 0.155653
H42   H     H_    0.180073 0.166691 0.190498 0.237568
H43   H     H_    0.179233 0.591846 0.271583 0.308719
H44   H     H_    0.694133 0.201790 0.720648 0.317148
H45   H     H_    0.813249 0.609969 0.738985 0.312638
H46   H     H_    0.829760 0.164371 0.128824 0.150306
H47   H     H_    0.304801 0.200857 0.275633 0.317443
H48   H     H_    0.673049 0.084228 0.271910 0.312428
H49   H     H_    0.188975 0.694472 0.716314 0.315265
H50   H     H_    0.325237 0.081871 0.723316 0.309571
H51   H     H_    0.821991 0.685427 0.299999 0.315063
H52   H     H_    0.903503 0.538469 0.247981 0.260791
H53   H     H_    0.900304 0.544207 0.144612 0.261427
H54   H     H_    0.854194 0.584520 0.159662 0.263148
H55   H     H_    0.813268 0.494124 0.066082 0.192213
H56   H     H_    0.815941 0.488508 0.168863 0.206080
H57   H     H_    0.846064 0.802902 0.221729 0.127812
H58   H     H_    0.897016 0.426723 0.232415 0.188860
H59   H     H_    0.892774 0.429050 0.128404 0.192044
H60   H     H_    0.118086 0.564512 0.110767 0.291351
H61   H     H_    0.085769 0.532056 0.001314 0.255444
H62   H     H_    0.140226 0.493605 0.093297 0.251667
H63   H     H_    0.164803 0.544994 0.997206 0.199089
H64   H     H_    0.200628 0.573455 0.109653 0.216914
H65   H     H_    0.143359 0.662117 0.065440 0.213068
H66   H     H_    0.101339 0.632053 0.955715 0.196525
H67   H     H_    0.129081 0.400227 0.169180 0.263120
H68   H     H_    0.187170 0.106559 0.911963 0.156096
H69   H     H_    0.142334 0.336048 0.240650 0.263639
H70   H     H_    0.185561 0.400188 0.280769 0.254168
H71   H     H_    0.223540 0.314558 0.244258 0.223891
H72   H     H_    0.212112 0.380122 0.175904 0.205772
H73   H     H_    0.131844 0.335304 0.051518 0.183705
H74   H     H_    0.135713 0.273810 0.120355 0.191172
H75   H     H_    0.885626 0.574554 0.879494 0.290355
H76   H     H_    0.911115 0.538090 0.984661 0.256675
H77   H     H_    0.858901 0.503364 0.885163 0.252472
H78   H     H_    0.830204 0.552692 0.977931 0.204520
H79   H     H_    0.544901 0.319150 0.837784 0.118043
H80   H     H_    0.797106 0.581267 0.866293 0.213584
H81   H     H_    0.848035 0.673111 0.912169 0.226013
H82   H     H_    0.894853 0.641564 0.017794 0.204214
H83   H     H_    0.364816 0.880965 0.811645 0.263896
H84   H     H_    0.347169 0.816208 0.739331 0.261433
H85   H     H_    0.306465 0.882474 0.702111 0.253466
H86   H     H_    0.267446 0.801144 0.743083 0.221750
H87   H     H_    0.283940 0.866793 0.813267 0.206935
H88   H     H_    0.363407 0.818180 0.932674 0.182589
H89   H     H_    0.355135 0.756106 0.861469 0.189458
H90   H     H_    0.454378 0.676144 0.147643 0.114891
H91   H     H_    0.623243 0.073341 0.103865 0.287635
H92   H     H_    0.628546 0.046151 0.014280 0.252788
H93   H     H_    0.673664 0.020077 0.125527 0.247346
H94   H     H_    0.712900 0.096345 0.075152 0.199008
H95   H     H_    0.713596 0.120193 0.172306 0.225881
H96   H     H_    0.635242 0.183300 0.080202 0.205744
H97   H     H_    0.630167 0.155812 0.981343 0.197290
H98   H     H_    0.641572 0.864635 0.208739 0.262826
H99   H     H_    0.661801 0.799069 0.280039 0.262700
H100  H     H_    0.701169 0.866422 0.316678 0.253980
H101  H     H_    0.465174 0.294654 0.205239 0.119974
H102  H     H_    0.739896 0.788199 0.270761 0.220123
H103  H     H_    0.720934 0.854413 0.201299 0.206621
H104  H     H_    0.641090 0.804721 0.084738 0.184351
H105  H     H_    0.652888 0.740811 0.155081 0.188411
H106  H     H_    0.396959 0.020105 0.990131 0.266422
H107  H     H_    0.415028 0.991967 0.097728 0.257982
H108  H     H_    0.362192 0.957400 0.998580 0.252570
H109  H     H_    0.328071 0.022798 0.067891 0.199700
H110  H     H_    0.310157 0.051098 0.960279 0.215219
H111  H     H_    0.385231 0.123207 0.034227 0.199560
H112  H     H_    0.485436 0.401784 0.244239 0.122237
H113  H     H_    0.548425 0.669727 0.861723 0.113344
H114  H     H_    0.401596 0.096240 0.140919 0.186408
H115  H     H_    0.060058 0.832836 0.882347 0.115709
H116  H     H_    0.979489 0.245713 0.289085 0.122321
H117  H     H_    0.938712 0.836042 0.114408 0.117740
H118  H     H_    0.041966 0.188143 0.836174 0.117767
H119  H     H_    0.409837 0.731992 0.011412 0.124702
H120  H     H_    0.585546 0.245259 0.953096 0.127806
H121  H     H_    0.594775 0.721976 0.001350 0.122548
H122  H     H_    0.433488 0.194668 0.145643 0.130642
H123  H     H_    0.941886 0.344687 0.229022 0.123462
H124  H     H_    0.487122 0.590291 0.244091 0.122002
H125  H     H_    0.093365 0.739235 0.965374 0.122555
H126  H     H_    0.083761 0.249771 0.967553 0.127307
H127  H     H_    0.904896 0.744940 0.025927 0.129853
H128  H     H_    0.762490 0.416613 0.053745 0.125694
H129  H     H_    0.234432 0.606894 0.028048 0.137418
H130  H     H_    0.261004 0.314626 0.153783 0.151232
H131  H     H_    0.762169 0.613632 0.950585 0.144483
H132  H     H_    0.236984 0.805057 0.843185 0.141113
H133  H     H_    0.764093 0.179848 0.137487 0.154223
H134  H     H_    0.769089 0.792349 0.172376 0.135185
H135  H     H_    0.515299 0.414837 0.761405 0.126484
H136  H     H_    0.265012 0.097284 0.015928 0.131569
H137  H     H_    0.677946 0.576239 0.637422 0.149552
H138  H     H_    0.348031 0.375835 0.360332 0.136031
H139  H     H_    0.321993 0.576101 0.362662 0.150073
H140  H     H_    0.650686 0.375455 0.640404 0.139051
H141  H     H_    0.178397 0.075010 0.637446 0.151403
H142  H     H_    0.849241 0.873437 0.361561 0.130615
H143  H     H_    0.820664 0.065657 0.364866 0.131985
H144  H     H_    0.151437 0.875418 0.640140 0.126752
H145  H     H_    0.583795 0.582523 0.356185 0.087351
H146  H     H_    0.011675 0.094675 0.752487 0.123398
H147  H     H_    0.444921 0.374877 0.642988 0.090444
H148  H     H_    0.416519 0.581279 0.644138 0.087224
H149  H     H_    0.559362 0.377427 0.357344 0.084551
H150  H     H_    0.084632 0.077690 0.356421 0.090628
H151  H     H_    0.942094 0.878242 0.643667 0.086498
H152  H     H_    0.915595 0.076043 0.644463 0.090010
H153  H     H_    0.058854 0.876579 0.357792 0.087306
H154  H     H_    0.672212 0.282348 0.638344 0.141791
H155  H     H_    0.259537 0.619461 0.362096 0.139270
H156  H     H_    0.330446 0.281342 0.360363 0.129617
H157  H     H_    0.985951 0.901067 0.245147 0.120176
H158  H     H_    0.734176 0.634593 0.637793 0.142594
H159  H     H_    0.168239 0.779136 0.638838 0.116897
H160  H     H_    0.756116 0.102883 0.362635 0.134494
H161  H     H_    0.838069 0.773370 0.368842 0.115859
H162  H     H_    0.244079 0.108357 0.637095 0.138491
H163  H     H_    0.585399 0.286232 0.356685 0.110549
H164  H     H_    0.345976 0.608548 0.644376 0.117002
H165  H     H_    0.413715 0.285491 0.642263 0.101330
H166  H     H_    0.659335 0.601151 0.360862 0.117225
H167  H     H_    0.086956 0.786971 0.356700 0.102773
H168  H     H_    0.998938 0.121891 0.283078 0.130337
H169  H     H_    0.843628 0.099028 0.644807 0.118137
H170  H     H_    0.910924 0.793677 0.647756 0.102395
H171  H     H_    0.152820 0.110550 0.354591 0.117001
H172  H     H_    0.322965 0.637742 0.207702 0.311332
H173  H     H_    0.672583 0.450864 0.740247 0.319218
H174  H     H_    0.678142 0.634949 0.794849 0.310398
H175  H     H_    0.327861 0.450277 0.258882 0.319525
H176  H     H_    0.846103 0.169459 0.282187 0.311925
H177  H     H_    0.172714 0.950087 0.743478 0.317509
H178  H     H_    0.174847 0.142855 0.786447 0.311826
H179  H     H_    0.014784 0.902242 0.756495 0.119008
H180  H     H_    0.826969 0.946844 0.256665 0.309262
H181  H     H_    0.502927 0.262954 0.102728 0.263041
H182  H     H_    0.532798 0.209898 0.066313 0.262509
H183  H     H_    0.476486 0.187967 0.067859 0.252856
H184  H     H_    0.554678 0.143045 0.195712 0.225250
H185  H     H_    0.528452 0.198980 0.234126 0.181797
H186  H     H_    0.594754 0.274253 0.249667 0.151491
H187  H     H_    0.617410 0.223560 0.204043 0.221331
H188  H     H_    0.395597 0.554541 0.864726 0.255998
H189  H     H_    0.354254 0.565296 0.907656 0.273929
H190  H     H_    0.692653 0.401135 0.927203 0.181193
H191  H     H_    0.355601 0.493445 0.861875 0.254053
H192  H     H_    0.275193 0.550147 0.755836 0.215794
H193  H     H_    0.316112 0.538733 0.713000 0.194961
H194  H     H_    0.351695 0.645585 0.762035 0.155006
H195  H     H_    0.313238 0.653519 0.807064 0.238037
H196  H     H_    0.532182 0.170930 0.842239 0.260128
H197  H     H_    0.506856 0.152404 0.910518 0.270746
H198  H     H_    0.530218 0.093652 0.870930 0.258926
H199  H     H_    0.434614 0.093485 0.781784 0.229649
H200  H     H_    0.459027 0.117401 0.714969 0.188456
N1    N     N_R   0.532970 0.559900 0.665210 -0.062774
N2    N     N_R   0.402100 0.440070 0.454470 -0.047725
N3    N     N_R   0.402100 0.559930 0.454470 -0.043441
N4    N     N_R   0.597900 0.440070 0.545530 -0.048678
N5    N     N_R   0.097900 0.059930 0.545530 -0.043479
N6    N     N_R   0.902100 0.940070 0.454470 -0.049537
N7    N     N_R   0.902100 0.059930 0.454470 -0.043982
N8    N     N_R   0.097900 0.940070 0.545530 -0.047174
N9    N     N_R   0.567170 0.559950 0.454460 -0.041280
N10   N     N_R   0.432830 0.440050 0.545540 -0.036522
N11   N     N_R   0.432830 0.559950 0.545540 -0.041309
N12   N     N_R   0.467030 0.440100 0.334790 -0.055141
N13   N     N_R   0.567170 0.440050 0.454460 -0.036718
N14   N     N_R   0.067170 0.059950 0.454460 -0.040914
N15   N     N_R   0.932830 0.940050 0.545540 -0.036731
N16   N     N_R   0.932830 0.059950 0.545540 -0.043792
N17   N     N_R   0.067170 0.940050 0.454460 -0.036060
N18   N     N_R   0.421470 0.559970 0.334770 -0.074232
N19   N     N_R   0.578530 0.440030 0.665230 -0.100851
N20   N     N_R   0.578530 0.559970 0.665230 -0.074508
N21   N     N_R   0.421470 0.440030 0.334770 -0.097709
N22   N     N_R   0.921470 0.059970 0.334770 -0.076423
N23   N     N_R   0.467030 0.559900 0.334790 -0.063273
N24   N     N_R   0.078530 0.940030 0.665230 -0.098545
N25   N     N_R   0.078530 0.059970 0.665230 -0.074597
N26   N     N_R   0.921470 0.940030 0.334770 -0.098907
N27   N     N_R   0.532970 0.440100 0.665210 -0.055222
N28   N     N_R   0.032970 0.059900 0.665210 -0.063223
N29   N     N_R   0.967030 0.940100 0.334790 -0.054014
N30   N     N_R   0.967030 0.059900 0.334790 -0.062786
N31   N     N_R   0.032970 0.940100 0.665210 -0.054424
N32   N     N_R   0.597900 0.559930 0.545530 -0.042997
Ni1   Ni    Ni4+2 0.483030 0.500000 0.604430 0.199202
Ni2   Ni    Ni4+2 0.516970 0.500000 0.395570 0.201446
Ni3   Ni    Ni4+2 0.983030 1.000000 0.604430 0.199443
Ni4   Ni    Ni4+2 0.016970 1.000000 0.395570 0.202753
Ni5   Ni    Ni4+2 0.587400 0.500000 0.604430 0.232188
Ni6   Ni    Ni4+2 0.412600 0.500000 0.395570 0.231091
Ni7   Ni    Ni4+2 0.087400 1.000000 0.604430 0.231088
Ni8   Ni    Ni4+2 0.912600 1.000000 0.395570 0.221350
O1    O     O_3   0.335813 0.599803 0.241845 -0.810463
O2    O     O_3   0.730311 0.195576 0.735942 -0.766426
O3    O     O_3   0.830763 0.649234 0.747110 -0.786687
O4    O     O_3   0.268508 0.196709 0.260704 -0.782987
O5    O     O_3   0.660830 0.126593 0.260451 -0.789146
O6    O     O_3   0.225477 0.687438 0.733801 -0.784108
O7    O     O_3   0.342724 0.121603 0.736280 -0.770646
O8    O     O_3   0.785352 0.676704 0.280305 -0.784603
O9    O     O_3   0.668467 0.423069 0.779269 -0.790327
O10   O     O_3   0.664859 0.597331 0.759959 -0.813250
O11   O     O_3   0.332392 0.418520 0.224705 -0.818333
O12   O     O_3   0.848201 0.124956 0.283241 -0.818331
O13   O     O_3   0.167620 0.919042 0.777844 -0.792368
O14   O     O_3   0.163004 0.103986 0.754502 -0.802542
O15   O     O_3   0.832727 0.915196 0.223818 -0.790914
O16   O     O_3   0.160882 0.630875 0.260217 -0.786240

loop_
_geom_bond_atom_site_label_1
_geom_bond_atom_site_label_2
_ccdc_geom_bond_type
C136  H77   S    
C34   N9    A    
C29   C133  S    
C196  H79   S    
C103  H4    S    
C7    C29   A    
C132  H67   S    
C73   C82   A    
C160  C222  A    
C106  H11   S    
N7    N16   A    
C66   C85   S    
C114  C115  S    
C41   C67   A    
C116  H22   S    
C227  H142  S    
C125  H55   S    
C49   C60   A    
C14   C21   A    
C35   C124  A    
C181  C207  A    
C97   H185  S    
C61   C82   S    
C54   C156  A    
C10   C215  A    
C106  C107  S    
C181  C198  A    
C143  C144  S    
N7    Ni8   S    
C50   N25   A    
N1    Ni1   S    
C2    C90   A    
C110  C111  S    
N25   Ni7   S    
C44   N19   A    
C204  H2    S    
C33   C147  S    
C100  H193  S    
H176  O12   S    
C11   C15   A    
C1    H1    S    
C31   C231  A    
C66   C227  A    
C133  H81   S    
C137  H88   S    
H43   O16   S    
C74   C83   A    
C223  N2    A    
C130  H74   S    
C117  H34   S    
C11   C216  A    
C47   C53   A    
C187  C231  A    
C75   C157  A    
C119  H28   S    
H178  O14   S    
C39   C65   A    
C4    C191  A    
C133  H82   S    
C36   C62   A    
C214  C231  A    
C104  C105  S    
C37   C63   A    
C38   C64   A    
C45   O10   S    
C110  H17   S    
C21   H132  S    
C150  C159  A    
C71   H155  S    
C183  C201  A    
C65   C86   S    
C47   O11   S    
C73   H158  S    
C90   C152  A    
C141  H94   S    
C47   N21   A    
C191  H123  S    
C57   C166  A    
C56   C184  S    
N29   Ni4   S    
C34   C61   A    
C171  O3    S    
C82   C91   A    
C113  C146  A    
C59   C182  S    
N16   Ni3   S    
C102  H191  S    
C131  H72   S    
C43   C54   A    
C71   C152  A    
C129  H61   S    
C117  C166  S    
C167  H135  S    
C177  C204  A    
N5    Ni7   S    
C99   H194  S    
C106  C163  S    
C198  H101  S    
C93   H169  S    
C151  C170  A    
C121  H40   S    
C166  C171  A    
C77   C159  A    
C197  H113  S    
C62   C81   S    
C205  C214  A    
N24   N31   A    
C132  H69   S    
N25   N28   A    
N6    N15   A    
C120  C168  S    
C79   C222  A    
C208  C217  A    
C128  H64   S    
C109  H19   S    
C177  C195  A    
C1    N1    A    
C182  C199  A    
C98   H182  S    
C144  C145  S    
C51   N26   A    
C120  H42   S    
C186  C230  A    
C167  N27   A    
C107  H8    S    
C144  H102  S    
N23   Ni2   S    
C130  C131  S    
C80   C88   A    
C39   H150  S    
C10   C16   A    
C127  H66   S    
C161  C174  A    
C44   C55   A    
C43   O1    S    
N12   N21   A    
C111  H14   S    
C207  C216  A    
C182  C208  A    
C84   C93   A    
N1    N20   A    
C142  H93   S    
C86   C95   A    
C97   H184  S    
C108  H5    S    
C203  H117  S    
H50   O7    S    
C107  H9    S    
N26   Ni8   S    
C40   H151  S    
C194  H127  S    
C139  H85   S    
C78   C87   A    
H175  O11   S    
C32   C232  A    
C135  C157  A    
C46   C165  A    
H173  O9    S    
C160  C173  A    
C147  C148  S    
C38   N13   A    
C128  C129  S    
C38   H149  S    
C97   C98   S    
C122  H36   S    
C147  H114  S    
C56   C178  A    
H51   O8    S    
C188  C197  A    
C131  H71   S    
C34   H145  S    
C178  N28   A    
C112  H112  S    
C137  H89   S    
C75   C84   A    
C15   C25   A    
N19   N27   A    
N8    N17   A    
C12   C22   A    
C149  H106  S    
C123  H58   S    
C200  N30   A    
C122  H37   S    
C205  H190  S    
C5    C27   A    
C6    C28   A    
C118  H31   S    
C87   H163  S    
C74   C155  A    
C107  C108  S    
C176  O8    S    
C114  H27   S    
C28   C130  S    
C169  O16   S    
C100  H192  S    
C18   H129  S    
N6    Ni8   S    
C40   N15   A    
N12   Ni2   S    
C226  N5    A    
C207  H13   S    
C64   C225  A    
C1    C52   A    
C36   N10   A    
C63   C80   S    
C49   O13   S    
C223  H138  S    
C215  C232  A    
C115  H25   S    
C10   C20   A    
C200  H168  S    
C122  H38   S    
N8    Ni7   S    
C162  C175  A    
C45   C52   A    
C62   C223  A    
C50   C56   A    
C210  C219  A    
C148  H110  S    
C142  H91   S    
C105  H196  S    
C69   C229  A    
C136  H76   S    
C174  O6    S    
C108  H7    S    
C59   C200  A    
C140  H96   S    
C95   H171  S    
C7    C194  A    
C19   C28   A    
C138  H86   S    
C43   N18   A    
C139  H83   S    
C7    C220  A    
C68   C168  A    
C155  C174  A    
C16   C23   A    
C57   C94   A    
C126  H54   S    
C99   H195  S    
C15   C219  A    
C120  C121  S    
C114  C165  S    
C188  H121  S    
C158  C176  A    
C121  H39   S    
C103  H3    S    
C141  H95   S    
C25   H136  S    
C55   C179  S    
C14   C218  A    
C70   C151  A    
C186  H119  S    
C146  C158  A    
C44   O9    S    
C149  H108  S    
C20   H131  S    
C189  H157  S    
C228  H143  S    
C117  C118  S    
C225  H140  S    
H180  O15   S    
C76   C85   A    
N3    Ni6   S    
C154  C171  A    
C16   C220  A    
C104  H199  S    
C9    C12   A    
C210  H68   S    
C68   C150  A    
C187  H120  S    
C213  C230  A    
N2    N10   A    
C77   H162  S    
C111  H15   S    
C124  C155  A    
N15   Ni3   S    
C39   N14   A    
C75   H160  S    
C40   C66   A    
C31   C140  S    
C229  H144  S    
C117  H33   S    
C212  H57   S    
C25   C33   A    
C206  C215  A    
C187  C196  A    
N22   N30   A    
C37   H148  S    
C55   C167  A    
C113  C154  A    
N22   Ni8   S    
C179  C205  A    
C13   C162  A    
C11   C19   A    
C111  H12   S    
C48   C59   A    
N4    Ni5   S    
C105  H198  S    
C123  C125  S    
C119  H30   S    
C3    C33   A    
C101  C150  A    
N24   Ni7   S    
C145  H99   S    
N14   Ni4   S    
C225  N4    A    
C41   N16   A    
C46   C135  A    
C99   C161  S    
C27   C127  S    
N11   Ni1   S    
C129  H60   S    
C126  H52   S    
C73   C154  A    
C112  N12   A    
C192  C201  A    
C123  H59   S    
H172  O1    S    
C202  H118  S    
C72   C81   A    
C178  H146  S    
C96   H187  S    
C179  C196  A    
C81   C89   A    
C35   C92   A    
C144  H103  S    
C60   C183  S    
C30   C137  S    
C132  H70   S    
C57   C146  A    
C74   H159  S    
C58   C185  S    
H177  O13   S    
C229  N8    A    
C64   C78   S    
C106  H10   S    
C89   H165  S    
C116  H21   S    
C109  H18   S    
C68   C95   A    
C19   H130  S    
C98   H183  S    
C8    C213  A    
C3    C190  A    
C3    C216  A    
C190  H122  S    
C8    C18   A    
C193  C202  A    
C170  O2    S    
C49   N24   A    
C224  H139  S    
C127  H65   S    
N5    N14   A    
C212  C220  A    
C5    C218  A    
C156  H124  S    
C51   C58   A    
C76   H161  S    
C140  C141  S    
C121  C122  S    
C108  H6    S    
C133  C134  S    
C24   C163  A    
C209  C218  A    
C131  C132  S    
C12   C217  A    
C190  C198  A    
C110  H16   S    
C165  C170  A    
C209  H35   S    
C103  C162  S    
C72   C153  A    
C90   C124  A    
N20   Ni5   S    
C109  C164  S    
C4    C26   A    
C184  C210  A    
C130  H73   S    
C9    C214  A    
C102  H189  S    
C79   C135  A    
C21   C30   A    
C35   C164  A    
C172  O4    S    
C54   C177  S    
N4    N13   A    
C91   H166  S    
C23   C32   A    
C185  C203  A    
C45   N20   A    
C221  H137  S    
C109  C110  S    
C152  C169  A    
C129  H62   S    
C65   C226  A    
C72   H156  S    
C60   C211  A    
C61   C221  A    
C138  C139  S    
C199  H116  S    
C51   O15   S    
N30   Ni4   S    
C168  C172  A    
C118  H32   S    
H45   O3    S    
C103  C104  S    
C228  N7    A    
N27   Ni1   S    
C227  N6    A    
C188  C232  A    
C6    C193  A    
N21   Ni6   S    
C115  C116  S    
C157  C173  A    
C42   N17   A    
N32   Ni5   S    
H174  O10   S    
C70   C78   A    
C41   H152  S    
C98   H181  S    
C22   H133  S    
C206  H24   S    
C120  H41   S    
C119  H29   S    
H48   O5    S    
C208  H46   S    
C83   C92   A    
C46   C93   A    
C76   C158  A    
C17   C26   A    
C191  C199  A    
N13   Ni2   S    
C156  N23   A    
N3    N11   A    
C153  C172  A    
C23   H134  S    
C142  H92   S    
C118  C119  S    
C32   C143  S    
C180  C197  A    
N18   N23   A    
N26   N29   A    
C2    C88   A    
C195  H90   S    
C138  H87   S    
C125  H56   S    
C67   C84   S    
C143  H105  S    
C159  C175  A    
N31   Ni3   S    
N9    N32   A    
C164  C169  A    
C37   N11   A    
C180  C206  A    
C163  C176  A    
C2    C161  A    
C71   C80   A    
C96   H186  S    
C50   O14   S    
C42   H153  S    
C147  H111  S    
C20   C29   A    
C145  H100  S    
C184  C202  A    
C22   C31   A    
N2    Ni6   S    
C87   C222  A    
C186  C195  A    
C148  C149  S    
C102  H188  S    
C175  O7    S    
N17   Ni4   S    
C134  C136  S    
C116  H20   S    
C204  C213  A    
C42   C69   A    
C149  H107  S    
C94   H170  S    
C52   C180  S    
C69   C83   S    
C53   C181  S    
C85   C94   A    
C99   C100  S    
C101  C153  A    
C173  O5    S    
C96   C97   S    
C58   C189  A    
C100  C102  S    
C185  C212  A    
H49   O6    S    
C104  H200  S    
C140  H97   S    
C114  H26   S    
C6    C219  A    
C193  H126  S    
C53   C112  A    
C9    C17   A    
C96   C160  S    
C17   H128  S    
C134  H78   S    
C77   C86   A    
C224  N3    A    
C192  H125  S    
C48   O12   S    
N10   Ni1   S    
C13   C101  A    
C24   C91   A    
C70   H154  S    
C201  H115  S    
C79   C151  A    
C92   H167  S    
H47   O4    S    
C88   H164  S    
C8    C14   A    
C13   C89   A    
C221  N32   A    
H44   O2    S    
C63   C224  A    
C18   C27   A    
C5    C192  A    
C189  N29   A    
N18   Ni6   S    
C183  C209  A    
C137  C138  S    
C143  H104  S    
C148  H109  S    
C30   C230  A    
C105  H197  S    
C141  C142  S    
C136  H75   S    
C125  C126  S    
C128  H63   S    
C67   C228  A    
C194  C203  A    
N28   Ni3   S    
C145  H98   S    
N19   Ni5   S    
C211  H179  S    
C139  H84   S    
C24   C113  A    
C36   H147  S    
C115  H23   S    
C226  H141  S    
C4    C217  A    
C26   C123  S    
C126  H53   S    
C48   N22   A    
N9    Ni2   S    
C211  N31   A    
C127  C128  S    
C134  H80   S    
