data_mof_unit_22024.cif
_audit_creation_date              2012-12-11T15:21:39-0500
_audit_creation_method            fapswitch 2.2
_symmetry_space_group_name_H-M    P1
_symmetry_Int_Tables_number       1
_space_group_crystal_system       triclinic
_cell_length_a                    19.145992
_cell_length_b                    7.150044
_cell_length_c                    17.683912
_cell_angle_alpha                 90.011241
_cell_angle_beta                  108.976871
_cell_angle_gamma                 90.015179
_cell_volume                      2289.26089363

loop_
_atom_site_label
_atom_site_type_symbol
_atom_type_description
_atom_site_fract_x
_atom_site_fract_y
_atom_site_fract_z
_atom_type_partial_charge
O1    O     O_R   0.562310 0.505770 0.439670 -0.537009
O2    O     O_R   0.437690 0.005770 0.560330 -0.536563
O3    O     O_R   0.411650 0.169150 0.405330 -0.536961
O4    O     O_R   0.588350 0.669150 0.594670 -0.538647
C1    C     C_R   0.384949 0.345382 0.382773 0.637733
C2    C     C_R   0.615204 0.845409 0.617059 0.637735
O5    O     O_R   0.560140 0.175610 0.430010 -0.540034
O6    O     O_R   0.439860 0.675610 0.569990 -0.540273
O7    O     O_R   0.587240 0.012100 0.585200 -0.539346
O8    O     O_R   0.412760 0.512100 0.414800 -0.539810
C3    C     C_R   0.580949 0.344611 0.414771 0.698720
C4    C     C_R   0.419064 0.844605 0.585241 0.701151
O9    O     O_3   0.508720 0.341420 0.550890 -0.371938
O10   O     O_3   0.491280 0.841420 0.449110 -0.371714
V1    V     V_3+5 0.498380 0.063930 0.490560 1.380391
V2    V     V_3+5 0.501620 0.563930 0.509440 1.378335
C5    C     C_R   0.177208 0.066094 0.863141 -0.223026
C6    C     C_R   0.822855 0.566062 0.136918 -0.223574
C7    C     C_R   0.129943 0.916223 0.864701 -0.079508
C8    C     C_R   0.870105 0.416228 0.135349 -0.079981
C9    C     C_R   0.130846 0.754492 0.819484 -0.220708
C10   C     C_R   0.869209 0.254565 0.180583 -0.220244
C11   C     C_R   0.177832 0.742147 0.772993 0.087983
C12   C     C_R   0.822230 0.242237 0.227085 0.088904
C13   C     C_R   0.225745 0.891935 0.772709 0.054802
C14   C     C_R   0.774323 0.391974 0.227365 0.054453
C15   C     C_R   0.225611 0.054127 0.818209 0.091027
C16   C     C_R   0.774460 0.554107 0.181859 0.091137
C17   C     C_R   0.177825 0.582489 0.726771 -0.192728
C18   C     C_R   0.822235 0.082644 0.273317 -0.191826
C19   C     C_R   0.225420 0.570279 0.681321 -0.183670
C20   C     C_R   0.774637 0.070437 0.318765 -0.187378
C21   C     C_R   0.274102 0.717186 0.681445 0.090113
C22   C     C_R   0.725954 0.217282 0.318629 0.090175
C23   C     C_R   0.273968 0.879371 0.726951 0.054399
C24   C     C_R   0.726096 0.379411 0.273120 0.054563
C25   C     C_R   0.321898 0.029137 0.726693 0.090154
C26   C     C_R   0.678166 0.529120 0.273365 0.089513
C27   C     C_R   0.321881 0.188831 0.772883 -0.194951
C28   C     C_R   0.678192 0.688761 0.227174 -0.194771
C29   C     C_R   0.274271 0.201065 0.818310 -0.188757
C30   C     C_R   0.725807 0.700994 0.181753 -0.188596
C31   C     C_R   0.322546 0.705180 0.636556 -0.218965
C32   C     C_R   0.677496 0.205267 0.363505 -0.224623
C33   C     C_R   0.369881 0.854973 0.635091 -0.080982
C34   C     C_R   0.630154 0.354994 0.364948 -0.081073
C35   C     C_R   0.368945 0.016724 0.680280 -0.222338
C36   C     C_R   0.631105 0.516698 0.319762 -0.222837
H1    H     H_    0.177418 0.190673 0.898186 0.122892
H2    H     H_    0.822646 0.690596 0.101866 0.122928
H3    H     H_    0.094412 0.638620 0.819847 0.131478
H4    H     H_    0.905637 0.138733 0.180218 0.129483
H5    H     H_    0.141227 0.466381 0.726071 0.135049
H6    H     H_    0.858830 0.966578 0.274023 0.135123
H7    H     H_    0.322335 0.580627 0.601492 0.124615
H8    H     H_    0.677700 0.080757 0.398569 0.123713
H9    H     H_    0.405412 0.132556 0.679968 0.128832
H10   H     H_    0.594636 0.632482 0.320062 0.129085
H11   H     H_    0.358481 0.304936 0.773588 0.132351
H12   H     H_    0.641594 0.804821 0.226462 0.132765
H13   H     H_    0.275295 0.326098 0.853292 0.133894
H14   H     H_    0.724788 0.825982 0.146766 0.133900
C37   C     C_3   0.790345 0.699989 0.794873 -0.365335
C38   C     C_3   0.212828 0.201910 0.200772 -0.347518
H15   H     H_    0.835204 0.621422 0.781613 0.153842
H16   H     H_    0.168941 0.112759 0.210735 0.144863
H17   H     H_    0.783447 0.636451 0.849495 0.152532
H18   H     H_    0.221891 0.150402 0.145260 0.148190
C39   C     C_3   0.717684 0.673549 0.724426 -0.344485
C40   C     C_3   0.284885 0.174832 0.272015 -0.343922
H19   H     H_    0.676326 0.601200 0.746105 0.147083
H20   H     H_    0.327629 0.109444 0.250369 0.146425
H21   H     H_    0.728184 0.582413 0.678234 0.140002
H22   H     H_    0.274329 0.077311 0.316161 0.149154
H23   H     H_    0.865075 0.906477 0.718291 0.102141
H24   H     H_    0.136906 0.373230 0.283601 0.110026
H25   H     H_    0.758850 0.874420 0.612873 0.107842
H26   H     H_    0.242996 0.360140 0.388954 0.100056
C41   C     C_3   0.820873 0.989030 0.731183 0.084320
C42   C     C_3   0.177295 0.471314 0.271524 0.076209
C43   C     C_3   0.746742 0.010228 0.826967 -0.333798
C44   C     C_3   0.251630 0.523100 0.176160 -0.327563
C45   C     C_3   0.812472 0.911542 0.810365 0.111973
C46   C     C_3   0.187198 0.411873 0.190111 0.074539
H27   H     H_    0.758817 0.161029 0.840157 0.144816
H28   H     H_    0.237974 0.674005 0.166521 0.134541
H29   H     H_    0.738539 0.948357 0.881208 0.124250
H30   H     H_    0.260464 0.472381 0.120457 0.128790
C47   C     C_3   0.686951 0.864716 0.687454 0.107399
C48   C     C_3   0.313204 0.364650 0.312433 0.075571
C49   C     C_3   0.747480 0.961329 0.659771 -0.354821
C50   C     C_3   0.251693 0.450478 0.341538 -0.276460
C51   C     C_3   0.674475 0.987660 0.754738 -0.319279
C52   C     C_3   0.324304 0.497862 0.247490 -0.315905
H31   H     H_    0.630917 0.923672 0.775478 0.124779
H32   H     H_    0.368126 0.441088 0.225247 0.126345
H33   H     H_    0.726633 0.098016 0.631260 0.145827
H34   H     H_    0.270217 0.589121 0.369591 0.161341
O11   O     O_R   0.087220 0.271820 0.085230 -0.543579
O12   O     O_R   0.912780 0.771820 0.914770 -0.548914
O13   O     O_R   0.939860 0.595540 0.069990 -0.542452
O14   O     O_R   0.060140 0.095540 0.930010 -0.536983
C53   C     C_R   0.919165 0.426549 0.085362 0.693992
C54   C     C_R   0.080857 0.926555 0.914662 0.702266
O15   O     O_R   0.088340 0.601930 0.094680 -0.539392
O16   O     O_R   0.911660 0.101930 0.905320 -0.514112
O17   O     O_R   0.062310 0.765410 0.939660 -0.537996
O18   O     O_R   0.937690 0.265410 0.060340 -0.538832
C55   C     C_R   0.115676 0.431585 0.118524 0.640130
C56   C     C_R   0.884107 0.931534 0.881774 0.675321
O19   O     O_3   0.991270 0.429630 0.949130 -0.364879
O20   O     O_3   0.008730 0.929630 0.050870 -0.377787
V3    V     V_3+5 0.001620 0.707150 0.009440 1.374931
V4    V     V_3+5 0.998380 0.207150 0.990560 1.409735
H35   H     H_    0.654432 0.128785 0.730903 0.147915
H36   H     H_    0.343335 0.637654 0.273849 0.150207
N1    N     N_3   0.844179 0.185685 0.739291 -0.666926
H37   H     H_    0.858094 0.222984 0.688800 0.218935
H38   H     H_    0.800118 0.271307 0.739858 0.230627
N2    N     N_3   0.148017 0.661176 0.271190 -0.682344
H39   H     H_    0.092592 0.664853 0.235282 0.234921
H40   H     H_    0.177568 0.757296 0.249101 0.235452
H41   H     H_    0.224387 0.445262 0.646326 0.136434
H42   H     H_    0.775665 0.945464 0.353764 0.134990

loop_
_geom_bond_atom_site_label_1
_geom_bond_atom_site_label_2
_ccdc_geom_bond_type
C26   C28   A    
C42   N2    S    
O12   C56   A    
C28   H12   S    
O13   V3    S    
C20   H42   S    
O1    C3    A    
C29   H13   S    
C42   C46   S    
O2    C4    A    
O11   V4    S    
C37   H15   S    
C50   H34   S    
C27   C29   A    
C8    C53   S    
O5    C3    A    
C18   H6    S    
O16   V4    S    
C44   C52   S    
C11   C17   A    
O15   V3    S    
C23   C25   A    
C12   C14   A    
N1    H38   S    
O11   C55   A    
C51   H35   S    
O18   V4    S    
C39   H19   S    
C32   H8    S    
O17   V3    S    
C5    C7    A    
C38   C46   S    
C37   C39   S    
C32   C34   A    
C40   H22   S    
C19   C21   A    
C39   H21   S    
C53   O18   A    
C38   C40   S    
C25   C35   A    
C30   H14   S    
C41   C49   S    
C1    C48   S    
C28   C30   A    
O6    V2    S    
C17   C19   A    
C40   C48   S    
C2    O7    A    
C39   C47   S    
O20   V3    S    
C43   C45   S    
N2    H40   S    
C48   C52   S    
C34   C36   A    
C33   C35   A    
C37   H17   S    
C21   C31   A    
C6    C16   A    
O4    C2    A    
C5    H1    S    
C52   H36   S    
O5    V1    S    
H26   C50   S    
C20   C22   A    
C44   H28   S    
C37   C45   S    
C5    C15   A    
C42   C50   S    
O14   C54   A    
O14   V4    S    
C18   C20   A    
C35   H9    S    
C43   C51   S    
C7    C54   S    
C15   C29   A    
C48   C50   S    
O6    C4    A    
C27   H11   S    
C45   C56   S    
C22   C32   A    
O1    V2    S    
C49   H33   S    
C52   H32   S    
O2    V1    S    
C31   C33   A    
C43   H29   S    
C13   C23   A    
C14   C24   A    
C8    C10   A    
C44   C46   S    
C9    C11   A    
C10   C12   A    
C47   C49   S    
O4    V2    S    
C38   H18   S    
C9    H3    S    
O3    V1    S    
N2    H39   S    
C6    H2    S    
C10   H4    S    
O16   C56   A    
C31   H7    S    
O15   C55   A    
H25   C49   S    
C7    C9    A    
C26   C36   A    
O12   V3    S    
H24   C42   S    
C4    C33   S    
O3    C1    A    
C36   H10   S    
C13   C15   A    
C2    C47   S    
C14   C16   A    
C46   C55   S    
C24   C26   A    
O7    V1    S    
C19   H41   S    
C1    O8    A    
C25   C27   A    
O8    V2    S    
N1    H37   S    
C41   C45   S    
C51   H31   S    
C17   H5    S    
C44   H30   S    
C41   N1    S    
C16   C30   A    
C21   C23   A    
C22   C24   A    
O19   V4    S    
C6    C8    A    
C11   C13   A    
C47   C51   S    
C12   C18   A    
O13   C53   A    
O9    V2    S    
O10   V1    S    
C3    C34   S    
C40   H20   S    
H23   C41   S    
C54   O17   A    
C43   H27   S    
C38   H16   S    
