data_mof_unit_24986.cif
_audit_creation_date              2013-03-05T15:50:05-0500
_audit_creation_method            fapswitch 2.2
_symmetry_space_group_name_H-M    P1
_symmetry_Int_Tables_number       1
_space_group_crystal_system       triclinic
_cell_length_a                    18.271677
_cell_length_b                    25.80239
_cell_length_c                    18.328045
_cell_angle_alpha                 89.293664
_cell_angle_beta                  89.943785
_cell_angle_gamma                 88.910529
_cell_volume                      8638.58968116

loop_
_atom_site_label
_atom_site_type_symbol
_atom_site_description
_atom_site_fract_x
_atom_site_fract_y
_atom_site_fract_z
_atom_type_partial_charge
Zn1   Zn    Zn3+2 0.249990 0.293780 0.913250 1.026571
Zn2   Zn    Zn3+2 0.249990 0.706220 0.086750 1.011069
Zn3   Zn    Zn3+2 0.249990 0.706220 0.913250 1.068959
Zn4   Zn    Zn3+2 0.249990 0.293780 0.086750 1.073152
Zn5   Zn    Zn3+2 0.749990 0.793780 0.413250 1.015086
Zn6   Zn    Zn3+2 0.749990 0.206220 0.586750 1.012581
Zn7   Zn    Zn3+2 0.749990 0.206220 0.413250 1.060495
Zn8   Zn    Zn3+2 0.749990 0.793780 0.586750 1.045330
Zn9   Zn    Zn3+2 0.336760 0.206240 0.000000 1.149249
Zn10  Zn    Zn3+2 0.336760 0.793760 0.000000 1.140298
Zn11  Zn    Zn3+2 0.836760 0.706240 0.500000 1.124041
Zn12  Zn    Zn3+2 0.836760 0.293760 0.500000 1.111833
Zn13  Zn    Zn3+2 0.163250 0.206230 0.000000 1.007658
Zn14  Zn    Zn3+2 0.163250 0.793770 0.000000 0.996877
Zn15  Zn    Zn3+2 0.663250 0.706230 0.500000 1.020857
Zn16  Zn    Zn3+2 0.663250 0.293770 0.500000 1.031909
O1    O     O_3   0.249990 0.250010 0.000000 -0.504763
O2    O     O_3   0.249990 0.749990 0.000000 -0.504289
O3    O     O_3   0.749990 0.750010 0.500000 -0.508248
O4    O     O_3   0.749990 0.249990 0.500000 -0.511105
O5    O     O_R   0.335430 0.280650 0.146160 -0.584503
O6    O     O_R   0.335430 0.719350 0.853840 -0.596793
O7    O     O_R   0.335430 0.719350 0.146160 -0.621919
O8    O     O_R   0.335430 0.280650 0.853840 -0.613759
O9    O     O_R   0.835430 0.780650 0.646160 -0.615046
O10   O     O_R   0.835430 0.219350 0.353840 -0.597158
O11   O     O_R   0.835430 0.219350 0.646160 -0.616597
O12   O     O_R   0.835430 0.780650 0.353840 -0.617115
O13   O     O_R   0.164550 0.280640 0.853840 -0.650991
O14   O     O_R   0.164550 0.719360 0.146160 -0.639652
O15   O     O_R   0.164550 0.719360 0.853840 -0.608792
O16   O     O_R   0.164550 0.280640 0.146160 -0.588688
O17   O     O_R   0.664550 0.780640 0.353840 -0.648845
O18   O     O_R   0.664550 0.219360 0.646160 -0.644680
O19   O     O_R   0.664550 0.219360 0.353840 -0.606904
O20   O     O_R   0.664550 0.780640 0.646160 -0.613865
O21   O     O_R   0.396160 0.219380 0.914560 -0.601814
O22   O     O_R   0.396160 0.780620 0.085440 -0.624455
O23   O     O_R   0.396160 0.780620 0.914560 -0.549596
O24   O     O_R   0.396160 0.219380 0.085440 -0.571926
O25   O     O_R   0.896160 0.719380 0.414560 -0.622726
O26   O     O_R   0.896160 0.280620 0.585440 -0.633302
O27   O     O_R   0.896160 0.280620 0.414560 -0.562826
O28   O     O_R   0.896160 0.719380 0.585440 -0.565412
O29   O     O_R   0.103840 0.219370 0.085450 -0.670628
O30   O     O_R   0.103840 0.780630 0.914550 -0.661304
O31   O     O_R   0.103840 0.780630 0.085450 -0.663456
O32   O     O_R   0.103840 0.219370 0.914550 -0.629911
O33   O     O_R   0.603840 0.719370 0.585450 -0.655918
O34   O     O_R   0.603840 0.280630 0.414550 -0.638141
O35   O     O_R   0.603840 0.280630 0.585450 -0.631681
O36   O     O_R   0.603840 0.719370 0.414550 -0.625416
O37   O     O_R   0.310730 0.133160 0.000000 -0.603074
O38   O     O_R   0.310730 0.866840 0.000000 -0.596629
O39   O     O_R   0.810730 0.633160 0.500000 -0.642142
O40   O     O_R   0.810730 0.366840 0.500000 -0.613060
O41   O     O_R   0.249970 0.366860 0.060720 -0.638240
O42   O     O_R   0.249970 0.633140 0.939280 -0.643363
O43   O     O_R   0.249970 0.633140 0.060720 -0.627258
O44   O     O_R   0.249970 0.366860 0.939280 -0.633120
O45   O     O_R   0.749970 0.866860 0.560720 -0.642514
O46   O     O_R   0.749970 0.133140 0.439280 -0.636130
O47   O     O_R   0.749970 0.133140 0.560720 -0.627136
O48   O     O_R   0.749970 0.866860 0.439280 -0.634934
O49   O     O_R   0.189290 0.133150 0.000000 -0.625836
O50   O     O_R   0.189290 0.866850 0.000000 -0.639366
O51   O     O_R   0.689290 0.633150 0.500000 -0.614351
O52   O     O_R   0.689290 0.366850 0.500000 -0.606856
C1    C     C_R   0.389275 0.249321 0.140592 0.931170
C2    C     C_R   0.390117 0.749712 0.860351 0.946638
C3    C     C_R   0.394070 0.745799 0.136309 0.877257
C4    C     C_R   0.394419 0.253684 0.864050 0.923057
C5    C     C_R   0.889529 0.749105 0.640060 0.951946
C6    C     C_R   0.890329 0.249135 0.360889 0.955789
C7    C     C_R   0.894050 0.245353 0.636109 0.869885
C8    C     C_R   0.894799 0.753936 0.364750 0.894602
C9    C     C_R   0.106882 0.253346 0.862173 0.823380
C10   C     C_R   0.106255 0.747592 0.137561 0.799235
C11   C     C_R   0.108088 0.749847 0.861247 0.872789
C12   C     C_R   0.110278 0.250141 0.139763 0.790810
C13   C     C_R   0.606307 0.753677 0.363042 0.819465
C14   C     C_R   0.605943 0.246803 0.636734 0.801412
C15   C     C_R   0.610064 0.250540 0.360103 0.786330
C16   C     C_R   0.611320 0.749150 0.640406 0.780345
C17   C     C_R   0.251258 0.109239 0.002397 0.861198
C18   C     C_R   0.248959 0.890761 0.993096 0.913284
C19   C     C_R   0.751981 0.608652 0.497888 0.917215
C20   C     C_R   0.748499 0.390796 0.507198 0.871303
C21   C     C_R   0.249307 0.391325 0.999568 0.790836
C22   C     C_R   0.249412 0.608626 0.000188 0.786198
C23   C     C_R   0.749490 0.891324 0.499579 0.793722
C24   C     C_R   0.749535 0.108622 0.500196 0.792879
C25   C     C_3   0.183047 0.470404 0.044102 -0.392188
C26   C     C_3   0.243601 0.530558 0.920419 -0.361138
C27   C     C_3   0.182262 0.530377 0.043411 -0.398516
C28   C     C_3   0.241978 0.471080 0.920022 -0.369507
C29   C     C_3   0.682332 0.970420 0.542593 -0.389514
C30   C     C_3   0.745757 0.030513 0.420364 -0.362707
C31   C     C_3   0.681634 0.030388 0.541988 -0.397976
C32   C     C_3   0.744227 0.971044 0.419929 -0.376062
H1    H     H_    0.186768 0.456011 0.101501 0.199985
H2    H     H_    0.291427 0.543789 0.887917 0.207675
H3    H     H_    0.183711 0.544500 0.100522 0.191812
H4    H     H_    0.287701 0.456247 0.885589 0.223611
H5    H     H_    0.684658 0.955985 0.600037 0.195893
H6    H     H_    0.794284 0.043780 0.388955 0.203737
H7    H     H_    0.681894 0.044488 0.599139 0.188675
H8    H     H_    0.790794 0.956191 0.386616 0.218700
H9    H     H_    0.130727 0.456369 0.021204 0.159980
H10   H     H_    0.193229 0.546427 0.893467 0.182996
H11   H     H_    0.130449 0.545311 0.018320 0.162542
H12   H     H_    0.189940 0.458397 0.894886 0.183455
H13   H     H_    0.630566 0.956439 0.518415 0.164558
H14   H     H_    0.695988 0.046317 0.392275 0.192217
H15   H     H_    0.630375 0.045370 0.515843 0.169428
H16   H     H_    0.692831 0.958346 0.393528 0.181993
H17   H     H_    0.328029 0.452603 0.088889 0.209421
H18   H     H_    0.368695 0.543477 0.005950 0.210263
H19   H     H_    0.323009 0.540504 0.092721 0.229110
H20   H     H_    0.368399 0.454790 0.999697 0.218249
H21   H     H_    0.826079 0.952725 0.590907 0.195414
H22   H     H_    0.868831 0.043390 0.508512 0.216356
H23   H     H_    0.821386 0.040643 0.594314 0.224901
H24   H     H_    0.868686 0.954727 0.502748 0.227438
C33   C     C_3   0.320791 0.468557 0.032595 -0.363264
C34   C     C_3   0.319849 0.528349 0.034946 -0.346675
C35   C     C_3   0.820279 0.968568 0.534391 -0.366455
C36   C     C_3   0.819372 0.028368 0.536538 -0.347467
C37   C     C_3   0.248737 0.449030 0.998958 0.148658
C38   C     C_3   0.248774 0.550814 0.999871 0.137610
C39   C     C_3   0.749055 0.949027 0.499005 0.153308
C40   C     C_3   0.749071 0.050809 0.499903 0.138107
H25   H     H_    0.887618 0.158261 0.943255 0.178213
H26   H     H_    0.915448 0.886758 0.094101 0.171218
H27   H     H_    0.983382 0.923772 0.824660 0.170824
H28   H     H_    0.124335 0.084284 0.265519 0.186003
H29   H     H_    0.390796 0.649375 0.437612 0.188162
H30   H     H_    0.400767 0.372190 0.580098 0.211196
H31   H     H_    0.658705 0.388994 0.187842 0.225640
H32   H     H_    0.637931 0.590588 0.781877 0.203714
C41   C     C_R   0.108155 0.323939 0.730153 -0.140602
C42   C     C_R   0.085545 0.661220 0.243018 -0.174348
C43   C     C_R   0.038827 0.653082 0.821500 -0.219783
C44   C     C_R   0.022126 0.340443 0.166414 -0.221455
C45   C     C_R   0.594119 0.833766 0.243471 -0.156089
C46   C     C_R   0.587035 0.159966 0.743306 -0.173328
C47   C     C_R   0.491977 0.181381 0.371269 -0.224181
C48   C     C_R   0.514329 0.834645 0.652220 -0.222347
C49   C     C_R   0.130846 0.340065 0.661294 -0.198685
C50   C     C_R   0.101184 0.630457 0.303893 -0.236731
C51   C     C_R   0.000399 0.608068 0.810154 -0.214955
C52   C     C_R   0.976977 0.383710 0.173917 -0.245818
C53   C     C_R   0.612047 0.857236 0.177396 -0.228418
C54   C     C_R   0.598225 0.128515 0.804495 -0.236174
C55   C     C_R   0.431237 0.151456 0.384199 -0.208986
C56   C     C_R   0.466886 0.876825 0.654193 -0.244075
C57   C     C_R   0.593125 0.834128 0.111784 0.268191
C58   C     C_R   0.576085 0.145299 0.873300 0.267873
C59   C     C_R   0.369285 0.156948 0.340483 0.333082
C60   C     C_R   0.408214 0.877295 0.702137 0.307008
C61   C     C_R   0.106958 0.314674 0.599220 0.272730
C62   C     C_R   0.084867 0.648393 0.373667 0.251798
C63   C     C_R   0.935036 0.609413 0.770888 0.311281
C64   C     C_R   0.914254 0.381479 0.216707 0.305675
C65   C     C_R   0.546359 0.790941 0.112933 0.233730
C66   C     C_R   0.538115 0.193386 0.879713 0.232041
C67   C     C_R   0.370897 0.190457 0.278689 0.228124
C68   C     C_R   0.398693 0.835069 0.750917 0.220034
C69   C     C_R   0.051920 0.277039 0.606150 0.238338
C70   C     C_R   0.042590 0.694643 0.381478 0.224712
C71   C     C_R   0.912666 0.655934 0.734866 0.228536
C72   C     C_R   0.899032 0.335470 0.256165 0.224399
C73   C     C_R   0.518105 0.772630 0.180946 -0.056114
C74   C     C_R   0.514698 0.220305 0.815099 -0.058698
C75   C     C_R   0.435726 0.219289 0.261577 -0.085795
C76   C     C_R   0.449870 0.791998 0.752937 -0.082290
C77   C     C_R   0.022025 0.265688 0.676306 -0.054822
C78   C     C_R   0.017019 0.721867 0.317648 -0.067674
C79   C     C_R   0.957356 0.700976 0.738684 -0.061390
C80   C     C_R   0.950801 0.292632 0.256505 -0.078068
C81   C     C_R   0.059514 0.282432 0.738703 0.052769
C82   C     C_R   0.049798 0.709791 0.250201 0.045745
C83   C     C_R   0.016332 0.700562 0.788761 0.065351
C84   C     C_R   0.009980 0.294391 0.206979 0.064548
C85   C     C_R   0.552879 0.788159 0.245464 0.052253
C86   C     C_R   0.549322 0.207968 0.748704 0.050668
C87   C     C_R   0.494141 0.216915 0.312101 0.072231
C88   C     C_R   0.506929 0.791948 0.700891 0.068677
C89   C     C_R   0.457846 0.738669 0.186698 -0.088941
C90   C     C_R   0.458731 0.259422 0.814906 -0.098362
C91   C     C_R   0.444158 0.250929 0.197283 -0.110912
C92   C     C_R   0.446374 0.749394 0.804242 -0.117986
C93   C     C_R   0.957833 0.236426 0.685989 -0.090167
C94   C     C_R   0.960980 0.760909 0.318406 -0.098027
C95   C     C_R   0.943908 0.747450 0.697233 -0.107848
C96   C     C_R   0.945523 0.248485 0.304189 -0.107527
C97   C     C_R   0.449742 0.708324 0.251034 0.003343
C98   C     C_R   0.454207 0.295224 0.755999 0.008527
C99   C     C_R   0.501948 0.287368 0.190740 0.015619
C100  C     C_R   0.497254 0.706475 0.801590 0.014563
C101  C     C_R   0.947963 0.208960 0.752475 0.015832
C102  C     C_R   0.958886 0.798774 0.262329 0.013674
C103  C     C_R   0.973619 0.794946 0.719306 0.008629
C104  C     C_R   0.993641 0.204290 0.297705 0.010111
C105  C     C_R   0.984895 0.225648 0.815198 0.041496
C106  C     C_R   0.992795 0.787484 0.194991 0.040655
C107  C     C_R   0.010750 0.795338 0.786204 0.064442
C108  C     C_R   0.046661 0.204940 0.240971 0.041694
C109  C     C_R   0.485430 0.723646 0.315263 0.058128
C110  C     C_R   0.488285 0.282292 0.689480 0.034846
C111  C     C_R   0.555422 0.287724 0.246907 0.024089
C112  C     C_R   0.550776 0.706478 0.745309 0.030372
C113  C     C_R   0.046895 0.257446 0.807095 -0.142652
C114  C     C_R   0.045278 0.745991 0.191612 -0.142665
C115  C     C_R   0.045295 0.748479 0.810957 -0.124641
C116  C     C_R   0.054759 0.249860 0.197028 -0.069004
C117  C     C_R   0.544543 0.758305 0.310072 -0.139328
C118  C     C_R   0.543990 0.243217 0.689137 -0.144149
C119  C     C_R   0.552876 0.251126 0.304615 -0.072436
C120  C     C_R   0.555299 0.749111 0.696690 -0.072256
C121  C     C_R   0.408276 0.662388 0.253912 0.332483
C122  C     C_R   0.417230 0.343988 0.760770 0.306706
C123  C     C_R   0.508325 0.325110 0.132244 0.267817
C124  C     C_R   0.498388 0.663153 0.852458 0.260505
C125  C     C_R   0.904461 0.164134 0.758848 0.327550
C126  C     C_R   0.925064 0.848265 0.271501 0.307336
C127  C     C_R   0.960862 0.843259 0.682045 0.269192
C128  C     C_R   0.992201 0.158964 0.344835 0.262760
C129  C     C_R   0.386115 0.642044 0.321158 -0.110914
C130  C     C_R   0.397951 0.371318 0.697222 -0.155184
C131  C     C_R   0.565503 0.360304 0.132065 -0.110294
C132  C     C_R   0.548681 0.622197 0.843659 -0.113704
C133  C     C_R   0.882448 0.146428 0.827609 -0.160596
C134  C     C_R   0.909975 0.879756 0.210754 -0.161063
C135  C     C_R   0.963984 0.889324 0.720731 -0.088411
C136  C     C_R   0.038725 0.116521 0.331479 -0.094562
C137  C     C_R   0.906285 0.171054 0.890052 -0.164559
C138  C     C_R   0.929924 0.863320 0.141507 -0.176295
C139  C     C_R   0.983704 0.888246 0.793816 -0.142125
C140  C     C_R   0.088225 0.117352 0.274586 -0.114419
C141  C     C_R   0.409122 0.664528 0.385518 -0.139800
C142  C     C_R   0.417860 0.351940 0.629469 -0.104474
C143  C     C_R   0.615881 0.360645 0.188147 -0.111024
C144  C     C_R   0.599113 0.622529 0.787513 -0.125735
C145  C     C_R   0.958431 0.209605 0.884272 -0.122123
C146  C     C_R   0.971754 0.818007 0.133454 -0.120944
C147  C     C_R   0.009048 0.842088 0.825866 -0.099312
C148  C     C_R   0.093144 0.161044 0.230550 -0.077104
C149  C     C_R   0.459897 0.704123 0.382922 -0.109576
C150  C     C_R   0.464267 0.308558 0.625382 -0.082111
C151  C     C_R   0.610916 0.325190 0.245078 -0.086829
C152  C     C_R   0.600836 0.664130 0.739294 -0.100018
H33   H     H_    0.127691 0.345530 0.776073 0.191379
H34   H     H_    0.101262 0.646401 0.190194 0.172369
H35   H     H_    0.083289 0.650146 0.860072 0.160580
H36   H     H_    0.066663 0.344039 0.128015 0.154571
H37   H     H_    0.611708 0.852262 0.292919 0.180027
H38   H     H_    0.605424 0.145240 0.691270 0.174224
H39   H     H_    0.536838 0.176921 0.409486 0.135560
H40   H     H_    0.556774 0.836209 0.611170 0.148668
H41   H     H_    0.170473 0.370630 0.656714 0.202579
H42   H     H_    0.131208 0.594266 0.296866 0.200510
H43   H     H_    0.018220 0.572863 0.838214 0.192570
H44   H     H_    0.988649 0.418344 0.142322 0.190761
H45   H     H_    0.645727 0.891328 0.177433 0.198014
H46   H     H_    0.626275 0.091444 0.798562 0.197054
H47   H     H_    0.431361 0.125493 0.431082 0.201041
H48   H     H_    0.474487 0.908611 0.615933 0.196160
H49   H     H_    0.848373 0.112703 0.832749 0.182311
H50   H     H_    0.883278 0.917231 0.217283 0.168799
H51   H     H_    0.951312 0.926085 0.694061 0.181199
H52   H     H_    0.037307 0.082369 0.366397 0.192763
H53   H     H_    0.353202 0.607613 0.323610 0.194509
H54   H     H_    0.368492 0.408025 0.700389 0.181646
H55   H     H_    0.570265 0.388744 0.088427 0.195674
H56   H     H_    0.549345 0.589597 0.881488 0.190489
H57   H     H_    0.976879 0.227184 0.934094 0.161409
H58   H     H_    0.984406 0.806524 0.078381 0.176137
H59   H     H_    0.023763 0.844048 0.882527 0.190205
H60   H     H_    0.134714 0.159849 0.188648 0.183350
H61   H     H_    0.477212 0.720195 0.434166 0.165690
H62   H     H_    0.479009 0.295074 0.571653 0.180993
H63   H     H_    0.650659 0.328086 0.288374 0.193798
H64   H     H_    0.642516 0.662628 0.697394 0.181439
C153  C     C_R   0.322572 0.047378 0.112526 -0.230457
C154  C     C_R   0.300148 0.941688 0.116329 -0.255047
C155  C     C_R   0.885471 0.545461 0.547851 -0.179395
C156  C     C_R   0.857805 0.444748 0.592456 -0.216586
C157  C     C_R   0.351640 0.017396 0.169709 0.321982
C158  C     C_R   0.338529 0.964411 0.172702 0.292822
C159  C     C_R   0.937298 0.517891 0.589495 0.284555
C160  C     C_R   0.922423 0.467762 0.613625 0.334938
C161  C     C_R   0.277136 0.970757 0.053590 0.023439
C162  C     C_R   0.284987 0.024467 0.053666 0.004509
C163  C     C_R   0.806462 0.471429 0.547418 0.023651
C164  C     C_R   0.816602 0.524041 0.529655 0.053084
C165  C     C_R   0.246702 0.946937 0.991617 -0.056291
C166  C     C_R   0.256606 0.054027 0.994664 -0.049437
C167  C     C_R   0.743913 0.446602 0.522041 -0.070329
C168  C     C_R   0.758355 0.552043 0.492946 -0.074108
C169  C     C_R   0.222288 0.976751 0.928543 -0.077932
C170  C     C_R   0.232863 0.031192 0.929189 -0.074645
C171  C     C_R   0.683959 0.476306 0.494603 -0.070260
C172  C     C_R   0.697789 0.525370 0.465481 -0.097712
C173  C     C_R   0.189425 0.955569 0.864146 0.196785
C174  C     C_R   0.220679 0.061380 0.863801 0.154316
C175  C     C_R   0.610885 0.459197 0.494366 0.235055
C176  C     C_R   0.650242 0.545508 0.410205 0.211751
C177  C     C_R   0.167790 0.987987 0.805033 0.229214
C178  C     C_R   0.183204 0.040513 0.805167 0.225201
C179  C     C_R   0.560672 0.481059 0.444310 0.185009
C180  C     C_R   0.582674 0.521672 0.398040 0.214696
H65   H     H_    0.332995 0.088320 0.113569 0.216363
H66   H     H_    0.289988 0.900720 0.122258 0.162647
H67   H     H_    0.903649 0.582340 0.528207 0.226921
H68   H     H_    0.847243 0.406110 0.613081 0.172510
Br1   Br    Br    0.399778 0.617969 0.171085 -0.419570
Br2   Br    Br    0.408751 0.380849 0.851016 -0.477439
Br3   Br    Br    0.443197 0.337050 0.050585 -0.449201
Br4   Br    Br    0.439059 0.653353 0.938640 -0.453245
Br5   Br    Br    0.893251 0.117102 0.679394 -0.449619
Br6   Br    Br    0.914738 0.879675 0.365655 -0.478591
Br7   Br    Br    0.949530 0.850691 0.577873 -0.405229
Br8   Br    Br    0.934441 0.148126 0.431685 -0.442191
Br9   Br    Br    0.153629 0.084318 0.723275 -0.262863
Br10  Br    Br    0.121479 0.960674 0.718933 -0.275971
Br11  Br    Br    0.519705 0.545241 0.319922 -0.340806
Br12  Br    Br    0.463135 0.454440 0.438103 -0.355500
Br13  Br    Br    0.411685 0.049705 0.240771 -0.384742
Br14  Br    Br    0.374066 0.921153 0.251369 -0.423873
Br15  Br    Br    0.027957 0.550393 0.612074 -0.300901
Br16  Br    Br    0.989306 0.428867 0.674114 -0.425169
Br17  Br    Br    0.169514 0.883920 0.849563 -0.354033
Br18  Br    Br    0.267057 0.127166 0.842866 -0.407821
Br19  Br    Br    0.574481 0.419486 0.576255 -0.424162
Br20  Br    Br    0.682520 0.598098 0.341846 -0.387309
N1    N     N_R   0.625018 0.853196 0.045352 0.237481
O53   O     O_R   0.629687 0.902911 0.034062 -0.331138
O54   O     O_R   0.662289 0.821800 0.003794 -0.307713
N2    N     N_R   0.593000 0.113269 0.935680 0.245000
O55   O     O_R   0.658213 0.092670 0.942638 -0.355305
O56   O     O_R   0.540052 0.095392 0.975673 -0.290047
N3    N     N_R   0.304987 0.128222 0.359745 0.239296
O57   O     O_R   0.311558 0.084109 0.394570 -0.315070
O58   O     O_R   0.239857 0.148623 0.351357 -0.291749
N4    N     N_R   0.357264 0.920478 0.699593 0.238362
O59   O     O_R   0.379959 0.966719 0.683344 -0.344197
O60   O     O_R   0.287234 0.912847 0.703564 -0.253968
N5    N     N_R   0.141426 0.325884 0.530569 0.236942
O61   O     O_R   0.156549 0.373528 0.513086 -0.318441
O62   O     O_R   0.170518 0.288438 0.492725 -0.279027
N6    N     N_R   0.114809 0.620699 0.435524 0.240588
O63   O     O_R   0.117155 0.570260 0.435915 -0.321298
O64   O     O_R   0.152528 0.645173 0.483968 -0.291822
N7    N     N_R   0.889614 0.564372 0.772704 0.226175
O65   O     O_R   0.919418 0.518472 0.780772 -0.355599
O66   O     O_R   0.819015 0.569330 0.780257 -0.321122
N8    N     N_R   0.864815 0.425529 0.216782 0.240151
O67   O     O_R   0.890502 0.472202 0.213492 -0.353613
O68   O     O_R   0.794767 0.419420 0.209083 -0.337550
N9    N     N_R   0.535636 0.761722 0.047677 0.231997
O69   O     O_R   0.526532 0.784961 0.984895 -0.305711
O70   O     O_R   0.539449 0.711347 0.050442 -0.331278
N10   N     N_R   0.537093 0.220095 0.948448 0.223208
O71   O     O_R   0.533730 0.195096 0.010344 -0.299910
O72   O     O_R   0.547387 0.269838 0.949254 -0.352815
N11   N     N_R   0.304658 0.197657 0.238056 0.188187
O73   O     O_R   0.283510 0.161696 0.194174 -0.472389
O74   O     O_R   0.258364 0.233951 0.257176 -0.317794
N12   N     N_R   0.336825 0.837184 0.797814 0.195933
O75   O     O_R   0.333537 0.872318 0.847978 -0.360674
O76   O     O_R   0.279456 0.810305 0.782388 -0.347424
N13   N     N_R   0.033857 0.245497 0.544967 0.229686
O77   O     O_R   0.027613 0.265626 0.479845 -0.313200
O78   O     O_R   0.030491 0.195473 0.553429 -0.308213
N14   N     N_R   0.033234 0.716723 0.452686 0.239476
O79   O     O_R   0.018739 0.687377 0.508903 -0.301944
O80   O     O_R   0.038099 0.766513 0.461381 -0.318594
N15   N     N_R   0.840809 0.658919 0.703549 0.189239
O81   O     O_R   0.822062 0.626441 0.653590 -0.403962
O82   O     O_R   0.790806 0.688478 0.733137 -0.407360
N16   N     N_R   0.828142 0.330881 0.288704 0.181486
O83   O     O_R   0.806581 0.363002 0.338855 -0.382308
O84   O     O_R   0.781608 0.299191 0.260772 -0.418791

loop_
_geom_bond_atom_site_label_1
_geom_bond_atom_site_label_2
_geom_bond_distance
_ccdc_geom_bond_type
C44   C84   1.414868 A    
C159  C160  1.393379 A    
C1    C91   1.446246 S    
C103  C127  1.429339 A    
N1    O53   1.301217 A    
C2    C92   1.453275 S    
C12   C116  1.458991 S    
C79   C95   1.429040 A    
C169  C170  1.421769 A    
C101  C125  1.419381 A    
C58   C66   1.416090 A    
O26   C7    1.293203 A    
C174  C178  1.394036 A    
C77   C93   1.416771 A    
C70   C78   1.431323 A    
C54   C58   1.395454 A    
C105  C145  1.414703 A    
O30   C11   1.268041 A    
C30   H14   1.113512 S    
C95   C103  1.413575 A    
C135  H51   1.082907 S    
C136  H52   1.083376 S    
C93   C101  1.415206 A    
C166  C170  1.415496 A    
C125  Br5   1.920639 S    
C133  C137  1.390189 A    
Zn12  O26   1.929079 S    
C104  C108  1.420642 A    
N14   O80   1.301207 A    
C96   C104  1.432663 A    
C47   C55   1.382622 A    
C179  Br12  1.926066 S    
C80   C96   1.431807 A    
H29   C141  1.082470 S    
C106  C114  1.425533 A    
C43   C51   1.386534 A    
H26   C138  1.082615 S    
C10   C114  1.490960 S    
C48   H40   1.080947 S    
O11   C7    1.286556 A    
C177  Br10  1.937950 S    
C174  Br18  1.945415 S    
C49   H41   1.083168 S    
C62   N6    1.435835 S    
O34   C15   1.275552 A    
C76   C88   1.412414 A    
C83   C115  1.418398 A    
C66   C74   1.427354 A    
C45   H37   1.081424 S    
C141  C149  1.393371 A    
N2    O55   1.301196 A    
C29   C39   1.553240 S    
C102  C126  1.419838 A    
Zn1   O44   1.950741 S    
C25   H1    1.113018 S    
H20   C33   1.113072 S    
C163  C167  1.403236 A    
C112  C120  1.410690 A    
C60   N4    1.438639 S    
Zn5   O48   1.950741 S    
H32   C144  1.082908 S    
Zn6   O47   1.950755 S    
Zn7   O46   1.939351 S    
O16   C12   1.283961 A    
C78   C94   1.422845 A    
N7    O65   1.300903 A    
C46   C54   1.389158 A    
C169  C173  1.442940 A    
Zn16  O4    1.928687 S    
C129  H53   1.082681 S    
N6    O63   1.301287 A    
Zn12  O4    1.963969 S    
Zn1   O13   1.941722 S    
C137  C145  1.393469 A    
C20   C167  1.469490 S    
C26   C28   1.535621 S    
Zn4   O16   1.935306 S    
C149  H61   1.081361 S    
C158  Br14  1.918568 S    
H24   C35   1.112778 S    
C42   C82   1.409729 A    
H28   C140  1.082967 S    
C59   N3    1.442251 S    
C31   H7    1.113105 S    
C89   C97   1.416578 A    
N2    O56   1.301237 A    
C107  C147  1.415847 A    
C65   N9    1.437202 S    
C48   C88   1.417372 A    
C18   C165  1.449190 S    
C170  C174  1.436451 A    
C30   H6    1.113755 S    
Zn10  O22   1.929079 S    
C109  C117  1.417669 A    
C41   H33   1.079738 S    
O25   C8    1.268136 A    
Zn13  O29   1.934380 S    
Zn10  O2    1.963969 S    
C154  H66   1.080845 S    
C59   C67   1.417012 A    
O29   C12   1.287804 A    
C41   C81   1.411796 A    
Zn15  O33   1.934380 S    
C126  Br6   1.923120 S    
C35   C39   1.550176 S    
H19   C34   1.109954 S    
C33   C37   1.549729 S    
C23   C39   1.488669 S    
C26   H2    1.113720 S    
C45   C85   1.409456 A    
O37   C17   1.260329 A    
O48   C23   1.279410 A    
C176  Br20  1.935442 S    
C80   C84   1.412131 A    
C28   C37   1.552221 S    
N5    O61   1.301269 A    
C131  C143  1.380682 A    
Zn16  O35   1.934847 S    
N12   O75   1.299644 A    
C21   C37   1.488675 S    
C86   C118  1.414548 A    
C159  Br15  1.918651 S    
C26   C38   1.556774 S    
Zn7   O10   1.935260 S    
O33   C16   1.283361 A    
C24   C40   1.491990 S    
C97   C121  1.419218 A    
C53   C57   1.395513 A    
C134  C138  1.389222 A    
O40   C20   1.291273 A    
C153  C157  1.394432 A    
N10   O71   1.300059 A    
C155  H67   1.071788 S    
C160  Br16  1.912675 S    
C52   C64   1.389768 A    
Zn6   O11   1.941673 S    
N10   O72   1.300991 A    
Zn5   O17   1.941722 S    
C27   C38   1.550443 S    
H31   C143  1.081206 S    
C61   C69   1.415722 A    
C92   C100  1.433552 A    
C13   C117  1.491495 S    
C25   C27   1.547147 S    
C43   H35   1.078406 S    
H22   C36   1.112768 S    
C71   C79   1.435467 A    
H25   C137  1.082506 S    
C69   C77   1.425795 A    
C27   H3    1.113081 S    
C128  Br8   1.929438 S    
C32   H8    1.111746 S    
Zn8   O3    1.961558 S    
C143  C151  1.383216 A    
C55   C59   1.391488 A    
C56   C60   1.385449 A    
C57   C65   1.417019 A    
O38   C18   1.281686 A    
O5    C1    1.266250 A    
O32   C9    1.293896 A    
C108  C148  1.417433 A    
C161  C162  1.395974 A    
C130  C142  1.389902 A    
C15   C119  1.458588 S    
N4    O60   1.300153 A    
C56   H48   1.083336 S    
Zn15  O51   1.935948 S    
C157  C158  1.392855 A    
Zn11  O28   1.943067 S    
C151  H63   1.080388 S    
N8    O68   1.300566 A    
C8    C94   1.489505 S    
N7    O66   1.301281 A    
N3    O58   1.300562 A    
C46   H38   1.081796 S    
O8    C4    1.284323 A    
C67   C75   1.442905 A    
C68   C76   1.438874 A    
O50   C18   1.268344 A    
C57   N1    1.434876 S    
C111  C119  1.410510 A    
Zn1   O1    1.938858 S    
C126  C134  1.394865 A    
C123  Br3   1.931102 S    
Zn2   O14   1.929600 S    
C124  Br4   1.931646 S    
C29   H5    1.113023 S    
C44   C52   1.383591 A    
C44   H36   1.079935 S    
C72   C80   1.441049 A    
Zn2   O43   1.950755 S    
C77   C81   1.410229 A    
O9    C5    1.274167 A    
C47   H39   1.082276 S    
O36   C13   1.287497 A    
C98   C110  1.409275 A    
C148  H60   1.079903 S    
C64   C72   1.414441 A    
C75   C87   1.413693 A    
C71   N15   1.433794 S    
C172  C176  1.422205 A    
O13   C9    1.286390 A    
C122  C130  1.396071 A    
Zn1   O8    1.929559 S    
C30   C40   1.556690 S    
Zn2   O7    1.941673 S    
C165  C169  1.446794 A    
Zn3   O6    1.935260 S    
C81   C113  1.423096 A    
O18   C14   1.283146 A    
O31   C10   1.272564 A    
H17   C33   1.113202 S    
O6    C2    1.287910 A    
C176  C180  1.408871 A    
C25   H9    1.113034 S    
N16   O83   1.301021 A    
C132  H56   1.083352 S    
C32   H16   1.113490 S    
C179  C180  1.404398 A    
C9    C113  1.492215 S    
N15   O81   1.299407 A    
Zn14  O30   1.943320 S    
C60   C68   1.414059 A    
Zn15  O3    1.963670 S    
N9    O70   1.300695 A    
C70   N14   1.439191 S    
C99   C123  1.445562 A    
O41   C21   1.279500 A    
C31   C40   1.550373 S    
C19   C168  1.466983 S    
C156  C160  1.389392 A    
C106  C146  1.416880 A    
Zn16  O34   1.943320 S    
H21   C35   1.113288 S    
N13   O78   1.300747 A    
C66   N10   1.443335 S    
C84   C116  1.411406 A    
C34   C38   1.549046 S    
C94   C102  1.409336 A    
C139  C147  1.392947 A    
Zn8   O20   1.935306 S    
Zn11  O3    1.928988 S    
C69   N13   1.436037 S    
N6    O64   1.301404 A    
C153  C162  1.420379 A    
N16   O84   1.300454 A    
C134  H50   1.082613 S    
C112  C152  1.416860 A    
C63   C71   1.416367 A    
C51   H43   1.083162 S    
C52   H44   1.083349 S    
C105  C113  1.417954 A    
C130  H54   1.082617 S    
Zn8   O9    1.926572 S    
C72   N16   1.431795 S    
C25   C37   1.553548 S    
N1    O54   1.301300 A    
C123  C131  1.397188 A    
C88   C120  1.404828 A    
C50   C62   1.395347 A    
C154  C158  1.391067 A    
C142  C150  1.394050 A    
O7    C3    1.292579 A    
C64   N8    1.438362 S    
C163  C164  1.407745 A    
O19   C15   1.274032 A    
C87   C119  1.408011 A    
C47   C87   1.412414 A    
O44   C21   1.279232 A    
C26   H10   1.113705 S    
Zn9   O24   1.943067 S    
Zn6   O18   1.929600 S    
Zn10  O23   1.934130 S    
C43   C83   1.411772 A    
C53   H45   1.083076 S    
C129  C141  1.389906 A    
C62   C70   1.417838 A    
C73   C85   1.409027 A    
C138  C146  1.393918 A    
C107  C115  1.422707 A    
N11   O74   1.301039 A    
Zn15  O36   1.929331 S    
C3    C89   1.494799 S    
O15   C11   1.293472 A    
O42   C22   1.276401 A    
C50   H42   1.083009 S    
C74   C90   1.423075 A    
C63   N7    1.440914 S    
Zn4   O1    1.961558 S    
C157  Br13  1.912930 S    
C30   C32   1.535345 S    
C5    C95   1.444451 S    
C33   C34   1.543690 S    
C49   C61   1.394377 A    
C35   C36   1.543764 S    
O12   C8    1.288564 A    
Zn11  O39   1.953447 S    
C90   C98   1.413694 A    
C132  C144  1.380710 A    
C135  C139  1.387271 A    
C46   C86   1.410350 A    
C42   H34   1.081862 S    
N12   O76   1.301085 A    
Zn5   O3    1.938858 S    
C121  Br1   1.921536 S    
Zn6   O4    1.938857 S    
C125  C133  1.396608 A    
C42   C50   1.388053 A    
C152  H64   1.081522 S    
C75   C91   1.435107 A    
C31   H15   1.113019 S    
C173  Br17  1.913001 S    
C175  C179  1.403868 A    
C161  C165  1.417245 A    
O28   C5    1.272890 A    
N15   O82   1.301253 A    
Zn13  O1    1.963670 S    
C22   C38   1.492033 S    
Zn3   O42   1.939351 S    
C164  C168  1.437896 A    
Zn7   O4    1.961560 S    
O21   C4    1.272901 A    
C121  C129  1.396315 A    
C140  C148  1.382628 A    
C48   C56   1.379234 A    
C167  C171  1.414208 A    
C168  C172  1.410794 A    
C109  C149  1.414776 A    
C61   N5    1.435215 S    
N3    O57   1.301699 A    
C122  Br2   1.922781 S    
Zn2   O2    1.938857 S    
Zn14  O2    1.928687 S    
N11   O73   1.299890 A    
N4    O59   1.301526 A    
C32   C39   1.552118 S    
C41   C49   1.389387 A    
Zn13  O49   1.935948 S    
C177  C178  1.389509 A    
C28   H12   1.113465 S    
C100  C112  1.420726 A    
C85   C117  1.414346 A    
C98   C122  1.420401 A    
C91   C99   1.431122 A    
Zn12  O27   1.934130 S    
C124  C132  1.397921 A    
C58   N2    1.432978 S    
C173  C177  1.412682 A    
C76   C92   1.440065 A    
C65   C73   1.427277 A    
C155  C164  1.425467 A    
Zn3   O2    1.961560 S    
C156  C163  1.413623 A    
C146  H58   1.079050 S    
C171  C172  1.395227 A    
H27   C139  1.082790 S    
O46   C24   1.276522 A    
O47   C24   1.283863 A    
Zn16  O52   1.953491 S    
C104  C128  1.445964 A    
C16   C120  1.452531 S    
H30   C142  1.082612 S    
Zn8   O45   1.939338 S    
C45   C53   1.388998 A    
O27   C6    1.289243 A    
C11   C115  1.473625 S    
C108  C116  1.413226 A    
C147  H59   1.075013 S    
C150  H62   1.080589 S    
C36   C40   1.549166 S    
C67   N11   1.429597 S    
C29   C31   1.547051 S    
C79   C83   1.415970 A    
C133  H49   1.082689 S    
C6    C96   1.447421 S    
O24   C1    1.284417 A    
C100  C124  1.446578 A    
C171  C175  1.414251 A    
C103  C107  1.402112 A    
C68   N12   1.420054 S    
C136  C140  1.379902 A    
C154  C161  1.424543 A    
O43   C22   1.283977 A    
Zn4   O41   1.939338 S    
Zn3   O15   1.926609 S    
Zn5   O12   1.929559 S    
C17   C166  1.434843 S    
C14   C118  1.487292 S    
C180  Br11  1.923188 S    
Zn9   O21   1.934597 S    
Zn14  O50   1.953491 S    
C131  H55   1.083318 S    
C78   C82   1.408857 A    
O35   C14   1.274901 A    
Zn12  O40   1.935909 S    
O39   C19   1.257039 A    
C7    C93   1.494554 S    
Zn9   O1    1.928988 S    
C153  H65   1.077390 S    
C51   C63   1.394615 A    
O52   C20   1.263843 A    
C155  C159  1.395633 A    
C156  H68   1.082551 S    
C29   H13   1.113052 S    
C127  Br7   1.927476 S    
N14   O79   1.301145 A    
O22   C3    1.287823 A    
C101  C105  1.409649 A    
C144  C152  1.382765 A    
Zn7   O19   1.926609 S    
C54   H46   1.083166 S    
Zn13  O32   1.929331 S    
C145  H57   1.081574 S    
O49   C17   1.279636 A    
Zn14  O31   1.934847 S    
C127  C135  1.393620 A    
N9    O69   1.300319 A    
O51   C19   1.298512 A    
C110  C118  1.419044 A    
C28   H4    1.111507 S    
C162  C166  1.409171 A    
C27   H11   1.113034 S    
N13   O77   1.300023 A    
C74   C86   1.408112 A    
Zn4   O5    1.926572 S    
H23   C36   1.109847 S    
C178  Br9   1.938780 S    
O20   C16   1.284374 A    
C73   C89   1.423181 A    
O10   C6    1.282785 A    
O23   C2    1.287805 A    
C110  C150  1.414968 A    
Zn11  O25   1.934597 S    
C99   C111  1.420211 A    
N8    O67   1.301465 A    
Zn10  O38   1.935909 S    
C175  Br19  1.931578 S    
C128  C136  1.397373 A    
C97   C109  1.410704 A    
O14   C10   1.287644 A    
Zn9   O37   1.953447 S    
N5    O62   1.301324 A    
C102  C106  1.411526 A    
C82   C114  1.415947 A    
H18   C34   1.112910 S    
C111  C151  1.414282 A    
O17   C13   1.292236 A    
C55   H47   1.083001 S    
O45   C23   1.279297 A    
C4    C90   1.488379 S    
