data_mof_unit_7255.cif
_audit_creation_date              2012-10-26T20:59:13-0400
_audit_creation_method            fapswitch 2.2
_symmetry_space_group_name_H-M    P1
_symmetry_Int_Tables_number       1
_space_group_crystal_system       triclinic
_cell_length_a                    15.837932
_cell_length_b                    9.139513
_cell_length_c                    7.803834
_cell_angle_alpha                 90.470569
_cell_angle_beta                  89.596493
_cell_angle_gamma                 92.770234
_cell_volume                      1128.22954728

loop_
_atom_site_label
_atom_site_type_symbol
_atom_type_description
_atom_site_fract_x
_atom_site_fract_y
_atom_site_fract_z
_atom_type_partial_charge
C1    C     C_1   0.500074 0.065293 0.499430 -0.056573
C2    C     C_3   0.986233 0.613634 0.585608 0.020111
C3    C     C_1   0.249474 0.472674 0.502021 -0.039992
C4    C     C_1   0.750697 0.520121 0.498595 -0.048980
C5    C     C_3   0.028394 0.480996 0.664579 -0.116579
C6    C     C_3   0.971433 0.496166 0.340486 -0.105928
C7    C     C_3   0.081862 0.465507 0.500244 0.031966
C8    C     C_3   0.917656 0.509946 0.505754 0.038174
C9    C     C_1   0.173712 0.461047 0.502370 -0.077357
C10   C     C_1   0.826477 0.523219 0.500838 -0.082080
C11   C     C_3   0.021764 0.219025 0.318679 -0.247399
C12   C     C_1   0.500196 0.934730 0.500595 -0.057144
C13   C     C_3   0.937454 0.170768 0.230444 -0.292142
C14   C     C_3   0.903111 0.018653 0.282193 -0.453345
C15   C     C_3   0.966247 0.750651 0.687769 -0.256124
C16   C     C_3   0.045906 0.846216 0.728246 -0.302231
C17   C     C_3   0.031187 0.946469 0.881446 -0.468628
C18   C     C_3   0.921388 0.249038 0.690587 -0.258721
C19   C     C_3   0.825693 0.221179 0.672751 -0.293811
C20   C     C_3   0.794816 0.081987 0.765204 -0.455644
C21   C     C_3   0.093464 0.719458 0.330352 -0.255086
C22   C     C_3   0.130440 0.663642 0.160637 -0.300669
C23   C     C_R   0.499888 0.220000 0.499577 0.547495
C24   C     C_3   0.201321 0.767800 0.094437 -0.440866
C25   C     C_R   0.500261 0.780012 0.500427 0.546658
C26   C     C_R   0.339317 0.491510 0.500532 0.541493
C27   C     C_R   0.660702 0.508153 0.499505 0.540995
C28   C     C_3   0.958922 0.376999 0.583486 0.035202
C29   C     C_3   0.040610 0.598815 0.422384 0.031106
C30   C     C_3   0.013236 0.362236 0.419556 0.025171
Cu1   Cu    Cu3+1 0.500010 0.500000 0.669080 1.012908
Cu2   Cu    Cu3+1 0.499990 0.500000 0.330920 1.013688
H1    H     H_    0.947889 0.505049 0.207416 0.094064
H2    H     H_    0.969329 0.996775 0.871941 0.152267
H3    H     H_    0.030570 0.882365 0.000843 0.154496
H4    H     H_    0.082253 0.033847 0.888877 0.141629
H5    H     H_    0.099791 0.777100 0.757160 0.169410
H6    H     H_    0.063168 0.914657 0.615195 0.146647
H7    H     H_    0.922052 0.814896 0.612935 0.129464
H8    H     H_    0.933695 0.714949 0.808156 0.145867
H9    H     H_    0.823358 0.984814 0.707127 0.142610
H10   H     H_    0.811366 0.089204 0.903186 0.151962
H11   H     H_    0.725028 0.067889 0.754070 0.159744
H12   H     H_    0.052530 0.474844 0.797491 0.090172
H13   H     H_    0.793054 0.313787 0.732214 0.179155
H14   H     H_    0.808233 0.211268 0.535442 0.171813
H15   H     H_    0.954255 0.149625 0.652875 0.148037
H16   H     H_    0.935411 0.272501 0.827249 0.121654
H17   H     H_    0.179326 0.880763 0.083535 0.150745
H18   H     H_    0.255912 0.769092 0.183163 0.168619
H19   H     H_    0.222663 0.730180 0.966312 0.150913
H20   H     H_    0.156625 0.554178 0.176868 0.176426
H21   H     H_    0.079603 0.651436 0.063590 0.148095
H22   H     H_    0.054062 0.813238 0.305733 0.124144
H23   H     H_    0.943694 0.933833 0.230838 0.141425
H24   H     H_    0.145460 0.758197 0.416844 0.145244
H25   H     H_    0.898795 0.009437 0.423151 0.154554
H26   H     H_    0.838880 0.998133 0.228338 0.142823
H27   H     H_    0.887018 0.248113 0.257880 0.169313
H28   H     H_    0.947186 0.171509 0.090056 0.136928
H29   H     H_    0.071564 0.237774 0.219180 0.122135
H30   H     H_    0.043729 0.133377 0.405712 0.135132
N1    N     N_1   0.499990 0.500000 0.076820 -0.081860
N2    N     N_1   0.500010 0.500000 0.923180 -0.081776
O1    O     O_R   0.500000 0.288400 0.642760 -0.495956
O2    O     O_R   0.500000 0.711600 0.357240 -0.496567
O3    O     O_R   0.500000 0.288400 0.357240 -0.495128
O4    O     O_R   0.500000 0.711600 0.642760 -0.495902
O5    O     O_R   0.379080 0.500000 0.642760 -0.498241
O6    O     O_R   0.620920 0.500000 0.357240 -0.495957
O7    O     O_R   0.379070 0.500000 0.357190 -0.499878
O8    O     O_R   0.620930 0.500000 0.642810 -0.499889

loop_
_geom_bond_atom_site_label_1
_geom_bond_atom_site_label_2
_ccdc_geom_bond_type
C6    C29   S    
C21   H24   S    
C20   H10   S    
C19   H13   S    
C25   O4    A    
C3    C9    T    
C17   H4    S    
Cu2   O7    S    
C5    C28   S    
C11   C13   S    
C12   C25   S    
C19   C20   S    
C6    H1    S    
C16   H5    S    
Cu1   N2    S    
C11   H30   S    
C18   H15   S    
C23   O1    A    
C24   H19   S    
C28   C30   S    
C20   H9    S    
C19   H14   S    
C18   H16   S    
C13   H28   S    
C26   O5    A    
C21   C22   S    
C2    C15   S    
C27   O6    A    
C15   H7    S    
C21   H22   S    
C1    C12   T    
C26   O7    A    
Cu2   O3    S    
C7    C29   S    
C6    C8    S    
C8    C10   S    
Cu1   O8    S    
C6    C30   S    
C5    H12   S    
C14   H23   S    
C22   H21   S    
C5    C7    S    
C2    C29   S    
C24   H18   S    
Cu1   O4    S    
C14   H26   S    
Cu1   Cu2   S    
C22   C24   S    
C15   H8    S    
C2    C5    S    
C17   H2    S    
C27   O8    A    
C4    C10   T    
C15   C16   S    
Cu1   O5    S    
C4    C27   S    
C18   C28   S    
C11   C30   S    
C8    C28   S    
Cu2   O2    S    
C18   C19   S    
C23   O3    A    
C24   H17   S    
C7    C9    S    
C14   H25   S    
Cu1   O1    S    
Cu2   O6    S    
C1    C23   S    
C17   H3    S    
C22   H20   S    
C13   H27   S    
C13   C14   S    
C21   C29   S    
C20   H11   S    
C3    C26   S    
C2    C8    S    
C25   O2    A    
N1    N2    T    
Cu2   N1    S    
C16   H6    S    
C16   C17   S    
C11   H29   S    
C7    C30   S    
