data_mof_unit_21811.cif
_audit_creation_date              2012-12-10T16:52:38-0500
_audit_creation_method            fapswitch 2.2
_symmetry_space_group_name_H-M    P1
_symmetry_Int_Tables_number       1
_space_group_crystal_system       triclinic
_cell_length_a                    7.781066
_cell_length_b                    8.721506
_cell_length_c                    13.932187
_cell_angle_alpha                 92.017981
_cell_angle_beta                  93.709362
_cell_angle_gamma                 94.215964
_cell_volume                      940.181686403

loop_
_atom_site_label
_atom_site_type_symbol
_atom_type_description
_atom_site_fract_x
_atom_site_fract_y
_atom_site_fract_z
_atom_type_partial_charge
C1    C     C_R   0.046915 0.794745 0.502990 0.850065
C2    C     C_R   0.936547 0.489947 0.318715 0.917468
C3    C     C_R   0.105061 0.539988 0.784430 -0.144505
C4    C     C_R   0.907877 0.479213 0.215416 -0.148905
C5    C     C_R   0.084991 0.715730 0.920980 -0.182754
C6    C     C_R   0.947904 0.352621 0.063113 -0.177660
C7    C     C_R   0.021808 0.656515 0.830565 -0.273435
C8    C     C_R   0.990498 0.372195 0.161194 -0.298495
C9    C     C_R   0.253164 0.482628 0.829419 0.443943
C10   C     C_R   0.792203 0.573244 0.171173 0.470088
C11   C     C_R   0.334653 0.564931 0.910311 -0.000268
C12   C     C_R   0.955873 0.205900 0.505470 0.882315
C13   C     C_R   0.720146 0.530562 0.078271 -0.037925
C14   C     C_R   0.241315 0.670139 0.961467 0.108470
C15   C     C_R   0.809591 0.427095 0.021951 0.109304
C16   C     C_R   0.503063 0.535920 0.945181 0.083404
C17   C     C_R   0.561757 0.583050 0.040388 0.064566
C18   C     C_3   0.869532 0.828886 0.175458 -0.401460
C19   C     C_3   0.338475 0.277751 0.735906 -0.275838
C20   C     C_3   0.365347 0.954151 0.588853 0.103736
C21   C     C_3   0.306651 0.892900 0.684921 -0.428315
C22   C     C_3   0.460829 0.856947 0.751955 -0.912571
C23   C     C_R   0.454435 0.671711 0.095029 -0.176035
C24   C     C_3   0.696670 0.950549 0.406472 0.125461
C25   C     C_3   0.583927 0.077320 0.371943 -0.372265
C26   C     C_3   0.460350 0.022411 0.285967 -0.937883
C27   C     C_R   0.615822 0.463732 0.886152 -0.169184
C28   C     C_R   0.302830 0.723131 0.053596 -0.229789
C29   C     C_R   0.761717 0.401771 0.924877 -0.187701
C30   C     C_2   0.073978 0.958596 0.517822 0.173740
C31   C     C_2   0.931981 0.043073 0.507319 0.164601
C32   C     C_R   0.064437 0.507562 0.681975 0.846131
H1    H     H_    0.229116 0.798023 0.095663 0.141232
H2    H     H_    0.511031 0.617123 0.574154 0.181171
H3    H     H_    0.855525 0.824143 0.095418 0.173354
H4    H     H_    0.006765 0.822816 0.201522 0.171012
H5    H     H_    0.829622 0.943100 0.198168 0.187301
H6    H     H_    0.428830 0.188701 0.751831 0.189878
H7    H     H_    0.414669 0.367718 0.699182 0.164219
H8    H     H_    0.229608 0.227724 0.686770 0.214429
H9    H     H_    0.476744 0.039912 0.605696 0.192448
H10   H     H_    0.419048 0.864448 0.544135 0.186586
H11   H     H_    0.229684 0.975907 0.721739 0.231409
H12   H     H_    0.837872 0.335334 0.878635 0.157812
H13   H     H_    0.221715 0.786865 0.671674 0.221428
H14   H     H_    0.517361 0.751435 0.725699 0.248579
H15   H     H_    0.417770 0.838579 0.825111 0.272211
H16   H     H_    0.562650 0.953471 0.757520 0.257088
H17   H     H_    0.616181 0.839614 0.403954 0.207225
H18   H     H_    0.800043 0.934762 0.356519 0.137882
H19   H     H_    0.506686 0.115174 0.431298 0.268905
H20   H     H_    0.667773 0.177334 0.350731 0.206500
H21   H     H_    0.533431 0.986968 0.224192 0.275077
H22   H     H_    0.381125 0.117599 0.263781 0.258905
H23   H     H_    0.086622 0.303762 0.194740 0.172625
H24   H     H_    0.372148 0.924017 0.305440 0.267037
H25   H     H_    0.908999 0.702855 0.796237 0.179485
H26   H     H_    0.015501 0.801079 0.957313 0.141057
H27   H     H_    0.015805 0.273008 0.020740 0.167783
H28   H     H_    0.481319 0.701292 0.170297 0.213199
H29   H     H_    0.593757 0.456199 0.809571 0.145009
H30   H     H_    0.488850 0.383842 0.425203 0.191572
N1    N     N_2   0.440860 0.456490 0.474790 -0.171936
N2    N     N_2   0.559140 0.543510 0.525210 -0.186998
O1    O     O_R   0.891570 0.738930 0.506190 -0.582867
O2    O     O_3   0.275231 0.325860 0.823504 -0.631454
O3    O     O_3   0.240214 0.032778 0.535141 -0.667493
O4    O     O_3   0.761576 0.980391 0.503358 -0.668574
O5    O     O_R   0.108430 0.261070 0.493810 -0.581050
O6    O     O_R   0.174650 0.711050 0.490030 -0.633806
O7    O     O_R   0.825350 0.288950 0.509970 -0.620961
O8    O     O_R   0.909850 0.521900 0.644940 -0.620174
O9    O     O_R   0.090150 0.478100 0.355060 -0.621350
O10   O     O_R   0.192930 0.494020 0.628780 -0.644758
O11   O     O_R   0.807070 0.505980 0.371220 -0.607669
O12   O     O_3   0.764644 0.712368 0.216175 -0.642936
Zn1   Zn    Zn3+2 0.810990 0.518620 0.510790 0.938632
Zn2   Zn    Zn3+2 0.189010 0.481380 0.489210 0.932672

loop_
_geom_bond_atom_site_label_1
_geom_bond_atom_site_label_2
_ccdc_geom_bond_type
C22   H16   S    
C12   O5    A    
C27   C29   A    
N2    Zn1   S    
C20   O3    S    
C4    C8    A    
C20   H9    S    
C32   O8    A    
C17   C23   A    
C5    H26   S    
C18   H5    S    
C3    C7    A    
C32   O10   A    
C30   C31   D    
C11   C14   A    
O6    Zn2   S    
C19   O2    S    
C9    O2    S    
C27   H29   S    
C6    C15   A    
C21   H11   S    
C10   O12   S    
C16   C17   A    
C1    O1    A    
O9    Zn2   S    
C18   H3    S    
C30   O3    S    
C16   C27   A    
C22   H15   S    
C21   C22   S    
O5    Zn2   S    
C31   O4    S    
C26   H22   S    
C8    H23   S    
C15   C29   A    
C21   H13   S    
C24   H18   S    
C23   H28   S    
O1    Zn1   S    
C24   C25   S    
C5    C7    A    
C6    C8    A    
C25   C26   S    
C2    C4    S    
C25   H19   S    
O8    Zn1   S    
C3    C9    A    
C19   H6    S    
O11   Zn1   S    
C11   C16   A    
H30   N1    S    
H2    N2    S    
C23   C28   A    
C9    C11   A    
C5    C14   A    
C2    O9    A    
C19   H7    S    
C22   H14   S    
C12   O7    A    
C28   H1    S    
C13   C15   A    
C12   C31   S    
C4    C10   A    
C26   H21   S    
O7    Zn1   S    
C24   H17   S    
C18   O12   S    
C6    H27   S    
C10   C13   A    
C26   H24   S    
C20   H10   S    
C1    O6    A    
C13   C17   A    
C25   H20   S    
C29   H12   S    
C1    C30   S    
C3    C32   S    
C19   H8    S    
C24   O4    S    
N1    N2    D    
C20   C21   S    
O10   Zn2   S    
C14   C28   A    
C18   H4    S    
C7    H25   S    
C2    O11   A    
N1    Zn2   S    
