data_mof_unit_50620.cif
_audit_creation_date              2012-12-11T14:46:13-0500
_audit_creation_method            fapswitch 2.2
_symmetry_space_group_name_H-M    P1
_symmetry_Int_Tables_number       1
_space_group_crystal_system       triclinic
_cell_length_a                    10.869711
_cell_length_b                    10.933741
_cell_length_c                    18.783103
_cell_angle_alpha                 90.21993
_cell_angle_beta                  89.892365
_cell_angle_gamma                 119.603464
_cell_volume                      1940.89953827

loop_
_atom_site_label
_atom_site_type_symbol
_atom_type_description
_atom_site_fract_x
_atom_site_fract_y
_atom_site_fract_z
_atom_type_partial_charge
Br1   Br    Br    0.164782 0.223289 0.906763 -0.543797
C1    C     C_R   0.868319 0.636201 0.605007 0.539435
C2    C     C_R   0.940675 0.145098 0.711204 -0.027927
C3    C     C_R   0.962965 0.161041 0.786346 0.009372
C4    C     C_R   0.267353 0.630106 0.604826 0.543737
C5    C     C_R   0.746068 0.195575 0.723108 0.021159
C6    C     C_R   0.780702 0.229675 0.795123 0.002797
C7    C     C_R   0.617463 0.184424 0.698500 -0.079298
C8    C     C_R   0.541902 0.230488 0.740058 -0.136615
C9    C     C_R   0.590862 0.286049 0.807341 -0.107132
C10   C     C_R   0.710867 0.288017 0.834478 -0.068320
C11   C     C_R   0.839597 0.173019 0.678737 -0.033118
C12   C     C_R   0.265866 0.551901 0.796100 -0.144853
C13   C     C_R   0.708540 0.597568 0.706574 -0.132716
C14   C     C_R   0.691179 0.603817 0.779462 -0.128218
C15   C     C_R   0.808770 0.652568 0.825176 0.025013
C16   C     C_R   0.860487 0.226251 0.603952 0.530590
C17   C     C_R   0.942831 0.692968 0.798036 -0.128086
C18   C     C_R   0.960472 0.689911 0.725525 -0.115365
C19   C     C_R   0.844107 0.645045 0.679659 0.044410
C20   C     C_R   0.275915 0.539370 0.277314 -0.129138
C21   C     C_R   0.284282 0.549762 0.204596 -0.121747
C22   C     C_R   0.322675 0.678613 0.171657 0.032271
C23   C     C_R   0.250119 0.535890 0.723567 -0.135472
C24   C     C_R   0.327534 0.789220 0.211639 -0.143999
C25   C     C_R   0.314726 0.777422 0.285540 -0.135530
C26   C     C_R   0.295441 0.654178 0.318780 0.035558
C27   C     C_R   0.699199 0.096244 0.298357 -0.129042
C28   C     C_R   0.864519 0.639180 0.398038 0.548890
C29   C     C_R   0.680229 0.061964 0.226973 -0.132987
C30   C     C_R   0.792947 0.075700 0.185633 0.032116
C31   C     C_R   0.925098 0.118645 0.217373 -0.138806
C32   C     C_R   0.945447 0.156114 0.289093 -0.145224
C33   C     C_R   0.833724 0.150611 0.329074 0.031001
C34   C     C_R   0.300848 0.654407 0.679624 0.026250
C35   C     C_R   0.909054 0.785416 0.293691 -0.130728
C36   C     C_R   0.905698 0.792418 0.221069 -0.127571
C37   C     C_R   0.807882 0.675916 0.181221 0.034969
C38   C     C_R   0.710819 0.552101 0.215662 -0.132087
C39   C     C_R   0.719041 0.542550 0.289169 -0.129772
C40   C     C_R   0.264521 0.629915 0.394248 0.550578
C41   C     C_R   0.822001 0.658350 0.327907 0.030005
C42   C     C_R   0.813526 0.110642 0.897187 0.571796
C43   C     C_R   0.394292 0.701489 0.896860 0.551139
C44   C     C_R   0.796453 0.690860 0.897279 0.536863
C45   C     C_R   0.869239 0.187266 0.828770 -0.022958
C46   C     C_R   0.768105 0.043278 0.110007 0.557535
C47   C     C_R   0.390527 0.702750 0.102280 0.541444
C48   C     C_R   0.796019 0.698164 0.106232 0.536098
C49   C     C_R   0.860597 0.225241 0.396729 0.547730
C50   C     C_R   0.360332 0.789140 0.709337 -0.156131
C51   C     C_R   0.379380 0.805319 0.782640 -0.142070
C52   C     C_R   0.336610 0.686092 0.825856 0.015957
C53   C     C_R   0.078316 0.149415 0.815294 0.171705
C54   C     C_R   0.150393 0.100176 0.772827 -0.095538
C55   C     C_R   0.117261 0.070311 0.701236 -0.153205
C56   C     C_R   0.016001 0.095583 0.670168 -0.098218
Cr1   Cr    Cr6+3 0.791660 0.390250 0.499930 1.012626
Cr2   Cr    Cr6+3 0.098520 0.708290 0.500540 1.004046
Cr3   Cr    Cr6+3 0.109770 0.401430 0.499480 1.008895
Cr4   Cr    Cr6+3 0.874790 0.925890 0.000070 1.071921
Cr5   Cr    Cr6+3 0.574120 0.948670 0.999300 1.021780
Cr6   Cr    Cr6+3 0.551420 0.625320 0.000920 1.043892
H1    H     H_    0.393886 0.880687 0.675934 0.110281
H2    H     H_    0.272503 0.459442 0.174853 0.142222
H3    H     H_    0.347638 0.886014 0.186264 0.115795
H4    H     H_    0.434595 0.910689 0.804743 0.151509
H5    H     H_    0.321108 0.864155 0.316493 0.118953
H6    H     H_    0.610567 0.089587 0.328072 0.126518
H7    H     H_    0.578872 0.030536 0.203135 0.122630
H8    H     H_    0.013920 0.129302 0.186372 0.126346
H9    H     H_    0.049900 0.196939 0.311915 0.115047
H10   H     H_    0.987904 0.876966 0.322286 0.131634
H11   H     H_    0.979762 0.891073 0.196426 0.134341
H12   H     H_    0.446018 0.224215 0.719591 0.107250
H13   H     H_    0.631551 0.462994 0.185856 0.127619
H14   H     H_    0.650476 0.443129 0.314915 0.131406
H15   H     H_    0.229921 0.459674 0.828585 0.181043
H16   H     H_    0.196595 0.430053 0.701999 0.154268
H17   H     H_    0.235211 0.087733 0.795254 0.134185
H18   H     H_    0.173262 0.031080 0.669148 0.117925
H19   H     H_    0.993522 0.071338 0.614164 0.133619
H20   H     H_    0.744335 0.327319 0.888084 0.130276
H21   H     H_    0.570391 0.134952 0.648331 0.131985
H22   H     H_    0.533424 0.323648 0.839401 0.140270
H23   H     H_    0.618038 0.559828 0.671398 0.118111
H24   H     H_    0.587150 0.575727 0.799737 0.143882
H25   H     H_    0.034477 0.732576 0.832585 0.132408
H26   H     H_    0.065429 0.722655 0.705136 0.141333
H27   H     H_    0.252431 0.439816 0.300743 0.129299
O1    O     O_R   0.766500 0.250040 0.579790 -0.525019
O2    O     O_R   0.413330 0.603360 0.920440 -0.490900
O3    O     O_R   0.676110 0.626250 0.926750 -0.507890
O4    O     O_R   0.798570 0.516780 0.574780 -0.496085
O5    O     O_R   0.895350 0.809870 0.080950 -0.530249
O6    O     O_R   0.872490 0.049760 0.073800 -0.490276
O7    O     O_R   0.691680 0.088070 0.079070 -0.514537
O8    O     O_R   0.451720 0.825250 0.074050 -0.524480
O9    O     O_R   0.413580 0.606370 0.080960 -0.510120
O10   O     O_R   0.676340 0.629040 0.075550 -0.502763
O11   O     O_3   0.666780 0.833290 0.000090 -0.278532
O12   O     O_R   0.218690 0.701900 0.425960 -0.502411
O13   O     O_R   0.984000 0.732950 0.581090 -0.531563
O14   O     O_R   0.218600 0.700890 0.574760 -0.509023
O15   O     O_R   0.249390 0.515350 0.579940 -0.521814
O16   O     O_R   0.982790 0.280900 0.573700 -0.504390
O17   O     O_R   0.766600 0.251130 0.419260 -0.526097
O18   O     O_R   0.798660 0.517790 0.425980 -0.504939
O19   O     O_R   0.984100 0.734040 0.420570 -0.524907
O20   O     O_R   0.249490 0.516440 0.419420 -0.526572
O21   O     O_R   0.982880 0.281910 0.424890 -0.508324
O22   O     O_3   0.999980 0.499990 0.499980 -0.240870
O23   O     O_R   0.895110 0.806860 0.920430 -0.493759
O24   O     O_R   0.872260 0.046970 0.925000 -0.441648
O25   O     O_R   0.691430 0.085060 0.918550 -0.522687
O26   O     O_R   0.451490 0.822460 0.925250 -0.506209

loop_
_geom_bond_atom_site_label_1
_geom_bond_atom_site_label_2
_ccdc_geom_bond_type
C54   C55   A    
C9    H22   S    
C28   C41   S    
C35   C41   A    
C27   H6    S    
C16   O1    A    
Cr6   O11   S    
C44   O3    A    
C36   H11   S    
Cr4   O6    S    
C55   H18   S    
C37   C48   S    
C3    C45   A    
C40   O12   A    
C6    C10   A    
C25   C26   A    
C36   C37   A    
C18   H26   S    
Cr2   O14   S    
C28   O19   A    
C35   C36   A    
C17   C18   A    
C42   O24   A    
C5    C11   A    
C37   C38   A    
C14   C15   A    
C56   H19   S    
C55   C56   A    
Cr1   O17   S    
Cr6   O9    S    
C2    C11   A    
C32   H9    S    
C42   O25   A    
Cr5   O8    S    
C43   C52   S    
C18   C19   A    
C7    C8    A    
Cr6   O2    S    
C46   O6    A    
C28   O18   A    
C8    C9    A    
C43   O2    A    
Cr5   O11   S    
C39   C41   A    
C20   C26   A    
C4    O14   A    
C27   C33   A    
C30   C46   S    
C20   C21   A    
C29   H7    S    
Cr2   O22   S    
C31   H8    S    
C12   C52   A    
C20   H27   S    
C33   C49   S    
C23   C34   A    
C50   H1    S    
C1    C19   S    
C50   C51   A    
C6    C45   A    
C13   C19   A    
C1    O4    A    
C13   H23   S    
C9    C10   A    
C38   C39   A    
C5    C7    A    
C10   H20   S    
C24   C25   A    
C17   H25   S    
C12   C23   A    
C11   C16   S    
Cr4   O11   S    
Br1   C53   S    
C21   H2    S    
Cr5   O26   S    
Cr6   O10   S    
Cr3   O22   S    
Cr5   O7    S    
C26   C40   S    
C23   H16   S    
C30   C31   A    
C13   C14   A    
C32   C33   A    
C4    O15   A    
C38   H13   S    
C48   O5    A    
C51   H4    S    
C2    C56   A    
C40   O20   A    
Cr4   O23   S    
C49   O17   A    
Cr1   O22   S    
C2    C3    A    
Cr3   O16   S    
C51   C52   A    
C14   H24   S    
Cr1   O1    S    
C47   O9    A    
C53   C54   A    
C22   C47   S    
C3    C53   A    
C7    H21   S    
Cr2   O12   S    
C24   H3    S    
C15   C44   S    
Cr4   O5    S    
C5    C6    A    
C47   O8    A    
Cr6   O3    S    
C46   O7    A    
C25   H5    S    
C31   C32   A    
C27   C29   A    
Cr1   O4    S    
Cr2   O13   S    
Cr5   O25   S    
Cr3   O21   S    
C16   O16   A    
C48   O10   A    
C34   C50   A    
C54   H17   S    
C29   C30   A    
C1    O13   A    
C4    C34   S    
C49   O21   A    
Cr2   O19   S    
Cr1   O18   S    
C39   H14   S    
C42   C45   S    
Cr3   O20   S    
C35   H10   S    
C12   H15   S    
C44   O23   A    
C22   C24   A    
C43   O26   A    
C15   C17   A    
Cr4   O24   S    
C21   C22   A    
C8    H12   S    
Cr3   O15   S    
