data_mof_unit_7201.cif
_audit_creation_date              2012-12-10T20:27:10-0500
_audit_creation_method            fapswitch 2.2
_symmetry_space_group_name_H-M    P1
_symmetry_Int_Tables_number       1
_space_group_crystal_system       triclinic
_cell_length_a                    10.75951
_cell_length_b                    10.71656
_cell_length_c                    9.869862
_cell_angle_alpha                 90.681967
_cell_angle_beta                  102.161327
_cell_angle_gamma                 90.245128
_cell_volume                      1112.39855658

loop_
_atom_site_label
_atom_site_type_symbol
_atom_type_description
_atom_site_fract_x
_atom_site_fract_y
_atom_site_fract_z
_atom_type_partial_charge
C1    C     C_R   0.504394 0.260278 0.500166 0.886618
C2    C     C_R   0.520527 0.129051 0.499155 -0.133817
C3    C     C_R   0.482029 0.063351 0.373535 -0.224416
C4    C     C_R   0.477792 0.934809 0.374240 -0.225196
C5    C     C_R   0.511471 0.872291 0.500547 -0.134924
C6    C     C_R   0.569434 0.938078 0.619823 0.087544
C7    C     C_3   0.549228 0.936479 0.765684 -0.024305
C8    C     C_3   0.562082 0.079334 0.766932 -0.039583
C9    C     C_R   0.445857 0.403303 0.058712 0.169796
C10   C     C_R   0.570562 0.584204 0.089204 -0.132185
C11   C     C_R   0.572366 0.582406 0.945599 -0.166759
C12   C     C_R   0.258459 0.502640 0.443271 0.884143
C13   C     C_R   0.442361 0.405595 0.915431 0.163917
C14   C     C_3   0.304407 0.369766 0.886690 -0.022995
C15   C     C_3   0.312515 0.359155 0.041488 -0.504615
C16   C     C_R   0.500652 0.740128 0.500564 0.877572
C17   C     C_R   0.740831 0.504792 0.556650 0.859561
C18   C     C_2   0.120246 0.513483 0.411236 0.056358
C19   C     C_2   0.066245 0.578194 0.500950 -0.257444
C20   C     C_2   0.877304 0.522704 0.588137 0.051228
C21   C     C_2   0.930002 0.577234 0.491779 -0.203560
C22   C     C_R   0.576735 0.065754 0.619197 0.076077
H1    H     H_    0.870818 0.613309 0.397489 0.147654
H2    H     H_    0.625229 0.654061 0.156763 0.142184
H3    H     H_    0.630916 0.647670 0.905304 0.189540
H4    H     H_    0.284281 0.278801 0.830587 0.105687
H5    H     H_    0.250662 0.424469 0.084892 0.245711
H6    H     H_    0.474756 0.129454 0.779339 0.114265
N1    N     N_R   0.499160 0.499140 0.142600 -0.098589
N2    N     N_R   0.499160 0.499180 0.856960 -0.109966
O1    O     O_R   0.500020 0.316790 0.614700 -0.624473
O2    O     O_R   0.500000 0.316760 0.385350 -0.615863
O3    O     O_R   0.317820 0.500020 0.571850 -0.636791
O4    O     O_R   0.317800 0.499980 0.342510 -0.603534
O5    O     O_R   0.500000 0.683240 0.614650 -0.612759
O6    O     O_R   0.499980 0.683210 0.385300 -0.626807
O7    O     O_R   0.682200 0.500020 0.657490 -0.616532
O8    O     O_R   0.682180 0.499980 0.428150 -0.626158
Zn1   Zn    Zn3+2 0.500010 0.500020 0.653140 0.916621
Zn2   Zn    Zn3+2 0.499990 0.499980 0.346860 0.932596
N3    N     N_2   0.676759 0.123673 0.861889 -0.284231
H7    H     H_    0.670853 0.117163 0.964524 0.222160
C23   C     C_3   0.731636 0.240832 0.832174 -0.723052
H8    H     H_    0.668507 0.318808 0.846580 0.258788
H9    H     H_    0.749154 0.240442 0.725333 0.238927
H10   H     H_    0.824462 0.255217 0.905112 0.213672
N4    N     N_2   0.218466 0.467817 0.825626 -0.258003
H11   H     H_    0.180701 0.451273 0.722823 0.268148
C24   C     C_3   0.244102 0.598539 0.864367 -0.707534
H12   H     H_    0.155287 0.652762 0.837759 0.221971
H13   H     H_    0.310812 0.639614 0.805340 0.247332
H14   H     H_    0.281996 0.610608 0.977193 0.237390
H15   H     H_    0.307806 0.261123 0.075684 0.156575
H16   H     H_    0.124318 0.624686 0.590394 0.176052
N5    N     N_2   0.951577 0.472654 0.712062 -0.296823
H17   H     H_    0.947093 0.376575 0.713765 0.215717
C25   C     C_3   0.933425 0.528977 0.840814 -0.772600
H18   H     H_    0.009653 0.497939 0.927629 0.260740
H19   H     H_    0.842147 0.499364 0.865666 0.249493
H20   H     H_    0.937228 0.632136 0.835311 0.236401
N6    N     N_2   0.048044 0.458455 0.286106 -0.300814
H21   H     H_    0.956278 0.489341 0.252891 0.238532
C26   C     C_3   0.059625 0.324565 0.273878 -0.812047
H22   H     H_    0.020551 0.277658 0.355855 0.240672
H23   H     H_    0.160566 0.297660 0.282740 0.244458
H24   H     H_    0.005377 0.292335 0.170848 0.236678
H25   H     H_    0.446025 0.110594 0.276835 0.161629
H26   H     H_    0.440455 0.885453 0.277657 0.166893
H27   H     H_    0.452451 0.903725 0.772261 0.103749
N7    N     N_2   0.648562 0.873189 0.864168 -0.286735
H28   H     H_    0.649022 0.892242 0.966933 0.214414
C27   C     C_3   0.772768 0.852740 0.832657 -0.744832
H29   H     H_    0.835420 0.807220 0.921960 0.207806
H30   H     H_    0.817567 0.942232 0.812933 0.260993
H31   H     H_    0.764106 0.790033 0.740701 0.241682

loop_
_geom_bond_atom_site_label_1
_geom_bond_atom_site_label_2
_ccdc_geom_bond_type
O7    Zn1   S    
C2    C22   A    
C8    C22   S    
C23   H8    S    
C26   H23   S    
C18   N6    S    
C7    H27   S    
C14   N4    S    
O6    Zn2   S    
C23   H9    S    
N3    H7    S    
C15   H5    S    
N4    H11   S    
C9    N1    A    
N5    H17   S    
C24   H14   S    
C20   C21   D    
C7    N7    S    
O2    Zn2   S    
C2    C3    A    
C9    C15   S    
C26   H24   S    
C7    C8    S    
N4    C24   S    
C17   O7    A    
C13   C14   S    
C14   H4    S    
O8    Zn2   S    
C5    C6    A    
N3    C23   S    
C10   N1    A    
C25   H18   S    
O3    Zn1   S    
C27   H31   S    
O4    Zn2   S    
O5    Zn1   S    
C15   H15   S    
C19   H16   S    
C19   C21   S    
O1    Zn1   S    
N2    Zn1   S    
C24   H12   S    
C6    C7    S    
C17   O8    A    
N5    C25   S    
C16   O5    A    
N6    H21   S    
C8    H6    S    
C23   H10   S    
C3    H25   S    
C25   H19   S    
N7    H28   S    
C20   N5    S    
C10   C11   A    
C11   H3    S    
C12   O4    A    
C3    C4    A    
C6    C22   A    
C13   N2    A    
C1    O1    A    
C17   C20   S    
C8    N3    S    
N1    Zn2   S    
C27   H29   S    
C27   H30   S    
C1    C2    S    
C24   H13   S    
C12   C18   S    
N6    C26   S    
C9    C13   A    
C14   C15   S    
C18   C19   D    
C25   H20   S    
N7    C27   S    
C10   H2    S    
C12   O3    A    
C4    H26   S    
C21   H1    S    
C1    O2    A    
C16   O6    A    
C26   H22   S    
C11   N2    A    
C4    C5    A    
C5    C16   S    
