data_mof_unit_9969.cif
_audit_creation_date              2012-12-10T18:16:29-0500
_audit_creation_method            fapswitch 2.2
_symmetry_space_group_name_H-M    P1
_symmetry_Int_Tables_number       1
_space_group_crystal_system       triclinic
_cell_length_a                    12.553784
_cell_length_b                    13.26129
_cell_length_c                    27.679296
_cell_angle_alpha                 90.751456
_cell_angle_beta                  102.56152
_cell_angle_gamma                 83.172545
_cell_volume                      4465.44871034

loop_
_atom_site_label
_atom_site_type_symbol
_atom_type_description
_atom_site_fract_x
_atom_site_fract_y
_atom_site_fract_z
_atom_type_partial_charge
C1    C     C_R   0.439485 0.690422 0.492586 0.860236
C2    C     C_R   0.508840 0.597153 0.027424 0.041625
C3    C     C_R   0.498120 0.413561 0.024203 0.040694
C4    C     C_R   0.500564 0.500747 0.593905 0.873673
C5    C     C_R   0.502722 0.504848 0.051012 0.096607
C6    C     C_R   0.535822 0.681361 0.057232 -0.247232
C7    C     C_R   0.539934 0.678965 0.107809 -0.145461
C8    C     C_R   0.519234 0.591481 0.130159 -0.017363
C9    C     C_R   0.501342 0.503759 0.101825 -0.062174
C10   C     C_R   0.482121 0.414917 0.124198 -0.017169
C11   C     C_R   0.481705 0.415369 0.174650 0.489657
C12   C     C_R   0.402021 0.502768 0.713057 0.277213
C13   C     C_R   0.518109 0.588496 0.180502 0.499334
C14   C     C_R   0.602517 0.484953 0.288351 0.152683
C15   C     C_R   0.599829 0.485658 0.338469 -0.251665
C16   C     C_R   0.560478 0.308852 0.506307 0.860231
C17   C     C_R   0.400379 0.510847 0.318165 -0.235797
C18   C     C_R   0.401881 0.511664 0.268175 -0.127037
C19   C     C_R   0.502041 0.499062 0.253131 0.304035
C20   C     C_R   0.491466 0.600491 0.975111 -0.029189
C21   C     C_R   0.505443 0.506783 0.950180 0.021034
C22   C     C_R   0.518393 0.412191 0.975829 -0.029820
C23   C     C_R   0.501655 0.508840 0.747500 0.257175
C24   C     C_R   0.460030 0.692542 0.946564 0.198854
C25   C     C_R   0.553588 0.324702 0.901851 -0.146681
C26   C     C_R   0.469550 0.328288 0.046170 -0.246823
C27   C     C_R   0.462586 0.328580 0.095602 -0.143705
C28   C     C_R   0.499441 0.499621 0.406167 0.850600
C29   C     C_R   0.551361 0.321104 0.952028 0.197278
C30   C     C_R   0.694244 0.066029 0.572108 -0.223133
C31   C     C_R   0.595927 0.200362 0.515215 -0.195844
C32   C     C_R   0.341695 0.818394 0.428900 0.092132
C33   C     C_R   0.362906 0.900535 0.402863 -0.188632
C34   C     C_R   0.506095 0.507591 0.899337 -0.059137
C35   C     C_R   0.440845 0.962370 0.425014 -0.179911
C36   C     C_R   0.488722 0.952936 0.476079 0.096866
C37   C     C_R   0.475180 0.866487 0.501865 0.055717
C38   C     C_R   0.550631 0.026724 0.502306 0.052440
C39   C     C_R   0.623449 0.999005 0.548050 0.075908
C40   C     C_R   0.483412 0.598636 0.821842 0.524650
C41   C     C_R   0.616972 0.908542 0.571657 -0.220802
C42   C     C_R   0.537054 0.847709 0.550753 -0.186790
C43   C     C_R   0.530725 0.129952 0.487833 0.106224
C44   C     C_R   0.682326 0.166497 0.556015 0.181721
C45   C     C_R   0.484177 0.599816 0.872496 -0.072464
C46   C     C_R   0.406922 0.795999 0.477207 -0.148770
C47   C     C_R   0.081857 0.361120 0.424601 -0.321269
C48   C     C_R   0.800343 0.631007 0.557651 -0.012892
C49   C     C_R   0.906308 0.659355 0.570021 0.073854
C50   C     C_R   0.987814 0.607650 0.548413 -0.234515
C51   C     C_R   0.963383 0.528277 0.514580 -0.014876
C52   C     C_R   0.527933 0.418528 0.824588 0.508427
C53   C     C_R   0.854544 0.503619 0.503497 0.187441
C54   C     C_R   0.041312 0.475240 0.490104 -0.023471
C55   C     C_R   0.007299 0.402980 0.452901 0.144958
C56   C     C_R   0.459089 0.690501 0.895985 -0.150912
C57   C     C_R   0.900083 0.374472 0.444671 0.030265
C58   C     C_R   0.825977 0.426818 0.469841 -0.248722
C59   C     C_R   0.152751 0.491212 0.500973 -0.034177
C60   C     C_R   0.188496 0.385386 0.435293 -0.024552
C61   C     C_R   0.599167 0.514341 0.731645 -0.133137
C62   C     C_R   0.598997 0.512331 0.681499 -0.228407
C63   C     C_R   0.403076 0.498818 0.662709 -0.238300
C64   C     C_3   0.554332 0.137106 0.963755 -0.802751
C65   C     C_3   0.854836 0.237536 0.576468 -0.741147
C66   C     C_3   0.207596 0.567315 0.707589 -0.773169
C67   C     C_R   0.528291 0.416097 0.875131 -0.069801
C68   C     C_3   0.329824 0.162831 0.463023 -0.709134
C69   C     C_3   0.258538 0.751078 0.402010 -0.397881
C70   C     C_3   0.158235 0.755979 0.425709 -0.319707
C71   C     C_3   0.077068 0.684791 0.400009 -0.864369
C72   C     C_3   0.866791 0.287543 0.409761 -0.423265
C73   C     C_3   0.758124 0.246884 0.412410 -0.371907
C74   C     C_3   0.739722 0.154143 0.379819 -0.850993
C75   C     C_3   0.930813 0.746570 0.604646 -0.435314
C76   C     C_3   0.917061 0.722222 0.656816 -0.358124
C77   C     C_3   0.948832 0.807832 0.692433 -0.850059
C78   C     C_R   0.501080 0.503816 0.646740 -0.089067
C79   C     C_3   0.712593 0.465019 0.273801 -0.425786
C80   C     C_3   0.782513 0.552243 0.289291 -0.320617
C81   C     C_3   0.895201 0.529398 0.276599 -0.881056
C82   C     C_3   0.458727 0.875769 0.961799 -0.804844
C83   C     C_R   0.499453 0.498542 0.353516 -0.058771
H1    H     H_    0.327152 0.491391 0.636153 0.172833
H2    H     H_    0.461848 0.018485 0.401813 0.169010
H3    H     H_    0.322073 0.914885 0.364471 0.148070
H4    H     H_    0.527085 0.783376 0.572386 0.143798
H5    H     H_    0.245687 0.355638 0.413042 0.146538
H6    H     H_    0.058931 0.310997 0.393951 0.141081
H7    H     H_    0.186980 0.540081 0.530138 0.124011
H8    H     H_    0.735473 0.670270 0.573353 0.138512
H9    H     H_    0.433405 0.759939 0.874323 0.197247
H10   H     H_    0.068262 0.632651 0.557727 0.129639
H11   H     H_    0.744878 0.407712 0.462470 0.222814
H12   H     H_    0.675259 0.519678 0.758400 0.146106
H13   H     H_    0.676555 0.474643 0.365765 0.162755
H14   H     H_    0.558847 0.746028 0.129212 0.188783
H15   H     H_    0.556682 0.748953 0.042109 0.174705
H16   H     H_    0.675582 0.516416 0.670041 0.163992
H17   H     H_    0.633813 0.236334 0.016458 0.238700
H18   H     H_    0.593370 0.075251 0.990774 0.241484
H19   H     H_    0.570086 0.113552 0.927113 0.254895
H20   H     H_    0.464372 0.146842 0.961718 0.238417
H21   H     H_    0.707253 0.303556 0.593247 0.250170
H22   H     H_    0.900698 0.288753 0.603144 0.235598
H23   H     H_    0.579839 0.255926 0.884036 0.198223
H24   H     H_    0.847680 0.266653 0.538383 0.244712
H25   H     H_    0.901849 0.160534 0.580651 0.238658
H26   H     H_    0.308190 0.476794 0.765440 0.230945
H27   H     H_    0.181395 0.614950 0.737223 0.246822
H28   H     H_    0.138998 0.524742 0.689553 0.238682
H29   H     H_    0.225084 0.618919 0.679692 0.240652
H30   H     H_    0.442095 0.223696 0.427688 0.228571
H31   H     H_    0.263784 0.174587 0.429042 0.214155
H32   H     H_    0.316371 0.222483 0.490157 0.263875
H33   H     H_    0.322734 0.089128 0.479720 0.238423
H34   H     H_    0.449856 0.261415 0.025192 0.174855
H35   H     H_    0.044713 0.708269 0.360680 0.253640
H36   H     H_    0.117706 0.605471 0.401613 0.273026
H37   H     H_    0.007125 0.687524 0.418802 0.252030
H38   H     H_    0.183749 0.734828 0.465581 0.234661
H39   H     H_    0.116024 0.834968 0.422796 0.214096
H40   H     H_    0.228746 0.775717 0.362629 0.187377
H41   H     H_    0.297700 0.671877 0.400854 0.224143
H42   H     H_    0.736062 0.174076 0.340585 0.267658
H43   H     H_    0.807111 0.091705 0.392236 0.258670
H44   H     H_    0.660701 0.127134 0.382440 0.248363
H45   H     H_    0.322101 0.521270 0.329146 0.157456
H46   H     H_    0.759840 0.224758 0.451175 0.230184
H47   H     H_    0.687460 0.305843 0.399493 0.216974
H48   H     H_    0.862343 0.312644 0.371164 0.198877
H49   H     H_    0.932566 0.222457 0.419056 0.211338
H50   H     H_    0.036500 0.818373 0.695430 0.265646
H51   H     H_    0.896339 0.879912 0.679346 0.257914
H52   H     H_    0.937142 0.788577 0.729708 0.254632
H53   H     H_    0.830184 0.711397 0.655854 0.214026
H54   H     H_    0.969747 0.650867 0.670909 0.230302
H55   H     H_    0.016167 0.764235 0.606874 0.207184
H56   H     H_    0.442816 0.260672 0.111364 0.189472
H57   H     H_    0.874177 0.815327 0.589630 0.202768
H58   H     H_    0.940675 0.459871 0.296662 0.259744
H59   H     H_    0.886262 0.518447 0.236120 0.267674
H60   H     H_    0.943541 0.593966 0.287856 0.250657
H61   H     H_    0.739784 0.623467 0.269933 0.262431
H62   H     H_    0.794780 0.564405 0.329834 0.222564
H63   H     H_    0.756701 0.393112 0.291998 0.196861
H64   H     H_    0.702519 0.453864 0.233315 0.206006
H65   H     H_    0.375462 0.776157 0.995408 0.239618
H66   H     H_    0.418794 0.937374 0.981709 0.241613
H67   H     H_    0.325108 0.522301 0.240894 0.142241
H68   H     H_    0.445849 0.900365 0.922608 0.254757
H69   H     H_    0.548189 0.864937 0.978487 0.237554
H70   H     H_    0.667936 0.888666 0.607961 0.148617
H71   H     H_    0.753008 0.042860 0.606138 0.157730
N1    N     N_R   0.504848 0.508808 0.799235 -0.357917
N2    N     N_R   0.500386 0.501086 0.201529 -0.359069
N3    N     N_R   0.222180 0.444690 0.474320 -0.102728
N4    N     N_R   0.776980 0.554780 0.525420 -0.134588
N5    N     N_2   0.600894 0.230334 0.979190 -0.309230
N6    N     N_2   0.747008 0.234083 0.586434 -0.297918
N7    N     N_2   0.302232 0.495655 0.728864 -0.301040
N8    N     N_2   0.436035 0.164225 0.450181 -0.315758
N9    N     N_2   0.410369 0.782901 0.965365 -0.309157
O1    O     O_R   0.366730 0.627160 0.487740 -0.622582
O2    O     O_R   0.410930 0.482330 0.420550 -0.633338
O3    O     O_R   0.589030 0.517690 0.436960 -0.632736
O4    O     O_2   0.461239 0.686161 0.795263 -0.562856
O5    O     O_2   0.534298 0.671967 0.208294 -0.576701
O6    O     O_2   0.549424 0.331557 0.800725 -0.559335
O7    O     O_2   0.463888 0.330887 0.196897 -0.566047
O8    O     O_R   0.544830 0.662520 0.504140 -0.604256
O9    O     O_R   0.410970 0.482310 0.563040 -0.620962
O10   O     O_R   0.589070 0.517670 0.579450 -0.631919
O11   O     O_R   0.455170 0.337480 0.495860 -0.596889
O12   O     O_R   0.633270 0.372840 0.512260 -0.644496
Zn1   Zn    Zn3+2 0.381080 0.476390 0.489050 0.926320
Zn2   Zn    Zn3+2 0.618920 0.523610 0.510950 0.924024

loop_
_geom_bond_atom_site_label_1
_geom_bond_atom_site_label_2
_ccdc_geom_bond_type
C10   C27   A    
C64   H20   S    
H17   N5    S    
C8    C13   A    
C22   C29   A    
C23   N1    S    
C35   H2    S    
C41   C42   A    
C35   C36   A    
C25   C67   A    
C26   H34   S    
C75   C76   S    
C76   H53   S    
C7    C8    A    
O12   Zn2   S    
C76   H54   S    
O2    Zn1   S    
C64   H19   S    
C12   C23   A    
C53   N4    A    
C31   C43   A    
C71   H37   S    
C6    H15   S    
C36   C37   A    
N4    Zn2   S    
H30   N8    S    
C75   H57   S    
C38   C39   A    
C1    C46   S    
C74   H42   S    
C82   N9    S    
C69   H40   S    
C18   C19   A    
C73   C74   S    
C37   C42   A    
C40   O4    S    
C47   C60   A    
C73   H47   S    
C20   C24   A    
C45   C56   A    
C8    C9    A    
C80   H61   S    
C48   H8    S    
C49   C75   S    
C40   N1    A    
C70   C71   S    
C66   H28   S    
C29   N5    S    
C7    H14   S    
C9    C10   A    
C65   H25   S    
C82   H68   S    
C28   O3    A    
C61   C62   A    
C81   H58   S    
C12   N7    S    
C21   C22   A    
C28   C83   S    
C25   C29   A    
C19   N2    S    
C47   H6    S    
C30   C44   A    
C2    C6    A    
C77   H50   S    
H21   N6    S    
C65   N6    S    
C65   H22   S    
C25   H23   S    
C72   H49   S    
C79   H63   S    
C41   H70   S    
C54   C59   A    
C60   H5    S    
C64   H18   S    
C73   H46   S    
C31   C44   A    
C2    C20   A    
C60   N3    A    
C1    O1    A    
C39   C41   A    
C15   H13   S    
O3    Zn2   S    
C12   C63   A    
C72   C73   S    
C13   O5    S    
C15   C83   A    
C21   C34   A    
C68   H32   S    
C69   H41   S    
C50   C51   A    
C16   C31   S    
C1    O8    A    
C27   H56   S    
C79   C80   S    
C66   N7    S    
C52   N1    A    
C59   H7    S    
C34   C67   A    
C33   H3    S    
C13   N2    A    
C4    C78   S    
C70   H39   S    
C74   H44   S    
O10   Zn2   S    
C20   C21   A    
C17   C18   A    
C26   C27   A    
C50   H10   S    
C34   C45   A    
C14   C79   S    
C66   H27   S    
C6    C7    A    
C52   C67   A    
C11   N2    A    
C68   H33   S    
C28   O2    A    
C16   O12   A    
C80   H62   S    
C30   H71   S    
C4    O10   A    
C55   C57   A    
C44   N6    S    
C24   N9    S    
C77   H51   S    
C72   H48   S    
C47   C55   A    
C23   C61   A    
C16   O11   A    
C54   C55   A    
C81   H59   S    
C4    O9    A    
C71   H35   S    
H65   N9    S    
C32   C46   A    
C14   C19   A    
C62   C78   A    
C3    C26   A    
C5    C9    A    
C80   C81   S    
C3    C5    A    
C75   H55   S    
C52   O6    S    
C79   H64   S    
C53   C58   A    
C61   H12   S    
C17   H45   S    
C32   C69   S    
C68   N8    S    
C24   C56   A    
C71   H36   S    
C63   H1    S    
C51   C54   A    
C66   H29   S    
C32   C33   A    
C36   C38   A    
C58   H11   S    
C17   C83   A    
C38   C43   A    
H26   N7    S    
C76   C77   S    
C59   N3    A    
C70   H38   S    
C57   C58   A    
C74   H43   S    
C48   N4    A    
C48   C49   A    
C64   N5    S    
C33   C35   A    
C30   C39   A    
O1    Zn1   S    
C57   C72   S    
C69   C70   S    
O11   Zn1   S    
C82   H66   S    
C10   C11   A    
N3    Zn1   S    
C62   H16   S    
C2    C5    A    
C43   N8    S    
C81   H60   S    
C40   C45   A    
C11   O7    S    
C49   C50   A    
C14   C15   A    
O8    Zn2   S    
C3    C22   A    
C42   H4    S    
C77   H52   S    
C51   C53   A    
C37   C46   A    
C18   H67   S    
C56   H9    S    
C65   H24   S    
C82   H69   S    
O9    Zn1   S    
C68   H31   S    
C63   C78   A    
