data_mof_unit_46642.cif
_audit_creation_date              2012-12-11T15:39:34-0500
_audit_creation_method            fapswitch 2.2
_symmetry_space_group_name_H-M    P1
_symmetry_Int_Tables_number       1
_space_group_crystal_system       triclinic
_cell_length_a                    17.374682
_cell_length_b                    24.369953
_cell_length_c                    14.956343
_cell_angle_alpha                 90.000014
_cell_angle_beta                  125.09381
_cell_angle_gamma                 89.999977
_cell_volume                      5181.58622091

loop_
_atom_site_label
_atom_site_type_symbol
_atom_type_description
_atom_site_fract_x
_atom_site_fract_y
_atom_site_fract_z
_atom_type_partial_charge
C1    C     C_R   0.310767 0.375443 0.909297 -0.071562
C2    C     C_R   0.538248 0.501517 0.711657 0.046615
C3    C     C_R   0.188753 0.864938 0.998681 0.126521
C4    C     C_R   0.961752 0.001517 0.288343 0.046615
C5    C     C_R   0.933800 0.000910 0.633087 0.047328
C6    C     C_R   0.200046 0.501513 0.635191 0.075227
C7    C     C_R   0.825486 0.501759 0.309924 0.097895
C8    C     C_R   0.674513 0.001759 0.690076 0.097895
C9    C     C_R   0.299954 0.001514 0.364809 0.075227
C10   C     C_R   0.072335 0.552067 0.472277 0.175508
C11   C     C_R   0.976551 0.551629 0.393862 0.173035
C12   C     C_R   0.523449 0.051629 0.606138 0.173035
C13   C     C_R   0.683773 0.368527 0.089258 -0.044872
C14   C     C_R   0.427665 0.052067 0.527723 0.175508
C15   C     C_R   0.119674 0.502804 0.522527 -0.023073
C16   C     C_R   0.926705 0.502456 0.368709 -0.009450
C17   C     C_R   0.573295 0.002456 0.631291 -0.009450
C18   C     C_R   0.380326 0.002805 0.477473 -0.023073
C19   C     C_R   0.073789 0.453241 0.473865 -0.153274
C20   C     C_R   0.976997 0.453121 0.402899 0.003974
C21   C     C_R   0.523003 0.953121 0.597101 0.003972
C22   C     C_R   0.426211 0.953241 0.526135 -0.153274
C23   C     C_3   0.962503 0.605167 0.431308 -0.525371
C24   C     C_R   0.816227 0.868527 0.910741 -0.044872
C25   C     C_3   0.066895 0.605497 0.518303 -0.513340
C26   C     C_3   0.433105 0.105497 0.481696 -0.513340
C27   C     C_3   0.537497 0.105167 0.568692 -0.525370
C28   C     C_R   0.269052 0.759345 0.896282 -0.143431
C29   C     C_R   0.730697 0.757446 0.111660 -0.138555
C30   C     C_R   0.769303 0.257446 0.888339 -0.138556
C31   C     C_R   0.230948 0.259345 0.103718 -0.143431
C32   C     C_R   0.720579 0.301224 0.889785 -0.199299
C33   C     C_R   0.272421 0.307497 0.104429 -0.202737
C34   C     C_R   0.227580 0.807498 0.895572 -0.202737
C35   C     C_R   0.189233 0.875443 0.090703 -0.071561
C36   C     C_R   0.779421 0.801223 0.110215 -0.199300
C37   C     C_R   0.750936 0.326056 0.989616 -0.074236
C38   C     C_R   0.240429 0.334480 0.005927 -0.040352
C39   C     C_R   0.259571 0.834480 0.994074 -0.040351
C40   C     C_R   0.749064 0.826055 0.010384 -0.074236
C41   C     C_R   0.437677 0.650706 0.090497 -0.119680
C42   C     C_R   0.559138 0.652423 0.911992 -0.144482
C43   C     C_R   0.940861 0.152423 0.088008 -0.144483
C44   C     C_R   0.062322 0.150706 0.909503 -0.119680
C45   C     C_R   0.844613 0.316707 0.080494 0.519914
C46   C     C_R   0.373226 0.681242 0.998458 0.086460
C47   C     C_R   0.150921 0.320445 0.911411 0.549101
C48   C     C_R   0.349079 0.820444 0.088590 0.549100
C49   C     C_R   0.655387 0.816707 0.919506 0.519915
C50   C     C_R   0.389756 0.770859 0.089118 -0.295120
C51   C     C_R   0.607873 0.771404 0.920645 -0.260103
C52   C     C_R   0.892126 0.271404 0.079355 -0.260103
C53   C     C_R   0.110244 0.270859 0.910882 -0.295121
C54   C     C_R   0.345134 0.738106 0.994931 0.066143
C55   C     C_R   0.650594 0.738725 0.013444 0.057270
C56   C     C_R   0.849406 0.238725 0.986556 0.057270
C57   C     C_R   0.621389 0.682594 0.005654 0.097353
C58   C     C_R   0.154866 0.238106 0.005070 0.066143
C59   C     C_R   0.593776 0.551929 0.615645 -0.153975
C60   C     C_R   0.602234 0.551715 0.529411 -0.156868
C61   C     C_R   0.897766 0.051715 0.470589 -0.156868
C62   C     C_R   0.906224 0.051929 0.384355 -0.153975
C63   C     C_R   0.598461 0.501715 0.480749 0.130329
C64   C     C_R   0.582094 0.502132 0.653169 0.133629
C65   C     C_R   0.917906 0.002132 0.346831 0.133630
C66   C     C_R   0.901539 0.001715 0.519250 0.130329
C67   C     C_R   0.608281 0.452338 0.534400 -0.141814
C68   C     C_R   0.878610 0.182594 0.994345 0.097353
C69   C     C_R   0.600519 0.452595 0.621299 -0.151132
C70   C     C_R   0.899480 0.952595 0.378701 -0.151132
C71   C     C_R   0.891718 0.952338 0.465600 -0.141815
C72   C     C_R   0.550584 0.454915 0.304374 -0.137951
C73   C     C_R   0.505718 0.455437 0.734848 -0.118154
C74   C     C_R   0.994282 0.955437 0.265152 -0.118154
C75   C     C_R   0.949415 0.954915 0.695626 -0.137951
C76   C     C_R   0.247932 0.546520 0.698070 -0.132462
C77   C     C_R   0.767784 0.547110 0.266512 -0.148414
C78   C     C_R   0.732215 0.047110 0.733488 -0.148414
C79   C     C_R   0.126774 0.181242 0.001542 0.086460
C80   C     C_R   0.252067 0.046520 0.301930 -0.132462
C81   C     C_R   0.548052 0.546222 0.302229 -0.112489
C82   C     C_R   0.514360 0.546916 0.746208 -0.122344
C83   C     C_R   0.985640 0.046916 0.253792 -0.122344
C84   C     C_R   0.951948 0.046222 0.697770 -0.112489
C85   C     C_R   0.245864 0.455094 0.697027 -0.095587
C86   C     C_R   0.768903 0.455239 0.276698 -0.037050
C87   C     C_R   0.731096 0.955239 0.723302 -0.037050
C88   C     C_R   0.254136 0.955094 0.302973 -0.095585
C89   C     C_R   0.346833 0.649917 0.907881 -0.124270
C90   C     C_R   0.566200 0.500910 0.366913 0.047328
C91   C     C_R   0.649554 0.650407 0.094112 -0.137460
C92   C     C_R   0.850446 0.150407 0.905888 -0.137460
C93   C     C_R   0.153167 0.149917 0.092119 -0.124270
C94   C     C_R   0.400743 0.378487 0.092031 -0.136264
C95   C     C_R   0.590940 0.368111 0.907576 -0.137840
C96   C     C_R   0.909060 0.868111 0.092424 -0.137840
C97   C     C_R   0.099257 0.878487 0.907969 -0.136263
C98   C     C_R   0.311247 0.364938 0.001319 0.126523
C99   C     C_R   0.680000 0.354361 0.996643 0.098170
C100  C     C_R   0.820000 0.854361 0.003357 0.098171
H1    H     H_    0.255545 0.367657 0.825030 0.165703
H2    H     H_    0.104107 0.639189 0.507654 0.195529
H3    H     H_    0.395893 0.139189 0.492346 0.195529
H4    H     H_    0.579718 0.101399 0.534558 0.201450
H5    H     H_    0.235209 0.736862 0.820389 0.118893
H6    H     H_    0.762922 0.735142 0.187574 0.114041
H7    H     H_    0.737079 0.235142 0.812426 0.114041
H8    H     H_    0.264792 0.236861 0.179611 0.118893
H9    H     H_    0.654613 0.310719 0.813813 0.127224
H10   H     H_    0.336143 0.319046 0.181299 0.133536
H11   H     H_    0.163858 0.819047 0.818701 0.133536
H12   H     H_    0.736284 0.356712 0.171808 0.161046
H13   H     H_    0.845388 0.810718 0.186187 0.127224
H14   H     H_    0.454752 0.757664 0.163409 0.167108
H15   H     H_    0.540132 0.760377 0.847643 0.168129
H16   H     H_    0.959868 0.260376 0.152358 0.168128
H17   H     H_    0.045247 0.257664 0.836592 0.167108
H18   H     H_    0.586794 0.591113 0.644103 0.118386
H19   H     H_    0.601142 0.590791 0.494616 0.116513
H20   H     H_    0.898858 0.090791 0.505383 0.116513
H21   H     H_    0.913206 0.091113 0.355897 0.118386
H22   H     H_    0.612115 0.413120 0.503463 0.112834
H23   H     H_    0.763716 0.856712 0.828192 0.161046
H24   H     H_    0.599938 0.413649 0.655573 0.109541
H25   H     H_    0.900062 0.913649 0.344427 0.109541
H26   H     H_    0.887885 0.913120 0.496537 0.112834
H27   H     H_    0.480723 0.664779 0.174216 0.097042
H28   H     H_    0.515131 0.667632 0.829149 0.098776
H29   H     H_    0.984869 0.167632 0.170851 0.098776
H30   H     H_    0.019277 0.164779 0.825784 0.097042
H31   H     H_    0.569420 0.413059 0.332552 0.090840
H32   H     H_    0.500155 0.414691 0.704382 0.085592
H33   H     H_    0.999845 0.914691 0.295618 0.085592
H34   H     H_    0.244455 0.867657 0.174970 0.165704
H35   H     H_    0.930580 0.913059 0.667448 0.090840
H36   H     H_    0.563841 0.588630 0.327379 0.088543
H37   H     H_    0.525651 0.589671 0.738671 0.099494
H38   H     H_    0.974349 0.089671 0.261329 0.099494
H39   H     H_    0.936159 0.088630 0.672621 0.088542
H40   H     H_    0.308552 0.663121 0.823759 0.087535
H41   H     H_    0.684565 0.663239 0.178066 0.086150
H42   H     H_    0.815434 0.163239 0.821934 0.086150
H43   H     H_    0.191448 0.163121 0.176241 0.087536
H44   H     H_    0.427053 0.376191 0.176991 0.102291
H45   H     H_    0.939718 0.638214 0.369627 0.195644
H46   H     H_    0.557244 0.355541 0.824568 0.089627
H47   H     H_    0.942756 0.855541 0.175432 0.089627
H48   H     H_    0.072947 0.876191 0.823009 0.102291
H49   H     H_    0.108192 0.413971 0.503969 0.161547
H50   H     H_    0.942357 0.414397 0.386292 0.205027
H51   H     H_    0.557642 0.914398 0.613709 0.205028
H52   H     H_    0.391808 0.913971 0.496031 0.161547
H53   H     H_    0.865243 0.435858 0.105636 0.353385
H54   H     H_    0.095471 0.447620 0.755880 0.371099
H55   H     H_    0.404531 0.947620 0.244122 0.371099
H56   H     H_    0.082989 0.601859 0.601572 0.204818
H57   H     H_    0.634757 0.935859 0.894364 0.353385
H58   H     H_    0.242526 0.588313 0.671177 0.100999
H59   H     H_    0.786680 0.589794 0.275172 0.107998
H60   H     H_    0.713320 0.089794 0.724828 0.107998
H61   H     H_    0.257474 0.088313 0.328823 0.100999
H62   H     H_    0.235772 0.413128 0.669259 0.104449
H63   H     H_    0.790182 0.413601 0.303492 0.115074
H64   H     H_    0.709817 0.913601 0.696508 0.115075
H65   H     H_    0.264228 0.913128 0.330741 0.104449
H66   H     H_    0.417011 0.101859 0.398428 0.204818
H67   H     H_    0.560282 0.138214 0.630373 0.195644
H68   H     H_    0.920282 0.601398 0.465442 0.201450
N1    N     N_R   0.394180 0.396910 0.943210 -0.059845
N2    N     N_R   0.474350 0.471570 0.793850 -0.041059
N3    N     N_R   0.025650 0.971570 0.206150 -0.041059
N4    N     N_R   0.974350 0.971570 0.793850 -0.038721
N5    N     N_R   0.319480 0.528420 0.793810 -0.038414
N6    N     N_R   0.680520 0.528420 0.206190 -0.045091
N7    N     N_R   0.819480 0.028420 0.793810 -0.045091
N8    N     N_R   0.180520 0.028420 0.206190 -0.038414
N9    N     N_R   0.525640 0.528390 0.206120 -0.038434
N10   N     N_R   0.474360 0.528390 0.793880 -0.042581
N11   N     N_R   0.025640 0.028390 0.206120 -0.042581
N12   N     N_R   0.605820 0.396910 0.056790 -0.060257
N13   N     N_R   0.974360 0.028390 0.793880 -0.038434
N14   N     N_R   0.319490 0.471590 0.793840 -0.040498
N15   N     N_R   0.680510 0.471590 0.206160 -0.052735
N16   N     N_R   0.819490 0.971590 0.793840 -0.052735
N17   N     N_R   0.180510 0.971590 0.206160 -0.040498
N18   N     N_R   0.394130 0.603080 0.943110 -0.039325
N19   N     N_R   0.605870 0.603080 0.056890 -0.038130
N20   N     N_R   0.894130 0.103080 0.943110 -0.038130
N21   N     N_R   0.105870 0.103080 0.056890 -0.039325
N22   N     N_R   0.450990 0.396900 0.056840 -0.049520
N23   N     N_R   0.894180 0.896910 0.943210 -0.060257
N24   N     N_R   0.549010 0.396900 0.943160 -0.046018
N25   N     N_R   0.950990 0.896900 0.056840 -0.046018
N26   N     N_R   0.049010 0.896900 0.943160 -0.049520
N27   N     N_R   0.105820 0.896910 0.056790 -0.059845
N28   N     N_R   0.450950 0.603070 0.056740 -0.040714
N29   N     N_R   0.549050 0.603070 0.943260 -0.040432
N30   N     N_R   0.950950 0.103070 0.056740 -0.040432
N31   N     N_R   0.049050 0.103070 0.943260 -0.040714
N32   N     N_R   0.525650 0.471570 0.206150 -0.038721
Ni1   Ni    Ni4+2 0.434860 0.434850 0.869700 0.224298
Ni2   Ni    Ni4+2 0.565140 0.434850 0.130300 0.222040
Ni3   Ni    Ni4+2 0.934860 0.934850 0.869700 0.222040
Ni4   Ni    Ni4+2 0.065140 0.934850 0.130300 0.224297
Ni5   Ni    Ni4+2 0.565130 0.565140 0.130240 0.217400
Ni6   Ni    Ni4+2 0.434870 0.565140 0.869760 0.218868
Ni7   Ni    Ni4+2 0.065130 0.065140 0.130240 0.218868
Ni8   Ni    Ni4+2 0.934870 0.065140 0.869760 0.217400
O1    O     O_2   0.904354 0.333525 0.284123 -0.342700
O2    O     O_2   0.595646 0.833525 0.715877 -0.342700
O3    O     O_2   0.491746 0.863270 0.767002 -0.283053
O4    O     O_3   0.639639 0.922704 0.835145 -0.570458
O5    O     O_2   0.008254 0.363269 0.232999 -0.283053
O6    O     O_3   0.860361 0.422704 0.164855 -0.570458
O7    O     O_2   0.085027 0.342179 0.703675 -0.337863
O8    O     O_2   0.984293 0.365462 0.763161 -0.268628
O9    O     O_3   0.127450 0.428551 0.827220 -0.542443
O10   O     O_2   0.414973 0.842178 0.296326 -0.337863
O11   O     O_2   0.515707 0.865462 0.236841 -0.268628
O12   O     O_3   0.372551 0.928551 0.172782 -0.542443
S1    S     S_3+6 0.907338 0.359434 0.195031 -0.098942
S2    S     S_3+6 0.084170 0.364291 0.796941 -0.064071
S3    S     S_3+6 0.415830 0.864290 0.203060 -0.064072
S4    S     S_3+6 0.592662 0.859434 0.804970 -0.098942

loop_
_geom_bond_atom_site_label_1
_geom_bond_atom_site_label_2
_ccdc_geom_bond_type
O7    S2    D    
C91   H41   S    
C13   C99   A    
C77   N6    A    
C34   H11   S    
C30   H7    S    
N14   Ni1   S    
O1    S1    D    
C89   N18   A    
C41   H27   S    
C19   C20   A    
C38   C98   S    
N23   N25   A    
N8    N17   A    
C46   C89   A    
C88   N17   A    
C96   N25   A    
C15   C19   A    
C23   H45   S    
C29   C36   A    
C76   H58   S    
C26   C27   S    
C85   N14   A    
C6    C85   A    
N19   N29   A    
C60   C63   A    
N1    N22   A    
C31   C58   A    
N18   N28   A    
C84   N13   A    
C79   C93   A    
C13   H12   S    
N12   Ni2   S    
C10   C15   A    
C9    C88   A    
C4    C65   S    
C43   H29   S    
C75   H35   S    
C25   H2    S    
C7    C86   A    
O3    S4    D    
C44   H30   S    
C40   C49   A    
C74   H33   S    
C96   C100  A    
C27   H4    S    
N28   Ni5   S    
C42   C57   A    
C60   H19   S    
C51   C55   A    
C31   H8    S    
C11   C23   S    
N3    Ni4   S    
C14   C18   A    
N31   Ni8   S    
N2    Ni1   S    
C19   H49   S    
C6    C15   S    
O5    S1    D    
N4    N13   A    
N20   Ni8   S    
C84   H39   S    
C20   H50   S    
C43   C68   A    
C49   C51   A    
N9    N32   A    
C12   C17   A    
N6    Ni5   S    
C41   C46   A    
C31   C33   A    
C71   H26   S    
N5    Ni6   S    
N20   N30   A    
C43   N30   A    
C92   H42   S    
C4    C74   A    
C93   H43   S    
C35   N27   A    
C47   C53   A    
N21   N31   A    
C48   C50   A    
C87   H64   S    
C73   H32   S    
C28   C34   A    
C59   C60   A    
N16   Ni3   S    
C24   C100  A    
C21   C22   A    
C25   H56   S    
C8    C78   A    
C85   H62   S    
C65   C70   A    
O11   S3    D    
N3    N11   A    
N29   Ni6   S    
C95   H46   S    
N23   Ni3   S    
N7    Ni8   S    
C36   H13   S    
C61   C66   A    
C35   H34   S    
O12   S3    S    
H53   O6    S    
C2    C64   S    
C63   C67   A    
C52   H16   S    
C41   N28   A    
C22   H52   S    
O2    S4    D    
C32   H9    S    
N18   Ni6   S    
C12   C27   S    
C34   C39   A    
O10   S3    D    
N13   Ni8   S    
C80   N8    A    
N12   N24   A    
C87   N16   A    
C5    C84   A    
C28   C54   A    
N22   Ni2   S    
N27   Ni4   S    
C29   C55   A    
C45   C52   A    
C32   C37   A    
N1    Ni1   S    
N19   Ni5   S    
C24   H23   S    
C51   H15   S    
C67   C69   A    
C9    C80   A    
C97   N26   A    
C5    C75   A    
N4    Ni3   S    
C94   N22   A    
O6    S1    S    
C26   H3    S    
C72   N32   A    
C72   C90   A    
C11   C16   A    
C3    C97   A    
C66   C71   A    
N11   Ni7   S    
C3    C35   A    
C28   H5    S    
N24   Ni1   S    
C89   H40   S    
C46   C54   S    
C74   N3    A    
H55   O12   S    
C50   C54   A    
C64   C69   A    
C14   C26   S    
H54   O9    S    
N25   Ni4   S    
C83   H38   S    
C38   C47   A    
C70   C71   A    
C2    C73   A    
C95   N24   A    
C77   H59   S    
C81   C90   A    
C58   C79   S    
C70   H25   S    
C78   H60   S    
C7    C16   S    
C47   S2    S    
C12   C14   A    
N5    N14   A    
C59   H18   S    
C93   N21   A    
C55   C57   S    
C49   S4    S    
C78   N7    A    
C97   H48   S    
C29   H6    S    
C2    C82   A    
C37   C45   A    
C67   H22   S    
C1    H1    S    
C37   C99   S    
C36   C40   A    
N8    Ni7   S    
C72   H31   S    
O4    S4    S    
O9    S2    S    
C96   H47   S    
C91   N19   A    
C76   N5    A    
C57   C91   A    
C62   C65   A    
N30   Ni7   S    
C18   C22   A    
N15   Ni2   S    
C44   C79   A    
C8    C17   S    
C5    C66   S    
C1    C98   A    
C40   C100  S    
C42   N29   A    
C53   C58   A    
C92   N20   A    
C6    C76   A    
C44   N31   A    
C33   H10   S    
C48   S3    S    
C42   H28   S    
C82   H37   S    
C13   N12   A    
C83   N11   A    
C33   C38   A    
C69   H24   S    
C7    C77   A    
C16   C20   A    
C8    C87   A    
C45   S1    S    
C73   N2    A    
C81   N9    A    
C56   C68   S    
C30   C32   A    
C86   N15   A    
C4    C83   A    
C30   C56   A    
N21   Ni7   S    
C53   H17   S    
N26   Ni3   S    
N10   Ni6   S    
C63   C90   S    
C1    N1    A    
C94   H44   S    
C68   C92   A    
N9    Ni5   S    
N26   N27   A    
C24   N23   A    
C95   C99   A    
C21   H51   S    
C61   C62   A    
O8    S2    D    
C80   H61   S    
C10   C25   S    
C10   C11   A    
C3    C39   S    
C23   H68   S    
C59   C64   A    
C9    C18   S    
C23   C25   S    
H57   O4    S    
N32   Ni2   S    
C88   H65   S    
C26   H66   S    
N17   Ni4   S    
C75   N4    A    
C94   C98   A    
C39   C48   A    
C86   H63   S    
C50   H14   S    
N2    N10   A    
N6    N15   A    
C81   H36   S    
C82   N10   A    
C62   H21   S    
C52   C56   A    
C27   H67   S    
N7    N16   A    
C61   H20   S    
C17   C21   A    
