data_mof_unit_30764.cif
_audit_creation_date              2012-12-10T19:07:36-0500
_audit_creation_method            fapswitch 2.2
_symmetry_space_group_name_H-M    P1
_symmetry_Int_Tables_number       1
_space_group_crystal_system       triclinic
_cell_length_a                    10.885022
_cell_length_b                    10.840949
_cell_length_c                    9.545456
_cell_angle_alpha                 90.445067
_cell_angle_beta                  90.684108
_cell_angle_gamma                 91.056764
_cell_volume                      1126.09388014

loop_
_atom_site_label
_atom_site_type_symbol
_atom_type_description
_atom_site_fract_x
_atom_site_fract_y
_atom_site_fract_z
_atom_type_partial_charge
C1    C     C_R   0.496746 0.262468 0.499476 0.828010
C2    C     C_R   0.940775 0.472541 0.619595 0.078138
C3    C     C_3   0.939299 0.459467 0.775652 -0.125198
C4    C     C_3   0.080263 0.450748 0.769985 -0.474114
C5    C     C_R   0.481486 0.065031 0.624035 0.120946
C6    C     C_R   0.482719 0.129609 0.498469 -0.188668
C7    C     C_R   0.465693 0.063990 0.372149 -0.293798
C8    C     C_R   0.465768 0.935298 0.371701 0.585092
C9    C     C_R   0.483662 0.871132 0.498581 -0.231504
C10   C     C_R   0.482380 0.938036 0.624155 0.062349
C11   C     C_3   0.568647 0.936189 0.746834 -0.445869
C12   C     C_R   0.262891 0.496501 0.499039 0.802526
C13   C     C_3   0.566480 0.075885 0.747374 -0.440989
C14   C     C_R   0.540775 0.601352 0.075434 0.360750
C15   C     C_R   0.447557 0.405553 0.072822 -0.099385
C16   C     C_R   0.447427 0.405602 0.924018 -0.098297
C17   C     C_R   0.541069 0.601264 0.927810 0.268999
C18   C     C_3   0.668162 0.653685 0.926816 -0.553674
C19   C     C_3   0.666378 0.656870 0.085102 -0.493788
C20   C     C_R   0.497187 0.737873 0.499967 0.840356
C21   C     C_R   0.737589 0.498526 0.500568 0.792973
C22   C     C_R   0.064673 0.468128 0.616641 0.094600
C23   C     C_R   0.130651 0.489352 0.495938 -0.088720
C24   C     C_R   0.063537 0.505695 0.370519 -0.213460
C25   C     C_R   0.934706 0.506666 0.372186 -0.205778
C26   C     C_R   0.870619 0.493286 0.499382 -0.109608
Cu1   Cu    Cu3+1 0.499990 0.499980 0.640670 0.933852
Cu2   Cu    Cu3+1 0.500010 0.500020 0.359330 0.964859
H1    H     H_    0.109817 0.520092 0.271997 0.167928
H2    H     H_    0.659960 0.899647 0.718717 0.184681
H3    H     H_    0.520761 0.115033 0.840798 0.194636
H4    H     H_    0.656514 0.119698 0.721469 0.192113
H5    H     H_    0.406820 0.328091 0.127101 0.142103
H6    H     H_    0.406291 0.328318 0.867336 0.143695
H7    H     H_    0.731685 0.585835 0.884139 0.213883
H8    H     H_    0.675203 0.746225 0.880257 0.201167
H9    H     H_    0.733897 0.594463 0.133310 0.194715
H10   H     H_    0.666169 0.751921 0.129598 0.232987
H11   H     H_    0.886371 0.520337 0.274324 0.151514
H12   H     H_    0.912709 0.545821 0.828575 0.155751
H13   H     H_    0.129173 0.530220 0.821296 0.194428
H14   H     H_    0.117453 0.358588 0.795229 0.190995
H15   H     H_    0.458345 0.111626 0.273147 0.181560
H16   H     H_    0.524857 0.895306 0.840733 0.217877
N1    N     N_R   0.500790 0.500930 0.147930 -0.196390
N2    N     N_R   0.500790 0.500890 0.852020 -0.191023
O1    O     O_R   0.500000 0.319640 0.618810 -0.591689
O2    O     O_R   0.500010 0.319680 0.381230 -0.593052
O3    O     O_R   0.319650 0.499970 0.618810 -0.581526
O4    O     O_R   0.319660 0.500010 0.381230 -0.585128
O5    O     O_R   0.499990 0.680320 0.618770 -0.583287
O6    O     O_R   0.500000 0.680360 0.381190 -0.521398
O7    O     O_R   0.680340 0.499990 0.618770 -0.593937
O8    O     O_R   0.680350 0.500030 0.381190 -0.587980
C27   C     C_3   0.871485 0.342122 0.824617 -0.363080
C28   C     C_3   0.877942 0.331000 0.984492 -0.356536
C29   C     C_3   0.798318 0.223296 0.035105 -0.819347
H17   H     H_    0.700440 0.237630 0.006145 0.252964
H18   H     H_    0.829220 0.135288 0.988004 0.251123
H19   H     H_    0.805782 0.216903 0.150951 0.248068
H20   H     H_    0.974665 0.317150 0.018690 0.224825
H21   H     H_    0.845005 0.417197 0.033914 0.213035
H22   H     H_    0.773550 0.346934 0.791498 0.223849
H23   H     H_    0.910893 0.258768 0.774894 0.198096
F1    F     F_    0.454920 0.875379 0.246607 -0.678222

loop_
_geom_bond_atom_site_label_1
_geom_bond_atom_site_label_2
_ccdc_geom_bond_type
C2    C22   A    
C12   O4    A    
C23   C24   A    
Cu1   O7    S    
C1    O2    A    
C6    C7    A    
C19   H10   S    
C7    H15   S    
C20   O5    A    
C4    C22   S    
C18   H7    S    
C25   H11   S    
C9    C20   S    
C5    C13   S    
C14   C17   A    
C27   C28   S    
C27   H23   S    
C12   O3    A    
C8    F1    S    
C2    C26   A    
C24   H1    S    
C24   C25   A    
C21   O7    A    
Cu2   O6    S    
C12   C23   S    
C18   H8    S    
C29   H17   S    
C21   O8    A    
C4    H14   S    
Cu1   O3    S    
Cu1   N2    S    
C5    C10   A    
C21   C26   S    
Cu1   O5    S    
C3    H12   S    
C17   C18   S    
C14   N1    A    
C2    C3    S    
C10   C11   S    
C5    C6    A    
C28   H21   S    
Cu2   N1    S    
C29   H18   S    
C7    C8    A    
C4    H13   S    
C15   N1    A    
Cu1   O1    S    
C1    C6    S    
C11   H16   S    
C11   C13   S    
C17   N2    A    
C20   O6    A    
C18   C19   S    
C9    C10   A    
C16   N2    A    
Cu1   Cu2   S    
C28   C29   S    
Cu2   O8    S    
C22   C23   A    
Cu2   O2    S    
C29   H19   S    
C19   H9    S    
C16   H6    S    
C25   C26   A    
C28   H20   S    
C13   H4    S    
Cu2   O4    S    
C14   C19   S    
C13   H3    S    
C1    O1    A    
C3    C4    S    
C15   C16   A    
C11   H2    S    
C15   H5    S    
C8    C9    A    
C3    C27   S    
C27   H22   S    
