data_mof_unit_62336.cif
_audit_creation_date              2012-12-10T19:00:42-0500
_audit_creation_method            fapswitch 2.2
_symmetry_space_group_name_H-M    P1
_symmetry_Int_Tables_number       1
_space_group_crystal_system       triclinic
_cell_length_a                    37.00685
_cell_length_b                    30.278522
_cell_length_c                    21.297702
_cell_angle_alpha                 89.999675
_cell_angle_beta                  54.868531
_cell_angle_gamma                 89.998825
_cell_volume                      19517.0683106

loop_
_atom_site_label
_atom_site_type_symbol
_atom_type_description
_atom_site_fract_x
_atom_site_fract_y
_atom_site_fract_z
_atom_type_partial_charge
C1    C     C_R   0.913731 0.500022 0.086045 0.907157
C2    C     C_3   0.982317 0.461907 0.746928 -0.210721
C3    C     C_R   0.460415 0.656877 0.527144 0.409531
C4    C     C_R   0.039587 0.156875 0.472859 0.409563
C5    C     C_R   0.960418 0.156879 0.527138 0.409497
C6    C     C_R   0.500000 0.413691 0.500000 0.835971
C7    C     C_R   1.000000 0.913691 0.500000 0.836060
C8    C     C_R   0.962031 0.703079 0.556492 -0.170864
C9    C     C_R   0.037965 0.703079 0.443512 -0.171142
C10   C     C_R   0.462035 0.203079 0.556494 -0.171285
C11   C     C_R   0.537964 0.203077 0.443496 -0.171357
C12   C     C_R   0.961923 0.657285 0.556234 -0.184922
C13   C     C_3   0.517674 0.961909 0.253104 -0.206480
C14   C     C_R   0.038074 0.657284 0.443769 -0.185053
C15   C     C_R   0.461926 0.157285 0.556236 -0.185186
C16   C     C_R   0.538072 0.157283 0.443754 -0.187204
C17   C     C_R   0.999999 0.634226 0.500001 -0.032491
C18   C     C_R   0.499999 0.134226 0.499996 -0.031833
C19   C     C_R   0.538990 0.702791 0.474009 -0.228501
C20   C     C_R   0.461012 0.702793 0.525984 -0.228651
C21   C     C_R   0.038991 0.202790 0.474020 -0.228796
C22   C     C_R   0.961015 0.202794 0.525980 -0.228752
C23   C     C_R   0.999998 0.725993 0.500002 0.106387
C24   C     C_3   0.482318 0.961907 0.746927 -0.210677
C25   C     C_R   0.500000 0.225993 0.499995 0.106923
C26   C     C_R   0.512558 0.296854 0.433260 -0.172896
C27   C     C_R   0.487444 0.296853 0.566734 -0.172640
C28   C     C_R   0.012560 0.796854 0.433262 -0.172404
C29   C     C_R   0.987436 0.796854 0.566742 -0.172178
C30   C     C_R   0.512302 0.342649 0.433368 -0.187228
C31   C     C_R   0.487700 0.342648 0.566628 -0.187195
C32   C     C_R   0.012305 0.842649 0.433368 -0.187040
C33   C     C_R   0.987693 0.842649 0.566635 -0.186560
C34   C     C_R   0.500001 0.365714 0.499999 -0.021761
C35   C     C_3   0.040804 0.496558 0.188791 0.534072
C36   C     C_R   0.999999 0.865715 0.500001 -0.022056
C37   C     C_R   0.500001 0.725787 0.499996 -0.053568
C38   C     C_R   0.000004 0.225788 0.500001 -0.053564
C39   C     C_R   0.964667 0.297186 0.562406 -0.154590
C40   C     C_R   0.035340 0.297186 0.437599 -0.154652
C41   C     C_R   0.464667 0.797186 0.562403 -0.154421
C42   C     C_R   0.535336 0.797186 0.437590 -0.153788
C43   C     C_3   0.981873 0.538089 0.247596 -0.231900
C44   C     C_3   0.018128 0.538088 0.752402 -0.231889
C45   C     C_3   0.481870 0.038084 0.247591 -0.205253
C46   C     C_3   0.959196 0.496562 0.811210 0.533999
C47   C     C_3   0.518127 0.038089 0.752403 -0.231989
C48   C     C_3   0.023839 0.534631 0.246912 -0.213875
C49   C     C_3   0.976162 0.534633 0.753086 -0.213760
C50   C     C_3   0.523821 0.034633 0.246946 -0.254953
C51   C     C_3   0.476162 0.034633 0.753087 -0.213923
C52   C     C_3   0.999911 0.500029 0.310900 -0.058843
C53   C     C_3   0.000089 0.500029 0.689100 -0.058880
C54   C     C_3   0.499895 0.000032 0.310923 -0.047645
C55   C     C_3   0.500089 0.000029 0.689100 -0.059279
C56   C     C_3   0.957941 0.503582 0.312837 -0.135232
C57   C     C_3   0.540805 0.996558 0.188823 0.456151
C58   C     C_3   0.042059 0.503579 0.687163 -0.135287
C59   C     C_3   0.457932 0.003577 0.312833 -0.136362
C60   C     C_3   0.542059 0.003580 0.687163 -0.135165
C61   C     C_3   0.459196 0.996561 0.811209 0.534106
C62   C     C_3   0.999552 0.500057 0.189554 -0.105539
C63   C     C_3   0.000448 0.500058 0.810446 -0.105548
C64   C     C_3   0.499569 0.000053 0.189540 -0.080200
C65   C     C_R   0.086269 0.500022 0.913955 0.907150
C66   C     C_3   0.500448 0.000058 0.810446 -0.105672
C67   C     C_R   0.796860 0.537930 0.220822 -0.155946
C68   C     C_R   0.203139 0.537926 0.779178 -0.156193
C69   C     C_R   0.296860 0.037930 0.220822 -0.156203
C70   C     C_R   0.703142 0.037958 0.779256 -0.153814
C71   C     C_R   0.842665 0.538037 0.174950 -0.178774
C72   C     C_R   0.157334 0.538034 0.825050 -0.178918
C73   C     C_R   0.342665 0.038037 0.174950 -0.179221
C74   C     C_R   0.657337 0.038067 0.825147 -0.178213
C75   C     C_R   0.865778 0.500081 0.133381 -0.013329
C76   C     C_R   0.413731 0.000022 0.086045 0.907173
C77   C     C_R   0.134222 0.500079 0.866617 -0.013257
C78   C     C_R   0.365778 0.000081 0.133381 -0.013415
C79   C     C_R   0.634226 0.000075 0.866570 -0.015819
C80   C     C_R   0.842791 0.462216 0.137254 -0.112590
C81   C     C_R   0.157210 0.462213 0.862743 -0.112594
C82   C     C_R   0.342791 0.962216 0.137253 -0.112564
C83   C     C_R   0.657219 0.962165 0.862508 -0.102960
C84   C     C_R   0.796987 0.462344 0.182333 -0.176000
C85   C     C_R   0.203014 0.462340 0.817663 -0.175961
C86   C     C_R   0.296987 0.962344 0.182333 -0.175926
C87   C     C_R   0.586270 0.000021 0.913944 0.905984
C88   C     C_R   0.703023 0.962291 0.817412 -0.162651
C89   C     C_R   0.774015 0.500105 0.224479 0.101631
C90   C     C_R   0.225985 0.500101 0.775519 0.101674
C91   C     C_R   0.274015 0.000105 0.224479 0.101715
C92   C     C_R   0.725989 0.000093 0.775436 0.100348
C93   C     C_R   0.999611 0.500019 0.122011 0.937041
C94   C     C_R   0.000389 0.500020 0.877989 0.937034
C95   C     C_R   0.499637 0.000019 0.121986 0.929722
C96   C     C_R   0.500389 0.000020 0.877989 0.937242
C97   C     C_R   0.702981 0.487964 0.241648 -0.158749
C98   C     C_3   0.975710 0.465561 0.253735 -0.228248
C99   C     C_R   0.297019 0.487959 0.758349 -0.158872
C100  C     C_R   0.202981 0.987964 0.241648 -0.158870
C101  C     C_R   0.797011 0.987902 0.758286 -0.152951
C102  C     C_R   0.657181 0.487927 0.287778 -0.199817
C103  C     C_R   0.342819 0.487924 0.712220 -0.199827
C104  C     C_R   0.157181 0.987927 0.287778 -0.199789
C105  C     C_R   0.842811 0.987873 0.712180 -0.200080
C106  C     C_R   0.634299 0.499325 0.365556 -0.044043
C107  C     C_R   0.365701 0.499324 0.634443 -0.044001
C108  C     C_R   0.134299 0.999325 0.365556 -0.043964
C109  C     C_3   0.024289 0.465559 0.746266 -0.228217
C110  C     C_R   0.865702 0.999330 0.634427 -0.044910
C111  C     C_R   0.657561 0.510947 0.396754 -0.128034
C112  C     C_R   0.342438 0.510947 0.603246 -0.128068
C113  C     C_R   0.157561 0.010947 0.396754 -0.127989
C114  C     C_R   0.842451 0.011010 0.603233 -0.127301
C115  C     C_R   0.703362 0.511542 0.350320 -0.178160
C116  C     C_R   0.296638 0.511540 0.649679 -0.178196
C117  C     C_R   0.203362 0.011542 0.350320 -0.178214
C118  C     C_R   0.796651 0.011602 0.649647 -0.178898
C119  C     C_R   0.726076 0.499925 0.272830 0.101498
C120  C     C_3   0.475715 0.965557 0.253725 -0.222474
C121  C     C_R   0.273924 0.499920 0.727168 0.101499
C122  C     C_R   0.226076 0.999924 0.272830 0.101467
C123  C     C_R   0.773927 0.999920 0.727109 0.098339
C124  C     C_R   0.000002 0.365918 0.500001 -0.032444
C125  C     C_R   0.500001 0.865918 0.499998 -0.033478
C126  C     C_R   0.000004 0.274045 0.500003 0.167691
C127  C     C_R   0.500001 0.774045 0.499996 0.167282
C128  C     C_R   0.500000 0.273939 0.499996 0.107932
C129  C     C_R   0.999998 0.773940 0.500002 0.107698
C130  C     C_R   1.000000 0.586262 0.500000 0.855174
C131  C     C_3   0.524290 0.965560 0.746266 -0.228131
C132  C     C_R   0.500000 0.086262 0.499999 0.856396
C133  C     C_R   0.964479 0.342965 0.562053 -0.189880
C134  C     C_R   0.035526 0.342965 0.437950 -0.189874
C135  C     C_R   0.464479 0.842965 0.562052 -0.189868
C136  C     C_R   0.535523 0.842965 0.437943 -0.189213
C137  C     C_R   0.999984 0.499982 0.378336 0.896764
C138  C     C_R   0.000016 0.499982 0.621664 0.896780
C139  C     C_R   0.499981 0.999985 0.378341 0.893730
C140  C     C_R   0.500016 0.999982 0.621664 0.898301
C141  C     C_R   0.000000 0.413747 0.500000 0.859424
C142  C     C_3   0.017682 0.461906 0.253074 -0.210726
C143  C     C_R   0.500000 0.913747 0.499999 0.861446
C144  C     C_R   0.500001 0.633832 0.499999 -0.321019
C145  C     C_R   0.000002 0.133832 0.499998 -0.320934
C146  C     C_R   0.500000 0.586072 0.499999 1.091695
C147  C     C_R   0.000001 0.086073 0.499999 1.091501
C148  C     C_R   0.586310 0.499596 0.413680 0.934331
C149  C     C_R   0.413690 0.499596 0.586320 0.934364
C150  C     C_R   0.086310 0.999596 0.413680 0.934214
C151  C     C_R   0.913690 0.999598 0.586318 0.934631
C152  C     C_R   0.539586 0.656875 0.472851 0.409447
H1    H     H_    0.043794 0.562513 0.245449 0.167842
H2    H     H_    0.279577 0.479147 0.818416 0.148712
H3    H     H_    0.220424 0.979154 0.181581 0.148732
H4    H     H_    0.779558 0.979040 0.818333 0.157894
H5    H     H_    0.639731 0.478767 0.262777 0.164204
H6    H     H_    0.360269 0.478763 0.737221 0.164196
H7    H     H_    0.139732 0.978767 0.262777 0.164230
H8    H     H_    0.860254 0.978668 0.737174 0.165888
H9    H     H_    0.640418 0.520001 0.456636 0.187168
H10   H     H_    0.359582 0.520002 0.543365 0.187151
H11   H     H_    0.140418 0.020000 0.456636 0.187182
H12   H     H_    0.956207 0.562516 0.754548 0.167955
H13   H     H_    0.859603 0.020109 0.543369 0.187300
H14   H     H_    0.721111 0.520581 0.374843 0.143058
H15   H     H_    0.278888 0.520580 0.625157 0.143032
H16   H     H_    0.221111 0.020581 0.374843 0.143003
H17   H     H_    0.778909 0.020688 0.625130 0.143086
H18   H     H_    0.937019 0.360409 0.610729 0.162809
H19   H     H_    0.062985 0.360408 0.389274 0.162794
H20   H     H_    0.437021 0.860409 0.610731 0.162772
H21   H     H_    0.562981 0.860408 0.389265 0.163291
H22   H     H_    0.568933 0.720813 0.454818 0.192235
H23   H     H_    0.543760 0.062525 0.245506 0.152700
H24   H     H_    0.431069 0.720817 0.545174 0.192128
H25   H     H_    0.068934 0.220812 0.454835 0.192116
H26   H     H_    0.931073 0.220819 0.545165 0.192113
H27   H     H_    0.932461 0.720660 0.600123 0.139511
H28   H     H_    0.067534 0.720659 0.399881 0.139137
H29   H     H_    0.432468 0.220661 0.600131 0.139065
H30   H     H_    0.567531 0.220657 0.399858 0.138400
H31   H     H_    0.932288 0.639970 0.600266 0.161374
H32   H     H_    0.067709 0.639969 0.399736 0.161218
H33   H     H_    0.432294 0.139971 0.600276 0.161074
H34   H     H_    0.456206 0.062515 0.754549 0.167804
H35   H     H_    0.567704 0.139967 0.399715 0.158333
H36   H     H_    0.967118 0.569055 0.243924 0.170208
H37   H     H_    0.032884 0.569053 0.756073 0.170211
H38   H     H_    0.467118 0.069049 0.243910 0.164998
H39   H     H_    0.532883 0.069053 0.756074 0.170081
H40   H     H_    0.937472 0.279912 0.611718 0.149026
H41   H     H_    0.062536 0.279910 0.388287 0.148962
H42   H     H_    0.437472 0.779912 0.611718 0.148969
H43   H     H_    0.562530 0.779910 0.388275 0.149599
H44   H     H_    0.522079 0.279274 0.381544 0.137966
H45   H     H_    0.779441 0.432903 0.185231 0.140691
H46   H     H_    0.477923 0.279271 0.618449 0.138371
H47   H     H_    0.022085 0.779272 0.381545 0.138470
H48   H     H_    0.977910 0.779273 0.618459 0.138747
H49   H     H_    0.522055 0.359956 0.381315 0.157129
H50   H     H_    0.477947 0.359954 0.618682 0.157215
H51   H     H_    0.022062 0.859955 0.381313 0.157296
H52   H     H_    0.977935 0.859955 0.618689 0.157697
H53   H     H_    0.923771 0.506498 0.365503 0.161130
H54   H     H_    0.076229 0.506493 0.634497 0.161107
H55   H     H_    0.423758 0.006491 0.365488 0.158723
H56   H     H_    0.220561 0.432899 0.814764 0.140751
H57   H     H_    0.576229 0.006494 0.634497 0.161116
H58   H     H_    0.955981 0.437533 0.254934 0.169147
H59   H     H_    0.044018 0.437531 0.745069 0.169153
H60   H     H_    0.455995 0.937525 0.254911 0.166556
H61   H     H_    0.544019 0.937531 0.745068 0.169151
H62   H     H_    0.032651 0.431069 0.256628 0.165411
H63   H     H_    0.967347 0.431071 0.743376 0.165423
H64   H     H_    0.532646 0.931077 0.256666 0.165010
H65   H     H_    0.467348 0.931071 0.743375 0.165434
H66   H     H_    0.779213 0.567342 0.252993 0.150015
H67   H     H_    0.279441 0.932903 0.185230 0.140770
H68   H     H_    0.220785 0.567339 0.747008 0.149868
H69   H     H_    0.279213 0.067342 0.252994 0.149809
H70   H     H_    0.720788 0.067399 0.747207 0.149921
H71   H     H_    0.859943 0.567532 0.172689 0.157870
H72   H     H_    0.140055 0.567530 0.827313 0.157774
H73   H     H_    0.359943 0.067532 0.172689 0.157618
H74   H     H_    0.640057 0.067596 0.827544 0.157682
H75   H     H_    0.860172 0.432716 0.105121 0.177516
H76   H     H_    0.139830 0.432712 0.894875 0.177524
H77   H     H_    0.360171 0.932716 0.105120 0.177539
H78   H     H_    0.720573 0.932819 0.814378 0.141441
H79   H     H_    0.639844 0.932632 0.894510 0.176494
H80   H     H_    0.634591 0.593239 0.328910 0.382866
H81   H     H_    0.365412 0.593240 0.671080 0.382767
H82   H     H_    0.134594 0.093241 0.328920 0.382762
H83   H     H_    0.865409 0.093247 0.671063 0.383134
H84   H     H_    0.160746 0.487272 0.080629 0.383975
H85   H     H_    0.839254 0.487281 0.919371 0.384026
H86   H     H_    0.625628 0.015591 0.160474 0.345081
H87   H     H_    0.339254 0.987279 0.919371 0.383987
H88   H     H_    0.720424 0.479154 0.181581 0.148739
O1    O     O_R   0.934530 0.463050 0.065470 -0.625616
O2    O     O_R   0.434520 0.499990 0.618000 -0.619782
O3    O     O_R   0.065480 0.999990 0.382000 -0.619816
O4    O     O_R   0.934520 0.999990 0.618000 -0.619277
O5    O     O_R   0.500000 0.434520 0.552520 -0.637213
O6    O     O_R   0.500000 0.434520 0.447480 -0.637231
O7    O     O_R   0.000000 0.934520 0.552520 -0.637010
O8    O     O_R   0.000000 0.934520 0.447480 -0.637192
O9    O     O_R   0.934550 0.536970 0.065450 -0.619433
O10   O     O_R   0.065450 0.536970 0.934550 -0.619504
O11   O     O_R   0.434550 0.036970 0.065450 -0.619431
O12   O     O_R   0.065470 0.463050 0.934530 -0.625604
O13   O     O_R   0.565450 0.036970 0.934550 -0.619462
O14   O     O_R   0.000010 0.463050 0.093020 -0.611834
O15   O     O_R   0.999990 0.463050 0.906980 -0.611835
O16   O     O_R   0.500010 0.963050 0.093020 -0.612270
O17   O     O_R   0.499990 0.963050 0.906980 -0.611664
O18   O     O_R   0.000020 0.536970 0.093000 -0.620703
O19   O     O_R   0.999980 0.536970 0.907000 -0.620666
O20   O     O_R   0.500020 0.036970 0.093000 -0.622054
O21   O     O_R   0.499980 0.036970 0.907000 -0.620625
O22   O     O_R   0.036960 0.565440 0.463030 -0.625046
O23   O     O_R   0.434530 0.963050 0.065470 -0.625381
O24   O     O_R   0.963040 0.565440 0.536970 -0.624981
O25   O     O_R   0.536960 0.065440 0.463030 -0.626909
O26   O     O_R   0.463040 0.065440 0.536970 -0.624336
O27   O     O_R   0.036960 0.499960 0.370010 -0.606812
O28   O     O_R   0.963040 0.499960 0.629990 -0.606771
O29   O     O_R   0.536960 0.999960 0.370010 -0.622697
O30   O     O_R   0.463040 0.999960 0.629990 -0.606555
O31   O     O_R   0.963040 0.499940 0.443930 -0.628056
O32   O     O_R   0.036960 0.499940 0.556070 -0.628080
O33   O     O_R   0.463040 0.999940 0.443930 -0.625262
O34   O     O_R   0.565470 0.963050 0.934530 -0.626194
O35   O     O_R   0.536960 0.999940 0.556070 -0.627187
O36   O     O_R   0.036980 0.434490 0.463020 -0.621299
O37   O     O_R   0.963020 0.434490 0.536980 -0.621290
O38   O     O_R   0.536980 0.934490 0.463020 -0.620679
O39   O     O_R   0.463020 0.934490 0.536980 -0.620873
O40   O     O_R   0.500030 0.565470 0.552480 -0.576373
O41   O     O_R   0.499970 0.565470 0.447520 -0.576287
O42   O     O_R   0.000030 0.065470 0.552480 -0.576237
O43   O     O_R   0.999970 0.065470 0.447520 -0.576418
O44   O     O_2   0.626981 0.662038 0.409591 -0.306936
O45   O     O_R   0.565480 0.500000 0.487030 -0.613136
O46   O     O_2   0.586752 0.598950 0.493534 -0.303649
O47   O     O_3   0.602572 0.599626 0.357726 -0.573402
O48   O     O_2   0.373021 0.662044 0.590406 -0.307459
O49   O     O_2   0.413249 0.598955 0.506462 -0.303535
O50   O     O_3   0.397429 0.599629 0.642269 -0.573660
O51   O     O_2   0.126980 0.162036 0.409609 -0.307545
O52   O     O_2   0.086749 0.098948 0.493548 -0.303517
O53   O     O_3   0.102575 0.099626 0.357736 -0.573670
O54   O     O_2   0.873025 0.162048 0.590385 -0.307360
O55   O     O_2   0.913257 0.098963 0.506433 -0.303733
O56   O     O_R   0.434520 0.500000 0.512970 -0.613135
O57   O     O_3   0.897428 0.099627 0.642248 -0.573095
O58   O     O_2   0.099653 0.450354 0.062313 -0.326050
O59   O     O_2   0.106017 0.531210 0.053720 -0.314360
O60   O     O_3   0.131153 0.489909 0.129731 -0.550183
O61   O     O_2   0.900346 0.450361 0.937689 -0.326097
O62   O     O_2   0.893984 0.531217 0.946279 -0.314118
O63   O     O_3   0.868846 0.489919 0.870269 -0.550055
O64   O     O_2   0.599502 0.950685 0.061870 -0.284160
O65   O     O_2   0.606698 0.031309 0.053845 -0.308265
O66   O     O_3   0.631393 0.988750 0.129413 -0.514050
O67   O     O_R   0.065480 0.000000 0.487030 -0.613122
O68   O     O_2   0.400346 0.950360 0.937688 -0.326008
O69   O     O_2   0.393983 0.031216 0.946280 -0.314381
O70   O     O_3   0.368846 0.989917 0.870269 -0.550202
O71   O     O_R   0.934520 0.000000 0.512970 -0.613207
O72   O     O_R   0.565480 0.499990 0.382000 -0.619758
S1    S     S_3+6 0.590530 0.629319 0.434236 0.008729
S2    S     S_3+6 0.409471 0.629323 0.565760 0.008461
S3    S     S_3+6 0.090530 0.129317 0.434248 0.008419
S4    S     S_3+6 0.909475 0.129326 0.565741 0.008582
S5    S     S_3+6 0.095710 0.491876 0.104488 0.005004
S6    S     S_3+6 0.904289 0.491884 0.895513 0.005126
S7    S     S_3+6 0.595785 0.991841 0.104622 0.024243
S8    S     S_3+6 0.404290 0.991882 0.895512 0.005001
Zn1   Zn    Zn3+2 0.000000 0.450650 0.000000 1.010570
Zn2   Zn    Zn3+2 0.499990 0.500000 0.429890 1.026109
Zn3   Zn    Zn3+2 0.000010 0.000000 0.570110 1.027357
Zn4   Zn    Zn3+2 0.999990 0.000000 0.429890 1.026235
Zn5   Zn    Zn3+2 0.500000 0.950650 0.000000 1.010533
Zn6   Zn    Zn3+2 0.000000 0.549370 0.000000 0.998951
Zn7   Zn    Zn3+2 0.500000 0.049370 0.000000 0.997564
Zn8   Zn    Zn3+2 0.049370 0.499970 0.450630 0.984308
Zn9   Zn    Zn3+2 0.950630 0.499970 0.549370 0.984489
Zn10  Zn    Zn3+2 0.549370 0.999970 0.450630 0.970322
Zn11  Zn    Zn3+2 0.450630 0.999970 0.549370 0.984822
Zn12  Zn    Zn3+2 0.500010 0.500000 0.570110 1.026035

loop_
_geom_bond_atom_site_label_1
_geom_bond_atom_site_label_2
_ccdc_geom_bond_type
C61   S8    S    
C99   C103  A    
C48   H1    S    
C24   C61   S    
O65   S7    D    
C107  C112  A    
C88   H78   S    
C111  H9    S    
C105  C110  A    
O52   S3    D    
C26   H44   S    
C79   C87   S    
C138  O32   A    
C139  O29   A    
O49   S2    D    
C124  C133  A    
C68   H68   S    
C72   H72   S    
C29   C33   A    
C100  C104  A    
C8    C23   A    
C42   C136  A    
H83   O57   S    
C49   H12   S    
C19   C37   A    
C5    S4    S    
C136  H21   S    
C18   C132  S    
C56   H53   S    
C150  O67   A    
C91   C122  S    
O32   Zn8   S    
C70   C74   A    
C68   C90   A    
C87   O34   A    
C99   C121  A    
C125  C135  A    
C21   H25   S    
C83   C88   A    
C27   H46   S    
C67   H66   S    
C65   C77   S    
C116  C121  A    
C27   C31   A    
C3    S2    S    
C28   C32   A    
O68   S8    D    
C92   C123  S    
C93   O14   A    
O17   Zn5   S    
C108  C113  A    
C133  H18   S    
C15   H33   S    
C27   C128  A    
C78   C82   A    
C68   C72   A    
C52   C137  S    
C135  H20   S    
C146  O41   A    
C100  H3    S    
O11   Zn7   S    
C150  O3    A    
C82   H77   S    
C74   C79   A    
C104  H7    S    
C106  C111  A    
C13   C54   S    
C45   C59   S    
C50   C57   S    
C6    O6    A    
O35   Zn10  S    
C2    C53   S    
O23   Zn5   S    
C85   C90   A    
C84   H45   S    
C64   C120  S    
C32   H51   S    
C19   H22   S    
C24   C131  S    
C45   C50   S    
C49   C53   S    
O24   Zn9   S    
C69   H69   S    
C80   H75   S    
C42   H43   S    
C48   C52   S    
O13   Zn7   S    
C62   C93   S    
C50   H23   S    
C103  C107  A    
C109  H59   S    
C22   C38   A    
C120  H60   S    
C15   C18   A    
C2    C109  S    
C151  O71   A    
C59   C120  S    
C53   C58   S    
C131  H61   S    
C41   C127  A    
C33   C36   A    
C137  O31   A    
O44   S1    D    
C63   C94   S    
C149  O56   A    
O70   S8    S    
O62   S6    D    
O42   Zn3   S    
C32   C36   A    
O51   S3    D    
C25   C128  S    
C76   C78   S    
H84   O60   S    
C1    O9    A    
C105  H8    S    
C13   C57   S    
C11   C25   A    
C117  H16   S    
C99   H2    S    
C7    O7    A    
C132  O25   A    
C29   C129  A    
C21   C38   A    
C110  C114  A    
C51   C55   S    
C118  C123  A    
O28   Zn9   S    
C98   C142  S    
C14   C17   A    
C146  O40   A    
C38   C126  S    
C54   C59   S    
C95   O20   A    
C28   H47   S    
C5    C145  A    
C30   C34   A    
C147  O42   A    
C9    C23   A    
O64   S7    D    
C26   C128  A    
C118  H17   S    
C40   C134  A    
C152  S1    S    
C97   C119  A    
C117  C122  A    
C113  H11   S    
C54   C139  S    
C8    C12   A    
C31   C34   A    
O10   Zn6   S    
O58   S5    D    
C113  C117  A    
C10   C25   A    
O31   Zn9   S    
C26   C30   A    
C115  C119  A    
C90   C121  S    
C108  C150  S    
C124  C141  S    
C41   C135  A    
C13   C120  S    
C114  H13   S    
C66   C131  S    
C59   H55   S    
C17   C130  S    
H85   O63   S    
C45   C64   S    
C124  C134  A    
C46   C63   S    
O47   S1    S    
C144  C152  A    
C51   H34   S    
O18   Zn6   S    
C94   O15   A    
C20   C37   A    
O14   Zn1   S    
C20   H24   S    
C83   H79   S    
C125  C143  S    
O72   Zn2   S    
C4    C145  A    
O2    Zn12  S    
O9    Zn6   S    
C35   C142  S    
C107  C149  S    
C45   H38   S    
C84   C89   A    
C65   O12   A    
C139  O33   A    
C69   C91   A    
C95   O16   A    
O20   Zn7   S    
C81   C85   A    
C81   H76   S    
C7    C36   S    
C112  C116  A    
C80   C84   A    
O63   S6    S    
C46   C49   S    
C50   C54   S    
C148  O72   A    
C140  O35   A    
C86   C91   A    
O69   S8    D    
C58   H54   S    
O37   Zn9   S    
C23   C129  S    
C31   H50   S    
O43   Zn4   S    
O53   S3    S    
C89   C119  S    
C44   C58   S    
C149  O2    A    
C12   C17   A    
C69   C73   A    
O48   S2    D    
C60   H57   S    
C47   C66   S    
C97   C102  A    
C22   H26   S    
C24   H65   S    
C2    H63   S    
C39   C126  A    
C55   C60   S    
C11   H30   S    
C35   C48   S    
C4    S3    S    
C145  C147  S    
C44   C63   S    
C53   C138  S    
H82   O53   S    
C142  H62   S    
C144  C146  S    
C110  C151  S    
O27   Zn8   S    
O40   Zn12  S    
C47   C51   S    
C101  H4    S    
C82   C86   A    
C143  O38   A    
C55   C140  S    
C6    C34   S    
C9    C14   A    
C41   H42   S    
C44   H37   S    
C147  O43   A    
C11   C16   A    
C77   C81   A    
C29   H48   S    
C3    C20   A    
C115  H14   S    
C130  O22   A    
C42   C127  A    
C46   S6    S    
O54   S4    D    
C125  C136  A    
C148  O45   A    
O38   Zn10  S    
C104  C108  A    
O59   S5    D    
C66   C96   S    
C39   C133  A    
C30   H49   S    
O16   Zn5   S    
O1    Zn1   S    
C70   C92   A    
C3    C144  A    
O57   S4    S    
C16   H35   S    
O12   Zn1   S    
C103  H6    S    
C33   H52   S    
C79   C83   A    
C39   H40   S    
C8    H27   S    
C138  O28   A    
C43   H36   S    
C70   H70   S    
C140  O30   A    
C67   C71   A    
C86   H67   S    
C47   H39   S    
C132  O26   A    
C93   O18   A    
C12   H31   S    
C87   O13   A    
C74   H74   S    
O50   S2    S    
C10   H29   S    
H86   O66   S    
O36   Zn8   S    
O8    Zn4   S    
C76   O11   A    
C40   H41   S    
H87   O70   S    
C43   C62   S    
C44   C49   S    
C71   C75   A    
C96   O21   A    
C58   C109  S    
C6    O5    A    
C51   C61   S    
C56   C98   S    
O3    Zn4   S    
O71   Zn4   S    
C35   S5    S    
O45   Zn12  S    
C2    C46   S    
C24   C55   S    
O22   Zn8   S    
C98   H58   S    
C101  C123  A    
C13   H64   S    
C10   C15   A    
O55   S4    D    
O46   S1    D    
O61   S6    D    
C67   C89   A    
C106  C148  S    
C28   C129  A    
C151  O4    A    
C62   C98   S    
C61   C66   S    
C5    C22   A    
C88   C92   A    
C73   C78   A    
C116  H15   S    
C57   S7    S    
O5    Zn12  S    
C43   C48   S    
C96   O17   A    
O34   Zn5   S    
C47   C60   S    
O56   Zn2   S    
O66   S7    S    
C102  H5    S    
O7    Zn3   S    
C101  C105  A    
C71   H71   S    
C1    C75   S    
O19   Zn6   S    
C7    O8    A    
C52   C142  S    
C72   C77   A    
O26   Zn11  S    
C94   O19   A    
C40   C126  A    
C143  O39   A    
C19   C152  A    
O67   Zn3   S    
C114  C118  A    
C9    H28   S    
C1    O1    A    
C76   O23   A    
C134  H19   S    
O15   Zn1   S    
O25   Zn10  S    
C57   C64   S    
C75   C80   A    
C97   H88   S    
O4    Zn3   S    
O41   Zn2   S    
C64   C95   S    
O39   Zn11  S    
C14   H32   S    
O60   S5    S    
C112  H10   S    
O30   Zn11  S    
C141  O37   A    
O21   Zn7   S    
C73   H73   S    
C4    C21   A    
C137  O27   A    
C102  C106  A    
C35   C62   S    
C100  C122  A    
O6    Zn2   S    
C130  O24   A    
C43   C56   S    
O29   Zn10  S    
C16   C18   A    
O33   Zn11  S    
H81   O50   S    
C111  C115  A    
H80   O47   S    
C141  O36   A    
C65   O10   A    
C60   C131  S    
C52   C56   S    
C85   H56   S    
C63   C109  S    
C37   C127  S    
