data_mof_unit_50938.cif
_audit_creation_date              2012-12-10T17:49:41-0500
_audit_creation_method            fapswitch 2.2
_symmetry_space_group_name_H-M    P1
_symmetry_Int_Tables_number       1
_space_group_crystal_system       triclinic
_cell_length_a                    10.550337
_cell_length_b                    10.63798
_cell_length_c                    10.004449
_cell_angle_alpha                 91.013
_cell_angle_beta                  89.849953
_cell_angle_gamma                 93.6099
_cell_volume                      1120.43778228

loop_
_atom_site_label
_atom_site_type_symbol
_atom_type_description
_atom_site_fract_x
_atom_site_fract_y
_atom_site_fract_z
_atom_type_partial_charge
C1    C     C_R   0.507792 0.259722 0.499318 0.997749
C2    C     C_R   0.517761 0.059541 0.622445 -0.083020
C3    C     C_R   0.508980 0.123749 0.499466 -0.259015
C4    C     C_R   0.258326 0.502989 0.500250 0.987720
C5    C     C_R   0.471706 0.057190 0.381847 0.526111
C6    C     C_R   0.443495 0.929868 0.386050 0.590535
C7    C     C_R   0.451588 0.868030 0.506840 -0.289971
C8    C     C_R   0.297064 0.369193 0.135741 0.528591
C9    C     C_R   0.182497 0.343813 0.068878 -0.482532
C10   C     C_R   0.180528 0.341821 0.931040 0.429007
C11   C     C_R   0.295153 0.368283 0.862081 0.536206
C12   C     C_3   0.960922 0.490802 0.374256 0.343837
C13   C     C_R   0.399575 0.436859 0.927244 -0.129378
C14   C     C_R   0.400054 0.437015 0.071360 0.046964
C15   C     C_R   0.593828 0.560748 0.072026 -0.120725
C16   C     C_R   0.481543 0.737118 0.501682 0.928410
C17   C     C_R   0.593798 0.561025 0.929739 0.704735
C18   C     C_R   0.742088 0.502009 0.499580 1.027038
C19   C     C_3   0.041429 0.521980 0.625366 0.566263
C20   C     C_3   0.953593 0.411548 0.573234 0.607831
C21   C     C_3   0.876912 0.505021 0.497933 -0.323754
C22   C     C_3   0.965269 0.614834 0.548613 0.174157
C23   C     C_3   0.037237 0.394587 0.447923 -0.427680
C24   C     C_3   0.049047 0.601609 0.424364 0.512090
C25   C     C_3   0.124226 0.506709 0.500461 -0.452309
C26   C     C_R   0.581319 0.110942 0.737750 0.397669
C27   C     C_R   0.556489 0.056129 0.864153 0.163347
C28   C     C_R   0.478836 0.943700 0.871599 0.445354
C29   C     C_R   0.427831 0.886913 0.755080 0.452984
C30   C     C_R   0.462350 0.937288 0.628436 -0.287007
F1    F     F_    0.903009 0.313898 0.649163 -0.581799
F2    F     F_    0.408697 0.866326 0.271911 -0.572667
F3    F     F_    0.689840 0.625092 0.865019 -0.596769
F4    F     F_    0.084380 0.542348 0.754728 -0.579938
F5    F     F_    0.101583 0.698921 0.348242 -0.586406
F6    F     F_    0.465846 0.113352 0.261445 -0.574770
H1    H     H_    0.670804 0.610954 0.125669 0.200764
H2    H     H_    0.987361 0.497918 0.184666 0.374559
H3    H     H_    0.735661 0.204878 0.798015 0.384996
H4    H     H_    0.611054 0.205385 0.968465 0.354050
H5    H     H_    0.100241 0.305163 0.122875 0.185116
H6    H     H_    0.067391 0.303490 0.407501 0.207415
H7    H     H_    0.506384 0.924959 0.061790 0.429348
H8    H     H_    0.289327 0.775714 0.685402 0.336624
H9    H     H_    0.239492 0.250915 0.273913 0.330194
H10   H     H_    0.001340 0.283733 0.925460 0.375666
H11   H     H_    0.236792 0.252623 0.716383 0.362534
H12   H     H_    0.001708 0.779424 0.625030 0.374881
N1    N     N_R   0.498800 0.498800 0.142780 -0.114469
N2    N     N_R   0.498760 0.498720 0.857170 -0.130166
O1    O     O_R   0.500000 0.316780 0.614690 -0.543245
O2    O     O_3   0.338790 0.786966 0.769371 -0.647479
O3    O     O_3   0.314332 0.308295 0.252716 -0.660015
O4    O     O_3   0.073260 0.296749 0.862086 -0.671812
O5    O     O_3   0.311989 0.308262 0.741885 -0.733207
O6    O     O_3   0.923421 0.727842 0.600554 -0.644734
O7    O     O_3   0.914444 0.474915 0.243851 -0.691916
O8    O     O_3   0.675819 0.205384 0.721980 -0.676198
O9    O     O_3   0.601576 0.113093 0.981315 -0.700353
O10   O     O_R   0.499990 0.316750 0.385360 -0.518251
O11   O     O_R   0.313960 0.499980 0.614650 -0.559153
O12   O     O_R   0.313940 0.499960 0.385310 -0.567240
O13   O     O_R   0.500010 0.683250 0.614640 -0.583009
O14   O     O_R   0.500000 0.683220 0.385310 -0.562035
O15   O     O_R   0.686060 0.500040 0.614690 -0.532679
O16   O     O_R   0.686040 0.500020 0.385350 -0.604415
O17   O     O_3   0.450195 0.886262 0.991438 -0.615090
Zn1   Zn    Zn3+2 0.500010 0.500020 0.653130 1.119641
Zn2   Zn    Zn3+2 0.499990 0.499980 0.346870 1.100823

loop_
_geom_bond_atom_site_label_1
_geom_bond_atom_site_label_2
_ccdc_geom_bond_type
C8    O3    S    
C17   N2    A    
C6    F2    S    
C19   F4    S    
C6    C7    A    
C16   O13   A    
C16   O14   A    
C18   O16   A    
C18   C21   S    
C11   C13   A    
C9    C10   A    
C12   C24   S    
C9    H5    S    
C19   C20   S    
O11   Zn1   S    
C20   C23   S    
H12   O6    S    
C2    C30   A    
O15   Zn1   S    
H8    O2    S    
C15   N1    A    
C4    C25   S    
H9    O3    S    
C2    C26   A    
H4    O9    S    
N1    Zn2   S    
O14   Zn2   S    
C24   C25   S    
C18   O15   A    
C26   O8    S    
C12   C23   S    
H10   O4    S    
C26   C27   A    
C29   C30   A    
C23   H6    S    
C17   F3    S    
O10   Zn2   S    
C19   C25   S    
C12   O7    S    
C4    O11   A    
H11   O5    S    
C28   C29   A    
C2    C3    A    
C22   C24   S    
O1    Zn1   S    
C23   C25   S    
C5    C6    A    
C10   O4    S    
C8    C14   A    
O16   Zn2   S    
C10   C11   A    
C13   N2    A    
H2    O7    S    
C5    F6    S    
C4    O12   A    
C28   O17   S    
C11   O5    S    
C20   C21   S    
C14   N1    A    
H7    O17   S    
C19   C22   S    
C1    O10   A    
C27   C28   A    
C15   C17   A    
O13   Zn1   S    
C15   H1    S    
C22   O6    S    
C1    O1    A    
C27   O9    S    
C13   C14   A    
C3    C5    A    
C24   F5    S    
C21   C22   S    
H3    O8    S    
N2    Zn1   S    
C12   C21   S    
C29   O2    S    
C7    C16   S    
O12   Zn2   S    
C8    C9    A    
C1    C3    S    
C20   F1    S    
C7    C30   A    
