data_mof_unit_12142.cif
_audit_creation_date              2012-12-11T16:14:59-0500
_audit_creation_method            fapswitch 2.2
_symmetry_space_group_name_H-M    P1
_symmetry_Int_Tables_number       1
_space_group_crystal_system       triclinic
_cell_length_a                    13.531176
_cell_length_b                    13.507639
_cell_length_c                    28.434395
_cell_angle_alpha                 90.328487
_cell_angle_beta                  90.17549
_cell_angle_gamma                 60.419941
_cell_volume                      4519.64903278

loop_
_atom_site_label
_atom_site_type_symbol
_atom_type_description
_atom_site_fract_x
_atom_site_fract_y
_atom_site_fract_z
_atom_type_partial_charge
C1    C     C_R   0.278464 0.621058 0.566167 0.544850
C2    C     C_1   0.638581 0.634026 0.612481 -0.014185
C3    C     C_3   0.770100 0.641942 0.761256 -0.106232
C4    C     C_3   0.668939 0.682045 0.795070 0.048576
C5    C     C_3   0.730335 0.566302 0.735732 -0.101825
C6    C     C_3   0.656030 0.667037 0.703492 0.042907
C7    C     C_3   0.629392 0.606580 0.770304 -0.096982
C8    C     C_3   0.554774 0.707139 0.737280 -0.098710
C9    C     C_1   0.681211 0.691310 0.845549 -0.051180
C10   C     C_1   0.648114 0.653184 0.653014 -0.061373
C11   C     C_1   0.632952 0.230327 0.611630 -0.006078
C12   C     C_R   0.621711 0.601051 0.566759 0.544686
C13   C     C_R   0.704292 0.241592 0.729639 -0.174099
C14   C     C_R   0.712607 0.227055 0.778346 -0.144950
C15   C     C_R   0.654414 0.084215 0.770970 -0.105608
C16   C     C_R   0.641758 0.101393 0.722170 0.274013
C17   C     C_R   0.669920 0.178370 0.701497 0.045359
C18   C     C_R   0.687720 0.148281 0.798981 -0.011864
C19   C     C_1   0.698645 0.129059 0.848715 -0.059066
C20   C     C_1   0.653058 0.201754 0.652064 -0.015929
C21   C     C_1   0.707943 0.102705 0.889456 -0.010141
C22   C     C_1   0.217602 0.643503 0.609460 -0.012305
C23   C     C_R   0.600539 0.279146 0.565914 0.541623
C24   C     C_R   0.117533 0.601325 0.718875 -0.128219
C25   C     C_R   0.094685 0.612249 0.767678 0.224335
C26   C     C_R   0.091481 0.795376 0.766939 0.235810
C27   C     C_R   0.120757 0.778976 0.719025 -0.117060
C28   C     C_R   0.132951 0.682952 0.695195 -0.042326
C29   C     C_R   0.081154 0.710366 0.791179 0.066163
C30   C     C_1   0.057538 0.724214 0.840851 0.044269
C31   C     C_1   0.174729 0.661995 0.647805 -0.051367
C32   C     C_1   0.035902 0.738831 0.882167 0.013281
C33   C     C_1   0.637135 0.633854 0.388605 -0.010217
C34   C     C_R   0.276579 0.620986 0.434385 0.546466
C35   C     C_R   0.754809 0.595872 0.274893 -0.126461
C36   C     C_R   0.759612 0.602237 0.226106 -0.162531
C37   C     C_R   0.565173 0.759331 0.225123 0.278766
C38   C     C_R   0.560033 0.750892 0.274148 -0.098547
C39   C     C_R   0.655078 0.669906 0.298959 -0.005725
C40   C     C_R   0.664734 0.682580 0.201056 0.045373
C41   C     C_1   0.675196 0.692065 0.151296 -0.018266
C42   C     C_1   0.646671 0.654083 0.348293 -0.055471
C43   C     C_1   0.692457 0.701850 0.110614 -0.006020
C44   C     C_1   0.634568 0.224429 0.389090 -0.008245
C45   C     C_R   0.620388 0.600493 0.434113 0.545167
C46   C     C_R   0.582749 0.161534 0.275366 -0.107539
C47   C     C_R   0.586842 0.154069 0.226538 -0.111557
C48   C     C_R   0.760781 0.164888 0.226765 -0.102169
C49   C     C_R   0.756456 0.172844 0.275699 -0.103100
C50   C     C_R   0.667639 0.170665 0.299882 0.039014
C51   C     C_R   0.675430 0.156337 0.202302 0.039678
C52   C     C_1   0.685351 0.135715 0.152967 -0.058933
C53   C     C_1   0.654331 0.193570 0.349039 -0.056658
C54   C     C_1   0.696415 0.106884 0.112623 -0.010184
C55   C     C_1   0.227317 0.637105 0.389098 -0.007687
C56   C     C_R   0.600421 0.276997 0.433843 0.547771
C57   C     C_R   0.254381 0.670999 0.270275 -0.100286
C58   C     C_R   0.242061 0.672449 0.221660 -0.100091
C59   C     C_R   0.090217 0.627199 0.230811 -0.106539
C60   C     C_R   0.102577 0.625723 0.279515 -0.106581
C61   C     C_R   0.183852 0.648900 0.299103 0.035702
C62   C     C_R   0.159722 0.650992 0.202036 0.033701
C63   C     C_1   0.135936 0.667918 0.153086 -0.055764
C64   C     C_1   0.200798 0.644630 0.348599 -0.057395
C65   C     C_1   0.105379 0.690572 0.113191 -0.006623
C66   C     C_R   0.720783 0.055532 0.935340 0.536975
C67   C     C_3   0.695670 0.742454 0.728275 -0.105088
C68   C     C_R   0.730797 0.717657 0.932166 0.538715
C69   C     C_R   0.005221 0.760135 0.930752 0.552839
C70   C     C_R   0.714592 0.056301 0.067413 0.548465
C71   C     C_R   0.725592 0.717174 0.064834 0.543518
C72   C     C_R   0.054091 0.727337 0.068502 0.559434
C73   C     C_3   0.594646 0.782813 0.762928 -0.097808
C74   C     C_1   0.698973 0.701423 0.886172 -0.008157
Cr1   Cr    Cr6+3 0.413560 0.417690 0.499580 1.031688
Cr2   Cr    Cr6+3 0.418030 0.668340 0.500400 1.030005
Cr3   Cr    Cr6+3 0.668390 0.413960 0.499990 1.031184
Cr4   Cr    Cr6+3 0.919710 0.916540 0.003080 1.034689
Cr5   Cr    Cr6+3 0.665300 0.919470 0.999630 1.026663
Cr6   Cr    Cr6+3 0.916060 0.665490 0.000390 1.033579
H1    H     H_    0.538386 0.871297 0.775282 0.103461
H2    H     H_    0.126340 0.528481 0.699301 0.105401
H3    H     H_    0.137105 0.839329 0.700598 0.117733
H4    H     H_    0.828170 0.531957 0.293756 0.121137
H5    H     H_    0.837550 0.544642 0.207882 0.114632
H6    H     H_    0.481791 0.806516 0.292614 0.115184
H7    H     H_    0.512657 0.162029 0.293920 0.109066
H8    H     H_    0.723085 0.797827 0.710499 0.153482
H9    H     H_    0.521671 0.145629 0.207714 0.099586
H10   H     H_    0.830646 0.164555 0.208105 0.113239
H11   H     H_    0.821101 0.182177 0.294569 0.112703
H12   H     H_    0.318291 0.687815 0.285421 0.120945
H13   H     H_    0.294654 0.692747 0.199537 0.137921
H14   H     H_    0.024979 0.612455 0.215651 0.109550
H15   H     H_    0.048686 0.607477 0.301747 0.110512
H16   H     H_    0.465955 0.734593 0.726609 0.114339
H17   H     H_    0.602368 0.550914 0.788113 0.111429
H18   H     H_    0.786556 0.477185 0.723925 0.103486
H19   H     H_    0.858765 0.614874 0.771856 0.161921
H20   H     H_    0.723209 0.303285 0.713945 0.113912
H21   H     H_    0.738889 0.276555 0.799779 0.117463
H22   H     H_    0.637805 0.021300 0.787040 0.107922
O1    O     O_R   0.503010 0.303330 0.550820 -0.507386
O2    O     O_R   0.522480 0.657560 0.452870 -0.494804
O3    O     O_R   0.693670 0.502790 0.448900 -0.505799
O4    O     O_R   0.656970 0.319650 0.452000 -0.494435
O5    O     O_3   0.499990 0.499990 0.499990 -0.250493
O6    O     O_R   0.035380 0.825870 0.952240 -0.495915
O7    O     O_R   0.818010 0.012400 0.954990 -0.510852
O8    O     O_R   0.644810 0.033340 0.949080 -0.505924
O9    O     O_R   0.674910 0.816000 0.950960 -0.497233
O10   O     O_R   0.827060 0.642880 0.947470 -0.510410
O11   O     O_R   0.013800 0.673690 0.954100 -0.489894
O12   O     O_R   0.320040 0.522690 0.547470 -0.496513
O13   O     O_R   0.031250 0.825430 0.055080 -0.500002
O14   O     O_R   0.814180 0.011990 0.050320 -0.493686
O15   O     O_R   0.640680 0.032900 0.051920 -0.507498
O16   O     O_R   0.671090 0.815590 0.046300 -0.490168
O17   O     O_R   0.822940 0.642440 0.050310 -0.508242
O18   O     O_R   0.009970 0.673280 0.049430 -0.491940
O19   O     O_3   0.833690 0.833830 0.001040 -0.275089
O20   O     O_R   0.303930 0.694040 0.551750 -0.508919
O21   O     O_R   0.523510 0.657900 0.548240 -0.496528
O22   O     O_R   0.694770 0.503160 0.551780 -0.507518
O23   O     O_R   0.657990 0.319990 0.547370 -0.497337
O24   O     O_R   0.501900 0.302960 0.447930 -0.507151
O25   O     O_R   0.319020 0.522350 0.452090 -0.494855
O26   O     O_R   0.302820 0.693680 0.448870 -0.507411
O27   O     O_3   0.607580 0.039501 0.694174 -0.578876
C75   C     C_3   0.492314 0.074818 0.703559 0.000535
H23   H     H_    0.438145 0.168496 0.698496 0.131789
H24   H     H_    0.481711 0.053010 0.740161 0.117482
C76   C     C_3   0.451923 0.013928 0.669662 -0.245032
H25   H     H_    0.453022 0.042301 0.633145 0.176324
H26   H     H_    0.510479 0.920618 0.671377 0.181227
C77   C     C_3   0.332024 0.038596 0.681740 -0.493206
H27   H     H_    0.330377 0.007144 0.717586 0.140189
H28   H     H_    0.304671 0.994398 0.656189 0.154036
H29   H     H_    0.271397 0.131507 0.680118 0.143097
O28   O     O_3   0.080014 0.532674 0.793298 -0.583765
C78   C     C_3   0.156279 0.419479 0.779157 0.002314
H30   H     H_    0.243027 0.406710 0.772339 0.133840
H31   H     H_    0.123265 0.397985 0.747097 0.124701
C79   C     C_3   0.165086 0.338315 0.818217 -0.242981
H32   H     H_    0.193342 0.361128 0.851282 0.184514
H33   H     H_    0.080105 0.346830 0.824355 0.172490
C80   C     C_3   0.249463 0.214907 0.805379 -0.495493
H34   H     H_    0.223211 0.190266 0.772314 0.138231
H35   H     H_    0.252300 0.157860 0.833941 0.155910
H36   H     H_    0.335949 0.203610 0.800776 0.143171
O29   O     O_3   0.086696 0.886018 0.792249 -0.570881
C81   C     C_3   0.012044 0.992487 0.771475 0.014752
H37   H     H_    0.948910 0.045683 0.798620 0.165268
H38   H     H_    0.962123 0.987966 0.741000 0.126964
C82   C     C_3   0.078992 0.051586 0.757083 -0.263862
H39   H     H_    0.123821 0.060256 0.788311 0.177634
H40   H     H_    0.143798 0.999190 0.730373 0.155252
C83   C     C_3   0.001303 0.169470 0.736756 -0.486955
H41   H     H_    0.955413 0.163019 0.705468 0.155729
H42   H     H_    0.052828 0.208774 0.725856 0.139583
H43   H     H_    0.938824 0.225258 0.763589 0.146467
O30   O     O_3   0.471056 0.838070 0.200489 -0.559946
C84   C     C_3   0.466056 0.944788 0.203627 -0.015258
H44   H     H_    0.546065 0.939565 0.190442 0.135673
H45   H     H_    0.450827 0.976702 0.240585 0.121822
C85   C     C_3   0.368320 0.030093 0.173455 -0.358983
H46   H     H_    0.286954 0.037974 0.185835 0.160908
H47   H     H_    0.362775 0.114759 0.175849 0.092880
H48   H     H_    0.382296 0.001548 0.136155 0.171308

loop_
_geom_bond_atom_site_label_1
_geom_bond_atom_site_label_2
_ccdc_geom_bond_type
Cr2   O2    S    
C15   C18   A    
Cr1   O1    S    
C63   C65   T    
C58   C62   A    
C57   H12   S    
C21   C66   S    
C82   H40   S    
C33   C45   S    
C14   C18   A    
C75   H24   S    
C35   C36   A    
C8    H16   S    
C80   H34   S    
C2    C12   S    
Cr6   O18   S    
C7    C8    S    
Cr1   O5    S    
Cr5   O19   S    
C72   O13   A    
C69   O11   A    
C67   H8    S    
C37   C38   A    
C38   H6    S    
C33   C42   T    
C26   O29   S    
C84   H45   S    
C58   H13   S    
C46   H7    S    
C37   C40   A    
C78   H31   S    
C5    C6    S    
C70   O15   A    
C68   C74   S    
C15   C16   A    
Cr5   O16   S    
C17   C20   S    
Cr4   O6    S    
C18   C19   S    
C68   O10   A    
C11   C23   S    
Cr4   O19   S    
C24   H2    S    
C1    O20   A    
C83   H43   S    
C44   C53   T    
C83   H42   S    
C48   C51   A    
C23   O1    A    
C84   H44   S    
C52   C54   T    
C34   O25   A    
C12   O22   A    
C76   C77   S    
O29   C81   S    
C67   C73   S    
C59   H14   S    
C56   O24   A    
C41   C43   T    
Cr5   O8    S    
C25   O28   S    
C23   O23   A    
Cr6   O17   S    
C1    C22   S    
C15   H22   S    
C48   H10   S    
C13   C14   A    
C82   C83   S    
C85   H47   S    
C47   H9    S    
C79   C80   S    
C85   H46   S    
C49   H11   S    
C77   H29   S    
C73   H1    S    
C69   O6    A    
C45   O3    A    
C39   C42   S    
Cr6   O19   S    
C25   C29   A    
Cr4   O14   S    
C11   C20   T    
C50   C53   S    
C22   C31   T    
C51   C52   S    
Cr3   O5    S    
C84   C85   S    
C24   C25   A    
Cr4   O13   S    
C77   H28   S    
C78   C79   S    
C5    C7    S    
C16   C17   A    
C14   H21   S    
C47   C51   A    
Cr6   O11   S    
C4    C7    S    
Cr6   O10   S    
C66   O8    A    
C60   C61   A    
C68   O9    A    
C83   H41   S    
C61   C64   S    
C35   C39   A    
C59   C60   A    
C29   C30   S    
C45   O2    A    
C44   C56   S    
C54   C70   S    
C81   C82   S    
C36   C40   A    
C55   C64   T    
C72   O18   A    
C62   C63   S    
C26   C27   A    
Cr1   O12   S    
O28   C78   S    
C16   O27   S    
C56   O4    A    
C4    C73   S    
C26   C29   A    
C79   H33   S    
C40   C41   S    
C81   H38   S    
Cr2   O5    S    
C76   H25   S    
Cr2   O26   S    
C75   C76   S    
C9    C74   T    
C3    C4    S    
C2    C10   T    
C80   H36   S    
C82   H39   S    
Cr3   O23   S    
O27   C75   S    
C46   C47   A    
Cr3   O4    S    
C59   C62   A    
C43   C71   S    
C7    H17   S    
C71   O16   A    
C80   H35   S    
Cr2   O21   S    
C28   C31   S    
C3    C67   S    
C24   C28   A    
C79   H32   S    
C3    C5    S    
C6    C10   S    
C6    C8    S    
C35   H4    S    
C57   C61   A    
C32   C69   S    
C71   O17   A    
C36   H5    S    
O30   C84   S    
C65   C72   S    
C46   C50   A    
Cr5   O9    S    
Cr1   O24   S    
C70   O14   A    
C13   H20   S    
Cr3   O3    S    
C75   H23   S    
Cr2   O20   S    
Cr3   O22   S    
C6    C67   S    
C78   H30   S    
C30   C32   T    
C57   C58   A    
C38   C39   A    
C12   O21   A    
C48   C49   A    
Cr5   O15   S    
C27   H3    S    
C8    C73   S    
Cr4   O7    S    
Cr1   O25   S    
C66   O7    A    
C13   C17   A    
C60   H15   S    
C3    H19   S    
C34   C55   S    
C5    H18   S    
C85   H48   S    
C34   O26   A    
C49   C50   A    
C1    O12   A    
C27   C28   A    
C76   H26   S    
C77   H27   S    
C81   H37   S    
C4    C9    S    
C37   O30   S    
C19   C21   T    
