data_mof_unit_30148.cif
_audit_creation_date              2012-12-11T14:03:53-0500
_audit_creation_method            fapswitch 2.2
_symmetry_space_group_name_H-M    P1
_symmetry_Int_Tables_number       1
_space_group_crystal_system       triclinic
_cell_length_a                    19.173094
_cell_length_b                    10.861483
_cell_length_c                    18.786498
_cell_angle_alpha                 90.026895
_cell_angle_beta                  89.160199
_cell_angle_gamma                 90.207031
_cell_volume                      3911.80892552

loop_
_atom_site_label
_atom_site_type_symbol
_atom_type_description
_atom_site_fract_x
_atom_site_fract_y
_atom_site_fract_z
_atom_type_partial_charge
C1    C     C_R   0.241124 0.463759 0.648488 0.535654
C2    C     C_R   0.759172 0.464209 0.351795 0.535467
C3    C     C_R   0.741124 0.963758 0.648488 0.535652
C4    C     C_R   0.259172 0.964209 0.351795 0.535468
C5    C     C_2   0.263734 0.785697 0.524112 -0.165590
C6    C     C_2   0.739399 0.782524 0.477023 -0.164613
C7    C     C_2   0.763734 0.285698 0.524112 -0.165589
C8    C     C_2   0.239399 0.282524 0.477023 -0.164614
C9    C     C_R   0.960988 0.656177 0.438869 -0.036212
C10   C     C_R   0.043294 0.660750 0.561530 -0.041534
C11   C     C_R   0.460988 0.156177 0.438869 -0.036212
C12   C     C_R   0.543294 0.160750 0.561530 -0.041535
C13   C     C_R   0.940989 0.878337 0.454594 -0.102708
C14   C     C_R   0.036215 0.890462 0.560639 -0.094423
C15   C     C_R   0.440989 0.378337 0.454593 -0.102709
C16   C     C_R   0.536215 0.390462 0.560639 -0.094422
C17   C     C_R   0.950357 0.988520 0.490209 -0.130544
C18   C     C_R   0.000281 0.995918 0.541961 -0.122287
C19   C     C_R   0.450357 0.488520 0.490209 -0.130545
C20   C     C_R   0.500281 0.495917 0.541961 -0.122287
C21   C     C_R   0.019011 0.773257 0.532495 0.017456
C22   C     C_R   0.974620 0.769424 0.473685 0.010110
C23   C     C_R   0.519011 0.273257 0.532495 0.017456
C24   C     C_R   0.474620 0.269424 0.473685 0.010111
C25   C     C_R   0.031768 0.549573 0.524406 0.020096
C26   C     C_R   0.981420 0.545364 0.471791 0.032073
C27   C     C_R   0.531767 0.049573 0.524406 0.020096
C28   C     C_R   0.481420 0.045364 0.471791 0.032072
C29   C     C_R   0.068060 0.440617 0.539922 -0.076715
C30   C     C_R   0.955640 0.428916 0.450973 -0.070931
C31   C     C_R   0.568060 0.940617 0.539922 -0.076715
C32   C     C_R   0.455640 0.928916 0.450973 -0.070932
C33   C     C_R   0.048885 0.328019 0.510500 -0.107444
C34   C     C_R   0.990889 0.321794 0.467727 -0.113615
C35   C     C_R   0.548885 0.828019 0.510500 -0.107444
C36   C     C_R   0.490889 0.821794 0.467727 -0.113617
C37   C     C_2   0.254463 0.928779 0.916978 -0.058290
C38   C     C_2   0.745275 0.929101 0.083245 -0.059523
C39   C     C_2   0.754464 0.428791 0.916975 -0.058255
C40   C     C_2   0.245269 0.429092 0.083249 -0.059514
C41   C     C_2   0.256376 0.938589 0.073076 -0.133015
C42   C     C_2   0.743383 0.938757 0.927031 -0.145369
C43   C     C_2   0.756375 0.438594 0.073075 -0.133034
C44   C     C_2   0.243383 0.438759 0.927033 -0.145456
C45   C     C_R   0.211504 0.833553 0.639953 0.531537
C46   C     C_R   0.787337 0.835353 0.360216 0.525142
C47   C     C_R   0.711504 0.333553 0.639953 0.531537
C48   C     C_R   0.287337 0.335353 0.360216 0.525150
C49   C     C_2   0.239224 0.031822 0.029241 -0.160704
C50   C     C_2   0.760402 0.032259 0.970944 -0.167093
C51   C     C_2   0.739234 0.531832 0.029239 -0.160676
C52   C     C_2   0.260435 0.532245 0.970944 -0.167009
C53   C     C_2   0.218843 0.012085 0.954995 0.243173
C54   C     C_2   0.780894 0.012720 0.045190 0.247300
C55   C     C_2   0.718845 0.512093 0.954995 0.243201
C56   C     C_2   0.280888 0.512709 0.045197 0.247198
C57   C     C_2   0.045337 0.656075 0.933371 -0.103119
C58   C     C_2   0.017677 0.664198 0.087214 -0.105343
C59   C     C_2   0.545338 0.156076 0.933371 -0.103111
C60   C     C_2   0.517676 0.164197 0.087213 -0.105368
C61   C     C_2   0.040301 0.563557 0.052504 -0.153762
C62   C     C_2   0.064360 0.566648 0.978044 -0.173395
C63   C     C_2   0.540300 0.063556 0.052503 -0.153745
C64   C     C_2   0.564358 0.066645 0.978043 -0.173390
C65   C     C_R   0.062523 0.651386 0.637202 0.528025
C66   C     C_R   0.939012 0.650617 0.363403 0.520834
C67   C     C_R   0.562524 0.151386 0.637202 0.528025
C68   C     C_R   0.439012 0.150617 0.363403 0.520838
C69   C     C_R   0.237585 0.468950 0.852302 0.562249
C70   C     C_R   0.762346 0.469035 0.147751 0.567191
C71   C     C_R   0.737586 0.968945 0.852299 0.562244
C72   C     C_R   0.262346 0.969034 0.147751 0.567209
C73   C     C_R   0.227860 0.875821 0.851797 0.573140
C74   C     C_R   0.772064 0.876026 0.148263 0.580645
C75   C     C_R   0.727859 0.375823 0.851797 0.573133
C76   C     C_R   0.272060 0.376032 0.148268 0.580643
C77   C     C_R   0.062793 0.647792 0.858255 0.570351
C78   C     C_R   0.973286 0.652803 0.150478 0.568601
C79   C     C_R   0.562793 0.147792 0.858255 0.570352
C80   C     C_R   0.473286 0.152803 0.150478 0.568590
C81   C     C_2   0.229156 0.864857 0.566873 -0.112314
C82   C     C_2   0.767551 0.867405 0.432733 -0.114325
C83   C     C_2   0.729156 0.364857 0.566873 -0.112314
C84   C     C_2   0.267551 0.367405 0.432733 -0.114325
C85   C     C_2   0.237686 0.893918 0.414337 -0.109503
C86   C     C_2   0.763312 0.896176 0.585272 -0.111160
C87   C     C_2   0.737686 0.393918 0.414337 -0.109506
C88   C     C_2   0.263312 0.396176 0.585272 -0.111160
C89   C     C_2   0.279342 0.817161 0.449307 -0.166004
C90   C     C_2   0.725034 0.811390 0.552498 -0.170816
C91   C     C_2   0.779342 0.317162 0.449307 -0.166005
C92   C     C_2   0.225034 0.311389 0.552498 -0.170815
Cr1   Cr    Cr6+3 0.113970 0.508630 0.747920 1.022148
Cr2   Cr    Cr6+3 0.886030 0.508630 0.252080 1.022802
Cr3   Cr    Cr6+3 0.613970 0.008630 0.747920 1.022150
Cr4   Cr    Cr6+3 0.386030 0.008630 0.252080 1.022822
Cr5   Cr    Cr6+3 0.269200 0.666740 0.749850 1.020846
Cr6   Cr    Cr6+3 0.730800 0.666740 0.250150 1.021377
Cr7   Cr    Cr6+3 0.769200 0.166740 0.749850 1.020837
Cr8   Cr    Cr6+3 0.230800 0.166740 0.250150 1.021399
Cr9   Cr    Cr6+3 0.112300 0.820070 0.749800 1.032711
Cr10  Cr    Cr6+3 0.887700 0.820070 0.250200 1.038041
Cr11  Cr    Cr6+3 0.612300 0.320070 0.749800 1.032711
Cr12  Cr    Cr6+3 0.387700 0.320070 0.250200 1.037942
H1    H     H_    0.326466 0.781361 0.424580 0.131652
H2    H     H_    0.681316 0.767902 0.579819 0.135368
H3    H     H_    0.826466 0.281361 0.424580 0.131652
H4    H     H_    0.181317 0.267902 0.579819 0.135369
H5    H     H_    0.263192 0.844383 0.054983 0.104756
H6    H     H_    0.736523 0.844512 0.945127 0.108915
H7    H     H_    0.763168 0.344383 0.054983 0.104528
H8    H     H_    0.236473 0.344528 0.945133 0.108922
H9    H     H_    0.300673 0.886005 0.938863 0.046665
H10   H     H_    0.698856 0.886195 0.061474 0.034418
H11   H     H_    0.800679 0.386033 0.938856 0.046495
H12   H     H_    0.198866 0.386152 0.061467 0.034429
H13   H     H_    0.035383 0.473109 0.076775 0.150425
H14   H     H_    0.092082 0.486608 0.957707 0.139857
H15   H     H_    0.535381 0.973108 0.076774 0.150435
H16   H     H_    0.592076 0.986602 0.957705 0.139859
H17   H     H_    0.026020 0.755859 0.065731 0.097938
H18   H     H_    0.016039 0.735797 0.951292 0.109855
H19   H     H_    0.526019 0.255859 0.065731 0.097857
H20   H     H_    0.516044 0.235802 0.951293 0.109797
H21   H     H_    0.283581 0.699612 0.544999 0.143941
H22   H     H_    0.725000 0.692062 0.457273 0.143253
H23   H     H_    0.783581 0.199612 0.544999 0.143941
H24   H     H_    0.225000 0.192062 0.457273 0.143252
H25   H     H_    0.186555 0.916295 0.436422 0.116355
H26   H     H_    0.812234 0.926563 0.561017 0.123281
H27   H     H_    0.686555 0.416295 0.436422 0.116355
H28   H     H_    0.312233 0.426563 0.561017 0.123281
H29   H     H_    0.211411 0.953456 0.547581 0.105161
H30   H     H_    0.780060 0.959759 0.450816 0.104806
H31   H     H_    0.711411 0.453456 0.547581 0.105161
H32   H     H_    0.280060 0.459759 0.450816 0.104806
H33   H     H_    0.918698 0.067143 0.477158 0.101056
H34   H     H_    0.010550 0.082275 0.568498 0.115099
H35   H     H_    0.418698 0.567144 0.477158 0.101056
H36   H     H_    0.510550 0.582275 0.568498 0.115100
H37   H     H_    0.903861 0.877240 0.415478 0.161432
H38   H     H_    0.076882 0.903585 0.597130 0.165872
H39   H     H_    0.403861 0.377240 0.415478 0.161433
H40   H     H_    0.576882 0.403585 0.597130 0.165872
H41   H     H_    0.910377 0.421012 0.418413 0.145564
H42   H     H_    0.111970 0.443812 0.573686 0.146762
H43   H     H_    0.410377 0.921012 0.418413 0.145563
H44   H     H_    0.611969 0.943812 0.573686 0.146762
H45   H     H_    0.077965 0.245527 0.521691 0.100757
H46   H     H_    0.974830 0.235494 0.444936 0.105946
H47   H     H_    0.577965 0.745527 0.521691 0.100757
H48   H     H_    0.474830 0.735494 0.444936 0.105944
H49   H     H_    0.233866 0.124773 0.050086 0.143268
H50   H     H_    0.765708 0.125259 0.950115 0.140422
H51   H     H_    0.733891 0.624786 0.050084 0.143249
H52   H     H_    0.265788 0.625238 0.950115 0.140564
O1    O     O_R   0.043230 0.549300 0.667990 -0.489046
O2    O     O_R   0.956770 0.549300 0.332010 -0.505871
O3    O     O_R   0.543230 0.049300 0.667990 -0.489045
O4    O     O_R   0.456770 0.049300 0.332010 -0.505873
O5    O     O_R   0.262920 0.788600 0.824420 -0.518157
O6    O     O_R   0.737080 0.788600 0.175580 -0.519045
O7    O     O_R   0.762920 0.288600 0.824420 -0.518156
O8    O     O_R   0.237080 0.288600 0.175580 -0.519028
O9    O     O_R   0.167530 0.905110 0.830340 -0.451787
O10   O     O_R   0.832470 0.905110 0.169660 -0.443951
O11   O     O_R   0.667530 0.405110 0.830340 -0.451786
O12   O     O_R   0.332470 0.405110 0.169660 -0.444081
O13   O     O_R   0.054010 0.748440 0.822860 -0.484599
O14   O     O_R   0.945990 0.748440 0.177140 -0.491152
O15   O     O_R   0.554010 0.248440 0.822860 -0.484604
O16   O     O_R   0.445990 0.248440 0.177140 -0.491214
O17   O     O_3   0.165160 0.665150 0.749190 -0.316686
O18   O     O_3   0.834840 0.665150 0.250810 -0.289657
O19   O     O_3   0.665160 0.165150 0.749190 -0.316685
O20   O     O_3   0.334840 0.165150 0.250810 -0.289649
O21   O     O_R   0.178620 0.457600 0.674100 -0.528341
O22   O     O_R   0.821380 0.457600 0.325900 -0.526385
O23   O     O_R   0.678620 0.957600 0.674100 -0.528342
O24   O     O_R   0.321380 0.957600 0.325900 -0.526387
O25   O     O_R   0.284680 0.542100 0.669460 -0.516565
O26   O     O_R   0.715320 0.542100 0.330540 -0.519089
O27   O     O_R   0.784680 0.042100 0.669460 -0.516566
O28   O     O_R   0.215320 0.042100 0.330540 -0.519087
O29   O     O_R   0.262860 0.790390 0.676650 -0.469097
O30   O     O_R   0.737140 0.790390 0.323350 -0.471274
O31   O     O_R   0.762860 0.290390 0.676650 -0.469098
O32   O     O_R   0.237140 0.290390 0.323350 -0.471270
O33   O     O_R   0.167460 0.907030 0.670940 -0.539666
O34   O     O_R   0.832540 0.907030 0.329060 -0.536865
O35   O     O_R   0.667460 0.407030 0.670940 -0.539667
O36   O     O_R   0.332540 0.407030 0.329060 -0.536855
O37   O     O_R   0.053950 0.750220 0.675100 -0.503799
O38   O     O_R   0.946050 0.750220 0.324900 -0.506370
O39   O     O_R   0.553950 0.250220 0.675100 -0.503798
O40   O     O_R   0.446050 0.250220 0.324900 -0.506366
O41   O     O_R   0.043300 0.547370 0.827390 -0.488780
O42   O     O_R   0.956700 0.547370 0.172610 -0.505574
O43   O     O_R   0.543300 0.047370 0.827390 -0.488774
O44   O     O_R   0.456700 0.047370 0.172610 -0.505552
O45   O     O_R   0.178690 0.455820 0.821860 -0.502871
O46   O     O_R   0.821310 0.455820 0.178140 -0.478906
O47   O     O_R   0.678690 0.955820 0.821860 -0.502876
O48   O     O_R   0.321310 0.955820 0.178140 -0.478872
O49   O     O_R   0.284750 0.540170 0.828860 -0.505632
O50   O     O_R   0.715250 0.540170 0.171140 -0.513729
O51   O     O_R   0.784750 0.040170 0.828860 -0.505628
O52   O     O_R   0.215250 0.040170 0.171140 -0.513728
O53   O     O_3   0.166910 0.081281 0.922488 -0.531848
C93   C     C_3   0.113768 0.116477 0.971087 -0.107365
H53   H     H_    0.130760 0.196139 0.003701 0.101206
H54   H     H_    0.096375 0.038353 0.005494 0.117205
H55   H     H_    0.067888 0.146718 0.940426 0.137484
O54   O     O_3   0.833122 0.082045 0.077612 -0.534805
C94   C     C_3   0.886081 0.117958 0.028843 -0.103357
H56   H     H_    0.868990 0.197518 0.996426 0.108803
H57   H     H_    0.903263 0.040136 0.994230 0.121707
H58   H     H_    0.932123 0.148564 0.059345 0.134755
O55   O     O_3   0.666901 0.581274 0.922494 -0.531837
C95   C     C_3   0.613783 0.616524 0.971106 -0.107408
H59   H     H_    0.630799 0.696202 0.003695 0.101218
H60   H     H_    0.596393 0.538430 0.005538 0.117137
H61   H     H_    0.567895 0.646763 0.940457 0.137482
O56   O     O_3   0.333059 0.582137 0.077629 -0.534895
C96   C     C_3   0.386268 0.617256 0.028950 -0.103277
H62   H     H_    0.369431 0.696498 0.996134 0.108914
H63   H     H_    0.403480 0.538948 0.994724 0.121613
H64   H     H_    0.432219 0.648037 0.059535 0.134737

loop_
_geom_bond_atom_site_label_1
_geom_bond_atom_site_label_2
_ccdc_geom_bond_type
C70   O46   A    
C7    C83   D    
C14   H38   S    
Cr10  O14   S    
C6    C82   D    
C87   C91   D    
Cr3   O23   S    
C14   C18   A    
Cr9   O17   S    
C35   C36   A    
C74   O10   A    
C43   C51   D    
O56   C96   S    
C50   H50   S    
C95   H60   S    
Cr8   O52   S    
C57   C62   D    
Cr12  O20   S    
C32   H43   S    
C54   O54   S    
Cr11  O11   S    
C75   O11   A    
C12   C23   A    
C51   H51   S    
C59   C64   D    
C50   C54   S    
Cr11  O39   S    
C60   C63   D    
Cr3   O3    S    
C32   C36   A    
C14   C21   A    
C49   H49   S    
C16   H40   S    
C4    O24   A    
C48   O32   A    
Cr9   O33   S    
C94   H57   S    
C2    O26   A    
Cr6   O18   S    
C49   C53   S    
C9    C22   A    
C37   H9    S    
Cr5   O29   S    
Cr3   O47   S    
C80   O44   A    
C29   C33   A    
C11   C24   A    
C78   O14   A    
C96   H64   S    
C63   H15   S    
C75   O7    A    
Cr2   O22   S    
C87   H27   S    
C18   H34   S    
C3    O23   A    
C9    C66   S    
Cr3   O19   S    
C85   H25   S    
C57   H18   S    
C46   C82   S    
C52   C56   S    
C1    O21   A    
C92   H4    S    
C39   C55   D    
C88   C92   D    
Cr9   O37   S    
C40   C56   D    
Cr12  O36   S    
C84   H32   S    
C17   C18   A    
Cr8   O20   S    
C73   O5    A    
C23   C24   A    
C29   H42   S    
Cr9   O13   S    
C8    C92   S    
C39   C75   S    
Cr1   O45   S    
Cr7   O27   S    
C72   O48   A    
C37   C53   D    
C44   C52   D    
C58   C61   D    
C71   O51   A    
Cr10  O10   S    
C83   H31   S    
C41   H5    S    
C21   C22   A    
C3    C86   S    
Cr11  O15   S    
C61   C62   S    
C35   H47   S    
C46   O34   A    
C67   O39   A    
Cr10  O38   S    
Cr7   O31   S    
C95   H59   S    
Cr6   O6    S    
C8    H24   S    
C9    C26   A    
Cr4   O48   S    
C65   O37   A    
C10   C21   A    
C25   C29   A    
C69   O45   A    
C96   H63   S    
C12   C67   S    
C45   C81   S    
C79   O43   A    
C30   C34   A    
C12   C27   A    
C61   H13   S    
C57   C77   S    
C28   C32   A    
Cr5   O17   S    
C90   H2    S    
C72   O52   A    
C86   C90   D    
C94   H58   S    
C59   C79   S    
O55   C95   S    
C74   O6    A    
Cr1   O21   S    
O54   C94   S    
C86   H26   S    
C55   O55   S    
C4    C85   S    
C51   C55   S    
C25   C26   A    
C6    C90   S    
C27   C31   A    
Cr4   O24   S    
C48   C84   S    
C48   O36   A    
Cr7   O51   S    
Cr2   O42   S    
C88   H28   S    
C81   H29   S    
C82   H30   S    
C60   H19   S    
C15   C19   A    
C94   H56   S    
Cr8   O8    S    
C15   H39   S    
C91   H3    S    
Cr12  O12   S    
C5    C81   D    
C38   C54   D    
C16   C20   A    
C7    C91   S    
Cr11  O19   S    
O53   C93   S    
Cr12  O40   S    
C65   O1    A    
C2    C87   S    
C68   O40   A    
C85   C89   D    
C46   O30   A    
Cr1   O1    S    
C6    H22   S    
C42   C50   D    
C41   C72   S    
Cr2   O46   S    
C31   H44   S    
C44   H8    S    
C10   C25   A    
Cr3   O43   S    
C15   C24   A    
Cr4   O4    S    
C73   O9    A    
Cr2   O18   S    
C26   C30   A    
C16   C23   A    
C39   H11   S    
Cr7   O7    S    
C76   O8    A    
Cr11  O35   S    
C80   O16   A    
C47   O31   A    
C68   O4    A    
C93   H55   S    
Cr12  O16   S    
C66   O2    A    
C11   C68   S    
C30   H41   S    
C56   O56   S    
C38   C74   S    
C10   C65   S    
C45   O33   A    
C59   H20   S    
Cr4   O44   S    
C77   O13   A    
C37   C73   S    
C60   C80   S    
C58   H17   S    
C1    O25   A    
Cr4   O20   S    
Cr8   O32   S    
C95   H61   S    
C8    C84   D    
C69   O49   A    
C13   H37   S    
C36   H48   S    
C47   C83   S    
Cr2   O2    S    
C79   O15   A    
Cr5   O25   S    
Cr10  O18   S    
C70   O50   A    
Cr6   O26   S    
C43   C70   S    
C41   C49   D    
C78   O42   A    
C93   H54   S    
C64   H16   S    
C13   C17   A    
Cr5   O49   S    
C89   H1    S    
C20   H36   S    
C19   C20   A    
C17   H33   S    
C42   H6    S    
Cr6   O30   S    
C33   H45   S    
Cr9   O9    S    
C45   O29   A    
C40   H12   S    
C3    O27   A    
C11   C28   A    
C1    C88   S    
C38   H10   S    
Cr1   O41   S    
Cr1   O17   S    
C42   C71   S    
Cr10  O34   S    
C33   C34   A    
C13   C22   A    
C76   O12   A    
C31   C35   A    
C34   H46   S    
C47   O35   A    
C52   H52   S    
Cr8   O28   S    
C62   H14   S    
C58   C78   S    
C63   C64   S    
C43   H7    S    
C40   C76   S    
Cr7   O19   S    
C53   O53   S    
C93   H53   S    
C5    H21   S    
C27   C28   A    
C44   C69   S    
Cr6   O50   S    
C67   O3    A    
C2    O22   A    
C7    H23   S    
C66   O38   A    
C77   O41   A    
C19   H35   S    
C5    C89   S    
C4    O28   A    
Cr5   O5    S    
C96   H62   S    
C71   O47   A    
