data_mof_unit_60707.cif
_audit_creation_date              2012-10-26T19:37:16-0400
_audit_creation_method            fapswitch 2.2
_symmetry_space_group_name_H-M    P1
_symmetry_Int_Tables_number       1
_space_group_crystal_system       triclinic
_cell_length_a                    10.942792
_cell_length_b                    15.863577
_cell_length_c                    17.024712
_cell_angle_alpha                 96.177686
_cell_angle_beta                  91.699004
_cell_angle_gamma                 93.116526
_cell_volume                      2931.9670082

loop_
_atom_site_label
_atom_site_type_symbol
_atom_type_description
_atom_site_fract_x
_atom_site_fract_y
_atom_site_fract_z
_atom_type_partial_charge
C1    C     C_R   0.508066 0.490017 0.348687 0.580650
C2    C     C_R   0.518013 0.517201 0.737337 -0.035558
C3    C     C_R   0.441334 0.566202 0.786726 -0.000488
C4    C     C_R   0.265952 0.499841 0.504603 0.570909
C5    C     C_R   0.461004 0.572480 0.869371 0.131543
C6    C     C_R   0.440446 0.750887 0.459801 0.364943
C7    C     C_R   0.453187 0.840444 0.456819 0.216743
C8    C     C_R   0.538805 0.890713 0.509235 0.142879
C9    C     C_R   0.616806 0.848285 0.556734 0.201864
C10   C     C_R   0.599792 0.759136 0.559031 0.364620
C11   C     C_R   0.564722 0.160767 0.536459 -0.172421
C12   C     C_R   0.582464 0.556751 0.230733 0.009087
C13   C     C_R   0.570771 0.250317 0.534048 0.370653
C14   C     C_R   0.472236 0.108846 0.493905 0.136534
C15   C     C_R   0.393990 0.237109 0.447959 0.188519
C16   C     C_R   0.501643 0.510507 0.651340 0.572697
C17   C     C_R   0.384529 0.148267 0.451235 0.234993
C18   C     C_R   0.734471 0.500324 0.497163 0.568837
C19   C     C_2   0.940637 0.564881 0.519043 0.260341
C20   C     C_2   0.864361 0.501439 0.483346 0.116089
C21   C     C_2   0.071767 0.563958 0.503406 -0.101442
C22   C     C_2   0.136442 0.498822 0.520732 0.257117
C23   C     C_R   0.566497 0.566276 0.149900 0.118978
C24   C     C_R   0.521465 0.487608 0.262317 -0.040579
C25   C     C_3   0.978145 0.672701 0.623098 -0.109057
C26   C     C_3   0.776182 0.274556 0.568103 -0.065642
C27   C     C_3   0.817752 0.891466 0.563486 -0.098308
C28   C     C_3   0.644982 0.739988 0.687649 -0.061715
C29   C     C_3   0.446936 0.898684 0.340027 -0.075175
C30   C     C_3   0.195083 0.084107 0.457621 -0.063430
C31   C     C_3   0.352800 0.697861 0.337797 -0.048716
C32   C     C_3   0.119726 0.425725 0.628798 -0.115456
C33   C     C_3   0.793095 0.495815 0.704486 -0.083546
C34   C     C_R   0.498926 0.502146 0.099655 0.173200
C35   C     C_3   0.517925 0.289489 0.235659 -0.051845
C36   C     C_R   0.450135 0.429579 0.130117 0.109350
C37   C     C_R   0.466128 0.420216 0.210415 0.226947
C38   C     C_R   0.633652 0.481693 0.851739 0.104390
C39   C     C_R   0.617744 0.478673 0.769829 0.228503
C40   C     C_R   0.554963 0.526973 0.901601 0.171345
Cu1   Cu    Cu3+1 0.494040 0.415220 0.496180 1.084342
Cu2   Cu    Cu3+1 0.505960 0.584780 0.503820 1.083332
H1    H     H_    0.629599 0.132289 0.573232 0.153180
H2    H     H_    0.847445 0.825298 0.553201 0.167625
H3    H     H_    0.890231 0.929492 0.600703 0.142853
H4    H     H_    0.544542 0.742092 0.696165 0.147487
H5    H     H_    0.692446 0.801424 0.711341 0.167885
H6    H     H_    0.678909 0.691033 0.723369 0.120047
H7    H     H_    0.498299 0.844785 0.313387 0.094400
H8    H     H_    0.512223 0.954157 0.356546 0.161985
H9    H     H_    0.382759 0.916219 0.293628 0.172009
H10   H     H_    0.119415 0.047891 0.421807 0.158610
H11   H     H_    0.158860 0.144650 0.483974 0.118041
H12   H     H_    0.115917 0.619808 0.482227 0.142489
H13   H     H_    0.222428 0.045247 0.505128 0.146280
H14   H     H_    0.310666 0.635586 0.311594 0.148347
H15   H     H_    0.448969 0.701362 0.318511 0.126392
H16   H     H_    0.299752 0.747357 0.313530 0.164210
H17   H     H_    0.096802 0.483869 0.666629 0.125470
H18   H     H_    0.070886 0.370872 0.651747 0.145971
H19   H     H_    0.219454 0.416207 0.633823 0.155229
H20   H     H_    0.756422 0.547029 0.672497 0.149322
H21   H     H_    0.858735 0.462661 0.665588 0.146180
H22   H     H_    0.844858 0.523941 0.759157 0.130113
H23   H     H_    0.048885 0.711026 0.594812 0.139503
H24   H     H_    0.547228 0.272890 0.174152 0.141636
H25   H     H_    0.483785 0.229797 0.258113 0.162986
H26   H     H_    0.598080 0.315755 0.274135 0.133293
H27   H     H_    0.020586 0.626465 0.658620 0.129334
H28   H     H_    0.929683 0.717106 0.664493 0.164608
H29   H     H_    0.842864 0.328926 0.585384 0.175424
H30   H     H_    0.791015 0.252793 0.504802 0.118491
H31   H     H_    0.796944 0.224136 0.606110 0.114435
H32   H     H_    0.810043 0.919530 0.506459 0.122926
I1    I     I_    0.632677 0.682002 0.107056 -0.217396
I2    I     I_    0.354298 0.654653 0.944483 -0.185958
I3    I     I_    0.712889 0.640352 0.302576 -0.296690
I4    I     I_    0.258666 0.284551 0.374360 -0.124947
I5    I     I_    0.915355 0.407760 0.391895 -0.284977
I6    I     I_    0.776171 0.414736 0.900296 -0.200970
I7    I     I_    0.349761 0.332835 0.054172 -0.183145
I8    I     I_    0.294472 0.628735 0.735900 -0.407272
N1    N     N_2   0.478861 0.507637 0.017969 -0.158869
N2    N     N_2   0.574237 0.525736 0.983914 -0.157017
N3    N     N_R   0.514910 0.712130 0.509560 -0.255144
N4    N     N_2   0.553348 0.982278 0.514050 -0.206563
N5    N     N_2   0.460049 0.018005 0.493663 -0.154351
N6    N     N_R   0.485090 0.287850 0.490450 -0.257763
O1    O     O_R   0.494430 0.420530 0.382500 -0.464245
O2    O     O_3   0.656773 0.301802 0.580918 -0.475327
O3    O     O_3   0.707072 0.894901 0.603745 -0.553883
O4    O     O_3   0.673552 0.717775 0.607973 -0.498141
O5    O     O_3   0.378196 0.877458 0.405009 -0.529609
O6    O     O_3   0.292866 0.098895 0.407695 -0.527557
O7    O     O_3   0.342884 0.702974 0.420606 -0.520544
O8    O     O_3   0.079647 0.428597 0.549729 -0.574319
O9    O     O_3   0.699149 0.436530 0.721278 -0.501306
O10   O     O_3   0.422564 0.346179 0.238117 -0.505400
O11   O     O_R   0.504490 0.563720 0.388950 -0.489486
O12   O     O_R   0.316910 0.428420 0.496780 -0.474668
O13   O     O_R   0.326970 0.571610 0.503230 -0.483760
O14   O     O_R   0.495510 0.436280 0.611050 -0.442329
O15   O     O_R   0.505570 0.579470 0.617500 -0.482909
O16   O     O_R   0.673030 0.428390 0.496770 -0.474452
O17   O     O_R   0.683090 0.571580 0.503220 -0.419405
O18   O     O_3   0.892082 0.631655 0.566324 -0.544387

loop_
_geom_bond_atom_site_label_1
_geom_bond_atom_site_label_2
_ccdc_geom_bond_type
Cu1   O1    S    
C28   H5    S    
C13   O2    S    
C26   H30   S    
Cu1   Cu2   S    
C40   N2    S    
C19   C20   D    
Cu2   O15   S    
C1    O11   A    
C7    C8    A    
C10   N3    A    
C29   H7    S    
C12   C23   A    
C28   H4    S    
C6    N3    A    
C31   H16   S    
C36   C37   A    
C19   C21   S    
C32   H19   S    
C38   C39   A    
C11   C14   A    
C39   O9    S    
C15   I4    S    
C26   H31   S    
Cu1   O14   S    
C18   C20   S    
C27   H2    S    
C33   H20   S    
C11   H1    S    
C31   H14   S    
C35   O10   S    
C2    C16   S    
C9    C10   A    
C8    N4    S    
C27   H3    S    
C10   O4    S    
C21   C22   D    
C4    O13   A    
C26   H29   S    
C14   C17   A    
C9    O3    S    
C2    C39   A    
C37   O10   S    
C29   O5    S    
C25   O18   S    
C29   H8    S    
C7    O5    S    
C30   H11   S    
C25   H23   S    
N4    N5    D    
C8    C9    A    
C35   H24   S    
C4    C22   S    
C16   O15   A    
N1    N2    D    
C35   H25   S    
C36   I7    S    
C33   H21   S    
C23   C34   A    
C12   I3    S    
C3    I8    S    
C24   C37   A    
Cu1   O12   S    
C28   O4    S    
Cu2   N3    S    
C18   O16   A    
C27   O3    S    
C16   O14   A    
C32   O8    S    
C4    O12   A    
C25   H27   S    
C34   N1    S    
C32   H18   S    
C27   H32   S    
Cu2   O13   S    
C29   H9    S    
C15   C17   A    
Cu1   N6    S    
C30   H10   S    
C28   H6    S    
C1    O1    A    
C20   I5    S    
C22   O8    S    
C23   I1    S    
C3    C5    A    
C14   N5    S    
C6    C7    A    
C25   H28   S    
C26   O2    S    
C30   H13   S    
C12   C24   A    
Cu1   O16   S    
C31   H15   S    
C5    I2    S    
C2    C3    A    
C18   O17   A    
C30   O6    S    
Cu2   O11   S    
C38   C40   A    
C11   C13   A    
C21   H12   S    
C38   I6    S    
C35   H26   S    
C33   H22   S    
C31   O7    S    
C13   N6    A    
C34   C36   A    
C33   O9    S    
Cu2   O17   S    
C19   O18   S    
C1    C24   S    
C6    O7    S    
C5    C40   A    
C17   O6    S    
C32   H17   S    
C15   N6    A    
