data_mof_unit_5156.cif
_audit_creation_date              2012-12-11T17:02:21-0500
_audit_creation_method            fapswitch 2.2
_symmetry_space_group_name_H-M    P1
_symmetry_Int_Tables_number       1
_space_group_crystal_system       triclinic
_cell_length_a                    21.640983
_cell_length_b                    7.072081
_cell_length_c                    14.93563
_cell_angle_alpha                 89.815913
_cell_angle_beta                  106.528901
_cell_angle_gamma                 90.012925
_cell_volume                      2191.37860282

loop_
_atom_site_label
_atom_site_type_symbol
_atom_type_description
_atom_site_fract_x
_atom_site_fract_y
_atom_site_fract_z
_atom_type_partial_charge
O1    O     O_R   0.585850 0.505770 0.002130 -0.537821
O2    O     O_R   0.414150 0.005770 0.997870 -0.541872
O3    O     O_R   0.467530 0.173560 0.861970 -0.533088
O4    O     O_R   0.532470 0.673560 0.138030 -0.520537
C1    C     C_R   0.455725 0.345096 0.825258 0.821199
C2    C     C_R   0.545351 0.844078 0.174526 0.807831
O5    O     O_R   0.588690 0.175900 0.993250 -0.532796
O6    O     O_R   0.411310 0.675900 0.006750 -0.526503
O7    O     O_R   0.536170 0.007950 0.130090 -0.537452
O8    O     O_R   0.463830 0.507950 0.869910 -0.528699
C3    C     C_R   0.615028 0.344603 0.997754 0.757044
C4    C     C_R   0.385273 0.844717 0.003986 0.755902
O9    O     O_3   0.482630 0.339970 0.044740 -0.355724
O10   O     O_3   0.517370 0.839970 0.955260 -0.361672
V1    V     V_3+5 0.503220 0.064200 0.991700 1.623083
V2    V     V_3+5 0.496780 0.564200 0.008300 1.641096
C5    C     C_R   0.293454 0.006932 0.046706 0.095239
C6    C     C_R   0.706968 0.506169 0.956098 0.091872
C7    C     C_R   0.317826 0.852036 0.009378 -0.128651
C8    C     C_R   0.682997 0.352394 0.995278 -0.107535
C9    C     C_R   0.275538 0.698952 0.978980 -0.075443
C10   C     C_R   0.725986 0.202280 0.030657 -0.090274
H1    H     H_    0.292557 0.572155 0.954428 0.158597
H2    H     H_    0.709735 0.079417 0.060802 0.123979
C11   C     C_R   0.209740 0.712238 0.974334 -0.097963
C12   C     C_R   0.791558 0.214657 0.033256 -0.101565
H3    H     H_    0.178144 0.595804 0.945046 0.148847
H4    H     H_    0.823632 0.099960 0.064398 0.137023
C13   C     C_R   0.184403 0.877585 0.002647 -0.149012
C14   C     C_R   0.816152 0.377549 0.000708 -0.139499
C15   C     C_R   0.228569 0.019371 0.043169 0.070242
C16   C     C_R   0.771803 0.518740 0.959315 0.068928
C17   C     C_3   0.226841 0.226821 0.026027 0.180376
C18   C     C_3   0.773514 0.726250 0.976664 0.188572
C19   C     C_3   0.298539 0.213446 0.031299 0.198157
C20   C     C_3   0.701865 0.713078 0.971146 0.199438
H5    H     H_    0.195505 0.264318 0.955366 0.049191
H6    H     H_    0.804679 0.762830 0.047452 0.041598
H7    H     H_    0.308828 0.244060 0.964027 0.053891
H8    H     H_    0.691573 0.745014 0.038264 0.048626
C21   C     C_R   0.927896 0.881729 0.723716 -0.116638
C22   C     C_R   0.072980 0.379334 0.275906 -0.115891
C23   C     C_R   0.572595 0.854370 0.276252 -0.209071
C24   C     C_R   0.428187 0.356404 0.723357 -0.213478
C25   C     C_R   0.938316 0.813311 0.570098 0.480275
C26   C     C_R   0.064199 0.277554 0.426254 0.471653
C27   C     C_R   0.965608 0.827370 0.666470 -0.185652
C28   C     C_R   0.035587 0.317244 0.332180 -0.182829
C29   C     C_R   0.861944 0.912215 0.685613 -0.168405
C30   C     C_R   0.138962 0.410066 0.314231 -0.163873
C31   C     C_R   0.831811 0.887394 0.589276 0.024807
C32   C     C_R   0.170406 0.360687 0.407892 0.029560
C33   C     C_R   0.871828 0.849896 0.530547 0.043120
C34   C     C_R   0.131899 0.289202 0.463525 0.037213
C35   C     C_R   0.763368 0.897093 0.549493 0.059187
C36   C     C_R   0.238802 0.375782 0.447471 0.058185
C37   C     C_R   0.736525 0.876812 0.451169 0.123217
C38   C     C_R   0.266766 0.328028 0.543045 0.125133
C39   C     C_R   0.778970 0.879823 0.395240 -0.152347
C40   C     C_R   0.228238 0.233923 0.590582 -0.146715
C41   C     C_R   0.844889 0.855995 0.433693 -0.100194
C42   C     C_R   0.161979 0.221642 0.553404 -0.110221
C43   C     C_R   0.720874 0.925342 0.604407 -0.147914
C44   C     C_R   0.280635 0.428732 0.394423 -0.149231
C45   C     C_R   0.654893 0.939872 0.564252 -0.001902
C46   C     C_R   0.347132 0.431535 0.433613 -0.002649
C47   C     C_R   0.627515 0.914616 0.468153 -0.069705
C48   C     C_R   0.374784 0.397214 0.529194 -0.072387
C49   C     C_R   0.668092 0.868821 0.411215 0.011868
C50   C     C_R   0.333753 0.360062 0.586320 0.009801
C51   C     C_R   0.560130 0.931041 0.428333 0.427050
C52   C     C_R   0.442428 0.403702 0.569155 0.429314
C53   C     C_R   0.533643 0.913450 0.331594 0.329238
C54   C     C_R   0.468916 0.372166 0.665409 0.330066
C55   C     C_R   0.638134 0.812401 0.317434 0.031395
C56   C     C_R   0.360934 0.365165 0.684718 0.023512
H9    H     H_    0.874700 0.847279 0.386671 0.184904
H10   H     H_    0.134830 0.153153 0.594990 0.189913
H11   H     H_    0.625521 0.968928 0.610353 0.227983
H12   H     H_    0.376484 0.465093 0.387948 0.224358
H13   H     H_    0.016399 0.797279 0.696755 0.144519
H14   H     H_    0.984133 0.297652 0.302527 0.141506
H15   H     H_    0.835664 0.954829 0.733251 0.175728
H16   H     H_    0.164471 0.467529 0.268303 0.173006
H17   H     H_    0.761777 0.903630 0.320907 0.154196
H18   H     H_    0.249379 0.163716 0.656542 0.164459
H19   H     H_    0.736892 0.939821 0.679118 0.193579
H20   H     H_    0.263914 0.461262 0.321060 0.191669
O11   O     O_R   0.036080 0.231270 0.130120 -0.534278
O12   O     O_R   0.963920 0.731270 0.869880 -0.532789
O13   O     O_R   0.911300 0.558970 0.006750 -0.533688
O14   O     O_R   0.088700 0.058970 0.993250 -0.533891
C57   C     C_R   0.885012 0.389877 0.002683 0.719269
C58   C     C_R   0.115186 0.890061 0.998410 0.720052
O15   O     O_R   0.032450 0.561140 0.138040 -0.539501
O16   O     O_R   0.967550 0.061140 0.861960 -0.537847
O17   O     O_R   0.085870 0.728910 0.002130 -0.533250
O18   O     O_R   0.914130 0.228910 0.997870 -0.531125
C59   C     C_R   0.044797 0.392084 0.174890 0.750966
C60   C     C_R   0.955811 0.892308 0.824946 0.752240
O19   O     O_3   0.017320 0.394650 0.955270 -0.374938
O20   O     O_3   0.982680 0.894650 0.044730 -0.375769
V3    V     V_3+5 0.996780 0.670490 0.008300 1.528360
V4    V     V_3+5 0.003220 0.170490 0.991700 1.530888
Cl1   Cl    Cl    0.988573 0.738618 0.502376 -0.585306
Cl2   Cl    Cl    0.013056 0.213788 0.494499 -0.594747
Cl3   Cl    Cl    0.507790 0.973359 0.498219 -0.481783
Cl4   Cl    Cl    0.494918 0.454332 0.500253 -0.474472
Cl5   Cl    Cl    0.207614 0.349865 0.118758 -0.624012
Cl6   Cl    Cl    0.792957 0.852686 0.884730 -0.618889
Cl7   Cl    Cl    0.353713 0.322423 0.130206 -0.468714
Cl8   Cl    Cl    0.646783 0.822167 0.871751 -0.474034
I1    I     I_    0.681462 0.610505 0.245425 -0.467197
I2    I     I_    0.305348 0.455025 0.775220 -0.504386
Cl9   Cl    Cl    0.450229 0.952055 0.280235 -0.484427
Cl10  Cl    Cl    0.553562 0.367276 0.714801 -0.492668

loop_
_geom_bond_atom_site_label_1
_geom_bond_atom_site_label_2
_ccdc_geom_bond_type
C23   C53   A    
C46   C48   A    
C43   C45   A    
C45   H11   S    
C51   Cl3   S    
O1    C3    A    
O2    C4    A    
C2    O7    A    
C30   H16   S    
O5    C3    A    
O11   C59   A    
C7    C9    A    
C14   C57   S    
C13   C58   S    
O15   C59   A    
C37   C39   A    
C38   C40   A    
O16   C60   A    
C40   C42   A    
O6    V2    S    
O12   C60   A    
C24   C56   A    
C17   C19   S    
C33   C41   A    
C52   Cl4   S    
O15   V3    S    
C45   C47   A    
C35   C43   A    
C20   Cl8   S    
C56   I2    S    
C36   C44   A    
C55   I1    S    
C36   C38   A    
C6    C8    A    
C48   C52   A    
O5    V1    S    
C25   C33   A    
O19   V3    S    
C23   C55   A    
C58   O17   A    
C21   C29   A    
C25   Cl1   S    
C5    C15   A    
C32   C34   A    
C25   C27   A    
C11   C13   A    
C26   C28   A    
C3    C8    S    
C39   C41   A    
C15   C17   S    
C20   H8    S    
C52   C54   A    
C41   H9    S    
C51   C53   A    
C40   H18   S    
C38   C50   A    
C34   C42   A    
C31   C35   A    
C29   C31   A    
C17   H5    S    
C31   C33   A    
C44   C46   A    
O4    V2    S    
C19   H7    S    
C39   H17   S    
O13   C57   A    
C30   C32   A    
O6    C4    A    
C54   Cl10  S    
C26   C34   A    
O14   C58   A    
C21   C27   A    
C21   C60   S    
O1    V2    S    
C22   C28   A    
O20   V4    S    
O2    V1    S    
O17   V3    S    
C22   C30   A    
O4    C2    A    
C1    C24   S    
C8    C10   A    
C12   C14   A    
O19   V4    S    
C2    C23   S    
C9    H1    S    
O11   V4    S    
C50   C56   A    
C18   Cl6   S    
C10   H2    S    
C6    C16   A    
C19   Cl7   S    
O16   V4    S    
C9    C11   A    
C43   H19   S    
C18   H6    S    
C42   H10   S    
O13   V3    S    
C24   C54   A    
O3    C1    A    
C11   H3    S    
C46   H12   S    
C12   H4    S    
C53   Cl9   S    
C37   C49   A    
C29   H15   S    
C35   C37   A    
O7    V1    S    
C1    O8    A    
C13   C15   A    
O8    V2    S    
C22   C59   S    
C14   C16   A    
O18   V4    S    
C26   Cl2   S    
C4    C7    S    
C5    C7    A    
C18   C20   S    
C28   H14   S    
C49   C55   A    
C47   C51   A    
C27   H13   S    
O20   V3    S    
O12   V3    S    
O14   V4    S    
C17   Cl5   S    
C48   C50   A    
C10   C12   A    
O9    V2    S    
O10   V1    S    
O3    V1    S    
C5    C19   S    
C47   C49   A    
C6    C20   S    
C57   O18   A    
C44   H20   S    
C32   C36   A    
C16   C18   S    
