data_mof_unit_47318.cif
_audit_creation_date              2012-12-10T20:39:12-0500
_audit_creation_method            fapswitch 2.2
_symmetry_space_group_name_H-M    P1
_symmetry_Int_Tables_number       1
_space_group_crystal_system       triclinic
_cell_length_a                    19.107049
_cell_length_b                    10.759496
_cell_length_c                    9.844026
_cell_angle_alpha                 91.20092
_cell_angle_beta                  89.604716
_cell_angle_gamma                 89.77078
_cell_volume                      2023.24662584

loop_
_atom_site_label
_atom_site_type_symbol
_atom_type_description
_atom_site_fract_x
_atom_site_fract_y
_atom_site_fract_z
_atom_type_partial_charge
C1    C     C_R   0.503708 0.260257 0.498443 0.932239
C2    C     C_R   0.855951 0.479720 0.509432 -0.074536
C3    C     C_R   0.479857 0.067629 0.608347 -0.065550
C4    C     C_R   0.365550 0.501681 0.500460 0.936688
C5    C     C_R   0.506891 0.128044 0.495602 -0.188372
C6    C     C_R   0.535119 0.058649 0.383975 0.347730
C7    C     C_R   0.532081 0.930228 0.387591 -0.240863
C8    C     C_R   0.507809 0.871395 0.503945 -0.147779
C9    C     C_R   0.483147 0.940733 0.615445 0.055088
C10   C     C_3   0.506446 0.947783 0.761972 0.702057
C11   C     C_3   0.498248 0.088078 0.754422 -0.448934
C12   C     C_R   0.290092 0.491708 0.500957 -0.150182
C13   C     C_R   0.457794 0.420462 0.069812 0.294133
C14   C     C_R   0.547903 0.566609 0.073164 -0.063324
C15   C     C_R   0.548442 0.565304 0.929040 0.003550
C16   C     C_R   0.502523 0.739748 0.501481 0.989464
C17   C     C_R   0.458224 0.419560 0.927400 0.212796
C18   C     C_3   0.380567 0.410429 0.921619 -0.474034
C19   C     C_3   0.380007 0.413067 0.076082 -0.513539
C20   C     C_R   0.634583 0.500619 0.499615 0.934477
C21   C     C_R   0.247083 0.571299 0.581522 0.340139
C22   C     C_R   0.175864 0.545940 0.589619 -0.220206
C23   C     C_R   0.931698 0.460251 0.510460 0.347766
C24   C     C_R   0.147063 0.448644 0.512466 0.033984
C25   C     C_R   0.189055 0.374729 0.426923 -0.114016
C26   C     C_R   0.260637 0.395023 0.422846 -0.236833
C27   C     C_R   0.071970 0.435643 0.510844 0.294565
C28   C     C_R   0.819116 0.541537 0.617111 0.457183
C29   C     C_R   0.746342 0.546655 0.612260 -0.208901
C30   C     C_R   0.710471 0.498628 0.499753 -0.124726
C31   C     C_R   0.747204 0.446288 0.389640 -0.120767
C32   C     C_R   0.819281 0.435141 0.395397 -0.174392
H1    H     H_    0.551766 0.875608 0.301731 0.218980
H2    H     H_    0.846298 0.389419 0.310981 0.194866
H3    H     H_    0.241951 0.659377 0.862266 0.345797
H4    H     H_    0.437418 0.863958 0.096688 0.374252
H5    H     H_    0.698855 0.984183 0.761295 0.413116
H6    H     H_    0.546902 0.142612 0.768773 0.254363
H7    H     H_    0.586695 0.619555 0.875857 0.205389
H8    H     H_    0.356041 0.493429 0.877086 0.275383
H9    H     H_    0.166540 0.300961 0.364896 0.167397
H10   H     H_    0.293291 0.334297 0.359871 0.161863
H11   H     H_    0.829632 0.756639 0.908758 0.401316
H12   H     H_    0.453269 0.128055 0.812952 0.209547
H13   H     H_    0.479075 0.145712 0.156560 0.346262
H14   H     H_    0.585244 0.623115 0.128487 0.169801
H15   H     H_    0.363286 0.320062 0.876802 0.210650
H16   H     H_    0.355475 0.498572 0.120786 0.240764
H17   H     H_    0.142018 0.606238 0.650718 0.192763
H18   H     H_    0.361893 0.324480 0.120259 0.204900
H19   H     H_    0.717344 0.590041 0.695552 0.227704
H20   H     H_    0.720146 0.410326 0.301018 0.213154
N1    N     N_R   0.037364 0.443883 0.391906 -0.138216
N2    N     N_R   0.968208 0.455691 0.391762 -0.148679
N3    N     N_R   0.966339 0.446004 0.628680 -0.062242
N4    N     N_R   0.035542 0.435885 0.629213 -0.125080
N5    N     N_R   0.499530 0.499140 0.142800 -0.117048
N6    N     N_R   0.499530 0.499180 0.857150 -0.108291
O1    O     O_R   0.500010 0.316790 0.614690 -0.633873
O2    O     O_2   0.223465 0.810898 0.646192 -0.253431
O3    O     O_3   0.288349 0.686120 0.828529 -0.485536
O4    O     O_2   0.373289 0.939217 0.857614 -0.245243
O5    O     O_2   0.439352 0.744613 0.856265 -0.252160
O6    O     O_3   0.469620 0.912499 0.039251 -0.539276
O7    O     O_2   0.608068 0.881330 0.938772 -0.211490
O8    O     O_2   0.615342 0.785525 0.712082 -0.357842
O9    O     O_3   0.651400 0.014708 0.739078 -0.550845
O10   O     O_2   0.883448 0.527251 0.857003 -0.270650
O11   O     O_2   0.922700 0.691120 0.704384 -0.266537
O12   O     O_R   0.500000 0.316760 0.385350 -0.582334
O13   O     O_3   0.803865 0.721034 0.830224 -0.531109
O14   O     O_2   0.626136 0.230341 0.297001 -0.291523
O15   O     O_2   0.628747 0.028458 0.180003 -0.195892
O16   O     O_3   0.525685 0.176917 0.129354 -0.509541
O17   O     O_R   0.398140 0.500000 0.614710 -0.586889
O18   O     O_R   0.398130 0.499970 0.385370 -0.635244
O19   O     O_R   0.500000 0.683240 0.614650 -0.538646
O20   O     O_R   0.499990 0.683210 0.385310 -0.646392
O21   O     O_R   0.601870 0.500030 0.614630 -0.621582
O22   O     O_R   0.601860 0.500000 0.385290 -0.607375
O23   O     O_2   0.344897 0.752142 0.600459 -0.265817
S1    S     S_3+6 0.277174 0.709839 0.661987 0.077579
S2    S     S_3+6 0.444320 0.882432 0.878707 0.087341
S3    S     S_3+6 0.596774 0.902366 0.790183 0.058154
S4    S     S_3+6 0.860299 0.620448 0.754737 0.050181
S5    S     S_3+6 0.581740 0.124559 0.246227 0.094670
Zn1   Zn    Zn3+2 0.500000 0.500020 0.653130 1.053245
Zn2   Zn    Zn3+2 0.500000 0.499980 0.346870 1.014446

loop_
_geom_bond_atom_site_label_1
_geom_bond_atom_site_label_2
_ccdc_geom_bond_type
N3    N4    A    
C24   C27   S    
C31   H20   S    
O4    S2    D    
O12   Zn2   S    
C18   H15   S    
O21   Zn1   S    
O23   S1    D    
C7    C8    A    
C14   H14   S    
C20   C30   S    
N1    N2    A    
C1    C5    S    
C28   C29   A    
C18   C19   S    
O3    S1    S    
C1    O1    A    
C30   C31   A    
C13   N5    A    
C10   S2    S    
C2    C32   A    
C16   O19   A    
C18   H8    S    
C4    O17   A    
O13   S4    S    
O2    S1    D    
C8    C9    A    
C4    C12   S    
C9    C10   S    
O18   Zn2   S    
C17   N6    A    
O9    S3    S    
C8    C16   S    
C21   C22   A    
N6    Zn1   S    
O10   S4    D    
C7    H1    S    
C20   O22   A    
C24   C25   A    
C25   H9    S    
C13   C19   S    
C27   N4    A    
O7    S3    D    
C25   C26   A    
C12   C21   A    
O5    S2    D    
H13   O16   S    
C32   H2    S    
C11   H6    S    
O6    S2    S    
C29   C30   A    
C3    C9    A    
C31   C32   A    
C17   C18   S    
C11   H12   S    
H3    O3    S    
O16   S5    S    
C15   H7    S    
C22   H17   S    
O17   Zn1   S    
C15   N6    A    
C22   C24   A    
C28   S4    S    
O11   S4    D    
C26   H10   S    
C23   N2    A    
C29   H19   S    
O20   Zn2   S    
C14   N5    A    
H11   O13   S    
C20   O21   A    
C19   H16   S    
C3    C5    A    
O14   S5    D    
C27   N1    A    
C23   N3    A    
C6    C7    A    
C1    O12   A    
C6    S5    S    
N5    Zn2   S    
C13   C17   A    
O22   Zn2   S    
C19   H18   S    
C5    C6    A    
H5    O9    S    
C10   S3    S    
C16   O20   A    
O1    Zn1   S    
O15   S5    D    
C4    O18   A    
C3    C11   S    
C10   C11   S    
O8    S3    D    
C21   S1    S    
O19   Zn1   S    
C12   C26   A    
C2    C23   S    
C14   C15   A    
C2    C28   A    
H4    O6    S    
