data_mof_unit_22201.cif
_audit_creation_date              2012-12-11T17:04:45-0500
_audit_creation_method            fapswitch 2.2
_symmetry_space_group_name_H-M    P1
_symmetry_Int_Tables_number       1
_space_group_crystal_system       triclinic
_cell_length_a                    17.505904
_cell_length_b                    24.632596
_cell_length_c                    14.858717
_cell_angle_alpha                 89.651431
_cell_angle_beta                  125.406606
_cell_angle_gamma                 90.306152
_cell_volume                      5222.24248211

loop_
_atom_site_label
_atom_site_type_symbol
_atom_type_description
_atom_site_fract_x
_atom_site_fract_y
_atom_site_fract_z
_atom_type_partial_charge
C1    C     C_R   0.837991 0.646842 0.906401 -0.032450
C2    C     C_R   0.190855 0.623195 0.093698 -0.017462
C3    C     C_R   0.349438 0.151013 0.907570 -0.028518
C4    C     C_R   0.660926 0.147561 0.091745 -0.099875
C5    C     C_R   0.882833 0.319953 0.005541 -0.053638
C6    C     C_R   0.180826 0.357292 0.001524 -0.055148
C7    C     C_R   0.382830 0.818613 0.003731 -0.063076
C8    C     C_R   0.627232 0.822541 0.001781 -0.023384
C9    C     C_R   0.955337 0.501814 0.281285 0.038975
C10   C     C_R   0.922355 0.504116 0.625731 0.044716
C11   C     C_R   0.563342 0.001858 0.367828 0.037075
C12   C     C_R   0.548027 0.002134 0.723145 0.035252
C13   C     C_R   0.674933 0.500746 0.692603 0.055341
C14   C     C_R   0.300112 0.498125 0.366528 0.060315
C15   C     C_R   0.185024 0.998049 0.652126 -0.020473
C16   C     C_R   0.824405 0.002034 0.287983 -0.020855
C17   C     C_3   0.530572 0.479010 0.498069 -0.160643
C18   C     C_3   0.466017 0.528971 0.454016 -0.139842
C19   C     C_3   0.025881 0.947221 0.505256 -0.154461
C20   C     C_3   0.998553 0.960845 0.388115 -0.157028
C21   C     C_3   0.459143 0.446370 0.506054 -0.308978
C22   C     C_3   0.510232 0.550103 0.571813 -0.117636
C23   C     C_3   0.949245 0.985659 0.487478 -0.265967
C24   C     C_3   0.069160 0.009036 0.435919 -0.244872
C25   C     C_3   0.395282 0.496636 0.462686 -0.042396
C26   C     C_3   0.574475 0.500052 0.615019 -0.026105
C27   C     C_3   0.923509 0.999905 0.372239 -0.035472
C28   C     C_3   0.093367 0.995756 0.550574 -0.036496
C29   C     C_3   0.438950 0.517257 0.579203 0.498744
C30   C     C_3   0.504471 0.467698 0.624135 0.437783
C31   C     C_3   0.992307 0.047515 0.418305 0.511772
C32   C     C_3   0.017435 0.033605 0.532938 0.511807
C33   C     C_R   0.825282 0.274611 0.098791 0.199509
C34   C     C_R   0.196542 0.281441 0.913295 0.207583
C35   C     C_R   0.370276 0.745839 0.106379 0.162241
C36   C     C_R   0.647876 0.738969 0.936170 0.166840
C37   C     C_R   0.838370 0.274212 0.014489 0.125583
C38   C     C_R   0.239952 0.318632 0.998703 0.093415
C39   C     C_R   0.357088 0.763229 0.009031 0.115863
C40   C     C_R   0.686506 0.784338 0.002361 0.070994
C41   C     C_R   0.790580 0.236990 0.928292 -0.163519
C42   C     C_R   0.336819 0.315063 0.080238 -0.167804
C43   C     C_R   0.306656 0.729719 0.915464 -0.167720
C44   C     C_R   0.781628 0.797710 0.055792 -0.208157
C45   C     C_R   0.948011 0.349828 0.094762 0.415268
C46   C     C_R   0.096358 0.374688 0.908623 0.448074
C47   C     C_R   0.448862 0.849078 0.094059 0.436721
C48   C     C_R   0.559451 0.850432 0.908815 0.415031
C49   C     C_R   0.257036 0.684943 0.915870 -0.142598
C50   C     C_R   0.840019 0.761622 0.052826 -0.138167
C51   C     C_R   0.721613 0.205081 0.920390 -0.157368
C52   C     C_R   0.386048 0.270755 0.079007 -0.091163
C53   C     C_R   0.258326 0.673913 0.009847 0.071084
C54   C     C_R   0.801884 0.713230 0.995887 0.011878
C55   C     C_R   0.701060 0.211330 0.998322 0.094651
C56   C     C_R   0.337360 0.231636 0.995210 0.014528
C57   C     C_R   0.323296 0.701672 0.108258 -0.072031
C58   C     C_R   0.705983 0.702693 0.935365 0.015445
C59   C     C_R   0.757614 0.243169 0.091259 -0.024383
C60   C     C_R   0.244348 0.240084 0.908523 -0.002534
C61   C     C_3   0.317130 0.727881 0.195848 0.567412
C62   C     C_3   0.653704 0.655269 0.939358 0.569244
C63   C     C_3   0.730658 0.286489 0.138453 0.565169
C64   C     C_3   0.159657 0.203621 0.853439 0.565055
C65   C     C_3   0.805840 0.321482 0.146779 -0.623303
C66   C     C_3   0.108842 0.248843 0.866473 -0.586683
C67   C     C_3   0.364337 0.777131 0.187979 -0.545958
C68   C     C_3   0.588001 0.696052 0.937323 -0.519895
C69   C     C_R   0.889021 0.554681 0.461433 0.196205
C70   C     C_R   0.899613 0.553836 0.376379 0.193352
C71   C     C_R   0.601751 0.053279 0.624315 0.151480
C72   C     C_R   0.605455 0.052926 0.534161 0.195890
C73   C     C_R   0.886527 0.506091 0.508938 0.008686
C74   C     C_R   0.907594 0.504413 0.335925 0.038167
C75   C     C_R   0.595198 0.004301 0.668128 0.029993
C76   C     C_R   0.601457 0.003728 0.484952 0.033121
C77   C     C_R   0.869306 0.457713 0.449446 -0.142356
C78   C     C_R   0.880096 0.456881 0.363041 -0.118745
C79   C     C_R   0.618724 0.956112 0.639109 -0.165615
C80   C     C_R   0.621295 0.955741 0.546729 -0.167292
C81   C     C_3   0.961040 0.603258 0.419019 -0.488811
C82   C     C_3   0.949586 0.604090 0.511874 -0.508644
C83   C     C_3   0.546859 0.103030 0.486038 -0.499957
C84   C     C_3   0.541969 0.103320 0.583816 -0.496460
C85   C     C_R   0.983537 0.546557 0.251100 -0.046699
C86   C     C_R   0.945905 0.547658 0.694377 -0.135313
C87   C     C_R   0.548657 0.046562 0.303354 -0.097164
C88   C     C_R   0.519510 0.046732 0.752201 -0.105386
C89   C     C_R   0.730402 0.454877 0.733651 -0.170455
C90   C     C_R   0.254889 0.454010 0.302317 -0.176941
C91   C     C_R   0.236733 0.953465 0.709713 -0.158079
C92   C     C_R   0.768936 0.955889 0.253070 -0.179067
C93   C     C_R   0.983835 0.455722 0.253795 -0.061208
C94   C     C_R   0.935431 0.458526 0.687334 0.040988
C95   C     C_R   0.547948 0.956048 0.305372 -0.080988
C96   C     C_R   0.517475 0.956043 0.748354 -0.089796
C97   C     C_R   0.730710 0.546306 0.723149 0.473312
C98   C     C_R   0.253481 0.544301 0.308009 0.398101
C99   C     C_R   0.237113 0.044627 0.701352 0.507708
C100  C     C_R   0.769128 0.046992 0.267511 0.450212
C101  C     C_R   0.850051 0.350098 0.911351 -0.160168
C102  C     C_R   0.185073 0.371928 0.093170 -0.158658
C103  C     C_R   0.350020 0.849901 0.910484 -0.150230
C104  C     C_R   0.654029 0.852274 0.092533 -0.154689
C105  C     C_R   0.931983 0.648224 0.090733 -0.064417
C106  C     C_R   0.097598 0.627485 0.908971 -0.092667
C107  C     C_R   0.439112 0.150467 0.091898 -0.081923
C108  C     C_R   0.567000 0.148303 0.907799 -0.135808
C109  C     C_R   0.859584 0.673546 0.998156 0.034764
C110  C     C_R   0.186472 0.640481 0.002675 0.050018
C111  C     C_R   0.376262 0.180378 0.999669 0.036353
C112  C     C_R   0.639306 0.174451 0.998700 0.095037
H1    H     H_    0.791709 0.660781 0.822663 0.188144
H2    H     H_    0.249994 0.624865 0.178703 0.144546
H3    H     H_    0.310984 0.165875 0.823854 0.197554
H4    H     H_    0.710264 0.159797 0.175820 0.194551
H5    H     H_    0.570275 0.463758 0.466273 0.161177
H6    H     H_    0.448976 0.554159 0.382348 0.173813
H7    H     H_    0.041270 0.906204 0.543257 0.150214
H8    H     H_    0.988212 0.931397 0.325673 0.153848
H9    H     H_    0.801578 0.235554 0.863709 0.141198
H10   H     H_    0.372388 0.344177 0.146919 0.140680
H11   H     H_    0.298116 0.740783 0.839522 0.155396
H12   H     H_    0.810588 0.835363 0.100874 0.138096
H13   H     H_    0.211229 0.662533 0.840101 0.137576
H14   H     H_    0.914138 0.770470 0.096720 0.160362
H15   H     H_    0.683439 0.176615 0.852755 0.121517
H16   H     H_    0.459439 0.265501 0.145479 0.150995
H17   H     H_    0.866192 0.329975 0.232978 0.225943
H18   H     H_    0.094767 0.240498 0.929260 0.191587
H19   H     H_    0.433391 0.785765 0.266046 0.249353
H20   H     H_    0.590716 0.696860 0.013949 0.201033
H21   H     H_    0.778514 0.357722 0.091676 0.231713
H22   H     H_    0.047123 0.264055 0.786595 0.280166
H23   H     H_    0.318276 0.813341 0.150095 0.216045
H24   H     H_    0.515966 0.696053 0.859640 0.266997
H25   H     H_    0.860256 0.419329 0.477865 0.157538
H26   H     H_    0.878031 0.418156 0.327817 0.142976
H27   H     H_    0.622574 0.917691 0.677145 0.148908
H28   H     H_    0.626976 0.917041 0.517150 0.149736
H29   H     H_    0.927606 0.638634 0.362326 0.213105
H30   H     H_    0.016910 0.596334 0.593315 0.208518
H31   H     H_    0.477308 0.095725 0.407002 0.209163
H32   H     H_    0.578590 0.138711 0.638977 0.196710
H33   H     H_    0.034557 0.594906 0.448646 0.227186
H34   H     H_    0.909602 0.639871 0.508620 0.215111
H35   H     H_    0.586981 0.138001 0.485430 0.211362
H36   H     H_    0.469408 0.096035 0.558997 0.219967
H37   H     H_    0.970956 0.588341 0.257391 0.110175
H38   H     H_    0.926930 0.589490 0.669450 0.132599
H39   H     H_    0.569866 0.087881 0.330649 0.124306
H40   H     H_    0.534003 0.088435 0.747224 0.104314
H41   H     H_    0.708061 0.412938 0.717288 0.152884
H42   H     H_    0.268394 0.411906 0.327683 0.153235
H43   H     H_    0.220687 0.911319 0.685642 0.138288
H44   H     H_    0.792474 0.914286 0.268623 0.135443
H45   H     H_    0.971758 0.414059 0.264671 0.144909
H46   H     H_    0.903991 0.419386 0.653142 0.129006
H47   H     H_    0.565411 0.914813 0.335190 0.158817
H48   H     H_    0.528875 0.914598 0.737028 0.160424
H49   H     H_    0.802855 0.336965 0.826620 0.130626
H50   H     H_    0.239650 0.362699 0.178434 0.138289
H51   H     H_    0.307195 0.836426 0.825655 0.146122
H52   H     H_    0.701580 0.840218 0.178080 0.166412
H53   H     H_    0.970649 0.662640 0.174833 0.123986
H54   H     H_    0.070266 0.635157 0.823622 0.099222
H55   H     H_    0.480316 0.163572 0.177040 0.105968
H56   H     H_    0.527455 0.162321 0.823146 0.127232
H57   H     H_    0.437066 0.403775 0.479167 0.177764
H58   H     H_    0.527608 0.593232 0.596134 0.256718
H59   H     H_    0.898519 0.976268 0.507557 0.187214
H60   H     H_    0.121265 0.018338 0.418049 0.194971
N1    N     N_R   0.892620 0.603790 0.941770 -0.056368
N2    N     N_R   0.107380 0.603790 0.058230 -0.040752
N3    N     N_R   0.392620 0.103790 0.941770 -0.053012
N4    N     N_R   0.607380 0.103790 0.058230 -0.060900
N5    N     N_R   0.952270 0.397640 0.058010 -0.086778
N6    N     N_R   0.047730 0.397640 0.941990 -0.095684
N7    N     N_R   0.452270 0.897640 0.058010 -0.079359
N8    N     N_R   0.547730 0.897640 0.941990 -0.092169
N9    N     N_R   0.026310 0.529110 0.206760 -0.045243
N10   N     N_R   0.973690 0.529110 0.793240 -0.055042
N11   N     N_R   0.526310 0.029110 0.206760 -0.048916
N12   N     N_R   0.473690 0.029110 0.793240 -0.047862
N13   N     N_R   0.818570 0.472310 0.793020 -0.078078
N14   N     N_R   0.181430 0.472310 0.206980 -0.069973
N15   N     N_R   0.318570 0.972310 0.793020 -0.067417
N16   N     N_R   0.681430 0.972310 0.206980 -0.058437
N17   N     N_R   0.026930 0.472300 0.207330 -0.042248
N18   N     N_R   0.973070 0.472300 0.792670 -0.050821
N19   N     N_R   0.526930 0.972300 0.207330 -0.043744
N20   N     N_R   0.473070 0.972300 0.792670 -0.042544
N21   N     N_R   0.817960 0.529130 0.792460 -0.093471
N22   N     N_R   0.182040 0.529130 0.207540 -0.105159
N23   N     N_R   0.317960 0.029130 0.792460 -0.099611
N24   N     N_R   0.682040 0.029130 0.207540 -0.093180
N25   N     N_R   0.894850 0.397640 0.943830 -0.061494
N26   N     N_R   0.105150 0.397640 0.056170 -0.057014
N27   N     N_R   0.394850 0.897640 0.943830 -0.060226
N28   N     N_R   0.605150 0.897640 0.056170 -0.063588
N29   N     N_R   0.950040 0.603780 0.055950 -0.049317
N30   N     N_R   0.049960 0.603780 0.944050 -0.052236
N31   N     N_R   0.450040 0.103780 0.055950 -0.048958
N32   N     N_R   0.549960 0.103780 0.944050 -0.055211
Ni1   Ni    Ni4+2 0.934160 0.565860 0.869070 0.254597
Ni2   Ni    Ni4+2 0.065840 0.565860 0.130930 0.301990
Ni3   Ni    Ni4+2 0.434160 0.065860 0.869070 0.266439
Ni4   Ni    Ni4+2 0.565840 0.065860 0.130930 0.252995
Ni5   Ni    Ni4+2 0.067260 0.435560 0.132230 0.280629
Ni6   Ni    Ni4+2 0.932740 0.435560 0.867770 0.225656
Ni7   Ni    Ni4+2 0.567260 0.935560 0.132230 0.261411
Ni8   Ni    Ni4+2 0.432740 0.935560 0.867770 0.263597
Cl1   Cl    Cl    0.375614 0.541239 0.630994 -0.440734
Cl2   Cl    Cl    0.533568 0.427390 0.739927 -0.504157
Cl3   Cl    Cl    0.981993 0.113174 0.360698 -0.448355
Cl4   Cl    Cl    0.020825 0.077133 0.629914 -0.448537
I1    I     I_    0.407187 0.690527 0.355706 -0.205703
I2    I     I_    0.728620 0.607212 0.087570 -0.364649
I3    I     I_    0.759781 0.266571 0.296127 -0.230662
I4    I     I_    0.166052 0.130351 0.937322 -0.284219
Cl5   Cl    Cl    0.202088 0.743844 0.157620 -0.606385
Cl6   Cl    Cl    0.599000 0.614990 0.818072 -0.566673
Cl7   Cl    Cl    0.614757 0.312359 0.042991 -0.561066
Cl8   Cl    Cl    0.115092 0.194178 0.712146 -0.402206
Cl9   Cl    Cl    0.037173 0.323512 0.225001 -0.620769
Cl10  Cl    Cl    0.066137 0.370379 0.773321 -0.667099
Cl11  Cl    Cl    0.547958 0.822412 0.216875 -0.720927
Cl12  Cl    Cl    0.478008 0.821617 0.778491 -0.669025
Cl13  Cl    Cl    0.701676 0.605742 0.643590 -0.678638
Cl14  Cl    Cl    0.254368 0.605280 0.368719 -0.566600
Cl15  Cl    Cl    0.219875 0.107114 0.634934 -0.555622
Cl16  Cl    Cl    0.800328 0.102671 0.356165 -0.575338

loop_
_geom_bond_atom_site_label_1
_geom_bond_atom_site_label_2
_ccdc_geom_bond_type
C53   C110  S    
C58   C62   S    
C79   H27   S    
C63   C65   S    
C10   C94   A    
C20   H8    S    
C22   C29   S    
C5    C37   S    
C55   C112  S    
C87   H39   S    
C98   N22   A    
C104  N28   A    
C46   N6    A    
C35   C39   A    
C19   C20   S    
N3    Ni3   S    
C82   H30   S    
C62   I2    S    
C34   C66   S    
C94   N18   A    
C81   C82   S    
C52   H16   S    
C33   C65   S    
C77   C78   A    
C91   H43   S    
N6    Ni6   S    
C50   C54   A    
N12   Ni3   S    
C21   C25   S    
C95   H47   S    
C17   C26   S    
C106  H54   S    
C99   N23   A    
C77   H25   S    
C38   C42   A    
C55   C59   A    
C11   C76   S    
C102  N26   A    
C87   N11   A    
C48   Cl12  S    
N16   Ni7   S    
C21   H57   S    
C88   N12   A    
C31   Cl3   S    
C84   H32   S    
C97   N21   A    
C106  C110  A    
N7    Ni7   S    
N2    N30   A    
C64   Cl8   S    
N1    N29   A    
N27   Ni8   S    
C101  N25   A    
C41   H9    S    
C57   C61   S    
C68   H20   S    
N26   Ni5   S    
N4    N32   A    
N20   Ni8   S    
C105  C109  A    
N25   Ni6   S    
C1    C109  A    
C66   H22   S    
C89   H41   S    
C73   C77   A    
C14   C90   A    
C83   C84   S    
C11   C87   A    
N30   Ni1   S    
C70   C74   A    
C47   N7    A    
N29   Ni2   S    
C6    C38   S    
C69   C73   A    
C29   Cl1   S    
C50   H14   S    
C23   C27   S    
C90   H42   S    
C29   C30   S    
C6    C46   A    
C18   H6    S    
C56   C111  S    
N5    Ni5   S    
C95   N19   A    
N23   Ni3   S    
C9    C85   A    
C16   C27   S    
C81   H29   S    
C4    C112  A    
C19   H7    S    
C33   C59   A    
C7    C103  A    
C61   I1    S    
C6    C102  A    
C34   C60   A    
N11   Ni4   S    
C88   H40   S    
C18   C25   S    
C1    H1    S    
C78   H26   S    
C28   C32   S    
C93   N17   A    
C34   C38   A    
C82   H34   S    
N14   N22   A    
C60   C64   S    
C14   C98   A    
C13   C89   A    
C100  N24   A    
C25   C29   S    
N22   Ni2   S    
C107  H55   S    
C59   C63   S    
N28   Ni7   S    
N21   Ni1   S    
C64   I4    S    
C27   C31   S    
C63   Cl7   S    
C36   C40   A    
C15   C91   A    
N8    Ni8   S    
C3    C111  A    
N9    N17   A    
C53   C57   A    
C16   C100  A    
C103  N27   A    
C90   N14   A    
C80   H28   S    
C97   Cl13  S    
C44   H12   S    
C33   C37   A    
C56   C60   A    
C54   C109  S    
C7    C47   A    
N24   Ni4   S    
C84   H36   S    
C19   C23   S    
C8    C48   A    
C107  N31   A    
C67   H23   S    
N8    N28   A    
C61   Cl5   S    
C30   Cl2   S    
C8    C40   S    
C107  C111  A    
C61   C67   S    
C105  N29   A    
C31   C32   S    
N32   Ni3   S    
C35   C67   S    
C102  H50   S    
C12   C88   A    
C1    N1    A    
N12   N20   A    
C17   C18   S    
C46   Cl10  S    
C23   H59   S    
C72   C76   A    
C92   H44   S    
C13   C97   A    
C45   Cl9   S    
N15   Ni8   S    
C68   H24   S    
C93   H45   S    
C19   C28   S    
C8    C104  A    
C22   H58   S    
C67   H19   S    
C108  H56   S    
C83   H35   S    
C3    N3    A    
C96   H48   S    
C41   C51   A    
C71   C75   A    
C26   C30   S    
C81   H33   S    
N17   Ni5   S    
C74   C78   A    
C13   C26   S    
N14   Ni5   S    
C76   C80   A    
C9    C74   S    
C43   H11   S    
C9    C93   A    
C48   N8    A    
C49   H13   S    
C42   H10   S    
N2    Ni2   S    
C71   C84   S    
C54   C58   A    
C11   C95   A    
C91   N15   A    
C2    C110  A    
C85   N9    A    
C99   Cl15  S    
N5    N25   A    
N15   N23   A    
C18   C22   S    
C103  H51   S    
C4    H4    S    
C43   C49   A    
C24   C28   S    
N13   N21   A    
N11   N19   A    
C104  H52   S    
C65   H17   S    
C36   C68   S    
C10   C86   A    
C16   C92   A    
C20   C27   S    
C17   H5    S    
N10   N18   A    
C21   C30   S    
C36   C58   A    
N7    N27   A    
C5    C101  A    
C98   Cl14  S    
N6    N26   A    
N10   Ni1   S    
C89   N13   A    
C23   C32   S    
C96   N20   A    
C86   H38   S    
N9    Ni2   S    
N18   Ni6   S    
C24   C31   S    
C51   H15   S    
C71   C72   A    
C108  N32   A    
C3    H3    S    
C2    N2    A    
C83   H31   S    
C45   N5    A    
C2    H2    S    
N4    Ni4   S    
C15   C28   S    
C15   C99   A    
C5    C45   A    
C63   I3    S    
C49   C53   A    
C101  H49   S    
C10   C73   S    
C105  H53   S    
C69   C82   S    
N31   Ni4   S    
C51   C55   A    
C62   C68   S    
C62   Cl6   S    
C14   C25   S    
C37   C41   A    
C69   C70   A    
C24   H60   S    
C85   H37   S    
C72   C83   S    
C4    N4    A    
N3    N31   A    
C79   C80   A    
C32   Cl4   S    
C108  C112  A    
C40   C44   A    
C47   Cl11  S    
C106  N30   A    
N16   N24   A    
C44   C50   A    
C94   H46   S    
C35   C57   A    
C22   C26   S    
C12   C75   S    
C42   C52   A    
C86   N10   A    
C7    C39   S    
N13   Ni6   S    
C12   C96   A    
C100  Cl16  S    
N1    Ni1   S    
C70   C81   S    
N19   Ni7   S    
C75   C79   A    
C39   C43   A    
C20   C24   S    
C65   H21   S    
C92   N16   A    
C52   C56   A    
C64   C66   S    
C66   H18   S    
C17   C21   S    
