data_mof_unit_36261.cif
_audit_creation_date              2012-12-10T19:21:24-0500
_audit_creation_method            fapswitch 2.2
_symmetry_space_group_name_H-M    P1
_symmetry_Int_Tables_number       1
_space_group_crystal_system       triclinic
_cell_length_a                    10.797132
_cell_length_b                    15.969983
_cell_length_c                    14.748567
_cell_angle_alpha                 89.971745
_cell_angle_beta                  90.006139
_cell_angle_gamma                 90.359128
_cell_volume                      2543.04534287

loop_
_atom_site_label
_atom_site_type_symbol
_atom_type_description
_atom_site_fract_x
_atom_site_fract_y
_atom_site_fract_z
_atom_type_partial_charge
C1    C     C_R   0.499432 0.340901 0.499980 0.820370
C2    C     C_R   0.500575 0.659196 0.499952 0.826135
C3    C     C_R   0.871682 0.502870 0.500008 -0.108353
C4    C     C_R   0.128037 0.495418 0.500048 -0.111319
C5    C     C_R   0.938824 0.548101 0.565895 0.037200
C6    C     C_R   0.060801 0.451099 0.433276 0.057664
C7    C     C_R   0.466611 0.955643 0.580074 0.490345
C8    C     C_R   0.546416 0.044318 0.423801 0.479412
C9    C     C_R   0.506036 0.913139 0.501751 0.003538
C10   C     C_R   0.503113 0.087500 0.499953 0.011672
C11   C     C_R   0.545489 0.956804 0.424572 -0.367755
C12   C     C_R   0.464141 0.044247 0.577402 -0.391223
C13   C     C_1   0.504716 0.823452 0.499970 0.029536
C14   C     C_1   0.500049 0.176959 0.499862 0.000314
C15   C     C_1   0.499200 0.251948 0.499951 -0.206318
C16   C     C_1   0.502754 0.748345 0.499704 -0.174411
C17   C     C_R   0.463049 0.570905 0.952978 0.492371
C18   C     C_R   0.537012 0.426179 0.048117 0.468453
C19   C     C_R   0.499134 0.499742 0.903028 -0.093227
C20   C     C_R   0.499265 0.497510 0.097216 -0.081608
C21   C     C_R   0.536918 0.428260 0.951298 -0.387077
C22   C     C_R   0.460599 0.568459 0.048901 -0.335508
C23   C     C_R   0.261769 0.497414 0.499949 0.801432
C24   C     C_R   0.738157 0.501866 0.500025 0.793887
C25   C     C_1   0.499777 0.500011 0.802764 0.190063
C26   C     C_1   0.499818 0.498764 0.197317 0.226234
C27   C     C_R   0.169950 0.363564 0.207344 -0.253781
C28   C     C_R   0.839712 0.660114 0.781110 -0.228787
C29   C     C_R   0.108710 0.415620 0.270750 0.494890
C30   C     C_R   0.887473 0.597874 0.723691 0.483444
C31   C     C_R   0.121079 0.397475 0.364116 0.045184
C32   C     C_R   0.879299 0.608139 0.628834 0.037939
C33   C     C_R   0.188513 0.327125 0.392222 -0.225579
C34   C     C_R   0.818343 0.678383 0.593244 -0.206189
C35   C     C_R   0.245313 0.275438 0.328586 -0.101981
C36   C     C_R   0.769296 0.738935 0.651056 -0.108238
C37   C     C_R   0.236228 0.293748 0.236452 -0.163116
C38   C     C_R   0.781089 0.730208 0.744737 -0.190581
C39   C     C_R   0.932459 0.455348 0.434263 -0.190388
C40   C     C_R   0.067021 0.542606 0.566026 -0.170559
Cu1   Cu    Cu3+1 0.500040 0.500000 0.589220 0.980001
Cu2   Cu    Cu3+1 0.499960 0.500000 0.410780 0.987484
H1    H     H_    0.281000 0.253863 0.187289 0.146104
H2    H     H_    0.745732 0.778256 0.789156 0.133960
H3    H     H_    0.168103 0.376617 0.135437 0.119444
H4    H     H_    0.849416 0.654604 0.853923 0.137159
H5    H     H_    0.196786 0.312300 0.463640 0.129069
H6    H     H_    0.811045 0.687045 0.520588 0.128548
H7    H     H_    0.296984 0.221289 0.350740 0.157513
H8    H     H_    0.723997 0.793461 0.623210 0.146242
H9    H     H_    0.432509 0.081116 0.634108 0.160597
H10   H     H_    0.574440 0.922999 0.364559 0.168583
N1    N     N_1   0.500040 0.499980 0.276710 -0.158491
N2    N     N_1   0.499960 0.500020 0.723290 -0.161722
O1    O     O_R   0.500060 0.380310 0.575320 -0.577576
O2    O     O_R   0.499940 0.619690 0.424680 -0.577666
O3    O     O_R   0.500000 0.380310 0.424640 -0.562029
O4    O     O_R   0.500000 0.619690 0.575360 -0.553465
O5    O     O_R   0.319670 0.500010 0.575340 -0.573565
O6    O     O_R   0.680330 0.499990 0.424660 -0.581390
O7    O     O_R   0.319610 0.500010 0.424650 -0.559223
O8    O     O_R   0.680390 0.499990 0.575350 -0.586219
O9    O     O_3   0.429333 0.643391 0.908142 -0.602407
C41   C     C_3   0.530948 0.700090 0.906746 0.061397
H11   H     H_    0.541752 0.723072 0.836118 0.171816
H12   H     H_    0.621662 0.671252 0.925444 0.119648
C42   C     C_3   0.504400 0.775568 0.967813 -0.337539
H13   H     H_    0.435210 0.816505 0.934334 0.213736
H14   H     H_    0.464749 0.754565 0.033365 0.221784
C43   C     C_3   0.621893 0.826017 0.987541 -0.935791
H15   H     H_    0.689658 0.786902 0.024895 0.257706
H16   H     H_    0.598760 0.881093 0.030079 0.261166
H17   H     H_    0.664814 0.848395 0.923647 0.256011
O10   O     O_3   0.584296 0.358878 0.096608 -0.616458
C44   C     C_3   0.535130 0.281919 0.065425 0.028231
H18   H     H_    0.584125 0.262049 0.002791 0.150185
H19   H     H_    0.433632 0.286369 0.052017 0.135301
C45   C     C_3   0.556265 0.215111 0.137963 -0.294777
H20   H     H_    0.657282 0.208813 0.150639 0.221059
H21   H     H_    0.511283 0.234488 0.202347 0.238338
C46   C     C_3   0.503781 0.130415 0.108549 -0.928084
H22   H     H_    0.402577 0.134965 0.096150 0.249585
H23   H     H_    0.519626 0.083344 0.162611 0.286262
H24   H     H_    0.550365 0.108895 0.045712 0.254714
O11   O     O_3   0.044790 0.487929 0.246469 -0.616842
C47   C     C_3   0.986639 0.481659 0.160829 0.030128
H25   H     H_    0.942204 0.419044 0.150957 0.144319
H26   H     H_    0.055958 0.493655 0.106468 0.156337
C48   C     C_3   0.885880 0.548235 0.154347 -0.281620
H27   H     H_    0.812619 0.534715 0.205383 0.226341
H28   H     H_    0.926531 0.610823 0.169427 0.226386
C49   C     C_3   0.827838 0.550218 0.060002 -0.946847
H29   H     H_    0.898693 0.567009 0.008400 0.256944
H30   H     H_    0.753181 0.597688 0.058092 0.252055
H31   H     H_    0.787401 0.488160 0.043083 0.272783
O12   O     O_3   0.950105 0.530272 0.759625 -0.619328
C50   C     C_3   0.863614 0.474205 0.798716 0.042020
H32   H     H_    0.796089 0.451966 0.746670 0.160213
H33   H     H_    0.812447 0.504390 0.855429 0.140742
C51   C     C_3   0.933129 0.398688 0.836236 -0.303531
H34   H     H_    0.982849 0.367008 0.779999 0.225279
H35   H     H_    0.002597 0.420262 0.886898 0.223025
C52   C     C_3   0.845278 0.336129 0.881379 -0.954509
H36   H     H_    0.799716 0.365185 0.940907 0.267823
H37   H     H_    0.898374 0.280969 0.905059 0.257155
H38   H     H_    0.773540 0.314564 0.832546 0.255338
H39   H     H_    0.879563 0.419916 0.384654 0.153586
H40   H     H_    0.119832 0.578688 0.615113 0.173899
O13   O     O_3   0.427880 0.906441 0.653591 -0.610911
C53   C     C_3   0.418642 0.948520 0.737703 0.074861
H41   H     H_    0.374718 0.903964 0.786014 0.169096
H42   H     H_    0.353993 0.002219 0.734967 0.128903
C54   C     C_3   0.546574 0.971771 0.776160 -0.370427
H43   H     H_    0.601450 0.913781 0.785117 0.215946
H44   H     H_    0.598014 0.013258 0.728776 0.216560
C55   C     C_3   0.534790 0.016623 0.867031 -0.939243
H45   H     H_    0.486111 0.077137 0.858018 0.254942
H46   H     H_    0.628458 0.029367 0.895091 0.258247
H47   H     H_    0.482405 0.977364 0.916129 0.264635
O14   O     O_3   0.577052 0.087487 0.345452 -0.618691
C56   C     C_3   0.707230 0.089774 0.333651 0.032481
H48   H     H_    0.726200 0.080169 0.260370 0.167811
H49   H     H_    0.757879 0.039367 0.370559 0.126115
C57   C     C_3   0.758070 0.175764 0.361706 -0.345963
H50   H     H_    0.702426 0.225830 0.329168 0.235494
H51   H     H_    0.750512 0.182732 0.436421 0.212368
C58   C     C_3   0.893494 0.186848 0.334283 -0.910900
H52   H     H_    0.951475 0.138106 0.366817 0.258914
H53   H     H_    0.927139 0.249398 0.356509 0.257545
H54   H     H_    0.903329 0.182631 0.259453 0.254336
H55   H     H_    0.429613 0.622715 0.086179 0.162157
H56   H     H_    0.568795 0.374881 0.912992 0.154704

loop_
_geom_bond_atom_site_label_1
_geom_bond_atom_site_label_2
_ccdc_geom_bond_type
C22   H55   S    
C27   C29   A    
C18   C21   A    
Cu1   Cu2   S    
C12   H9    S    
C46   H22   S    
O11   C47   S    
C39   H39   S    
C28   H4    S    
C35   C37   A    
Cu1   O4    S    
Cu2   N1    S    
C14   C15   T    
C45   H21   S    
C55   H45   S    
C9    C13   S    
C53   H41   S    
Cu1   O1    S    
C56   C57   S    
C30   O12   S    
C11   H10   S    
Cu2   O2    S    
C4    C40   A    
C35   H7    S    
C24   O8    A    
C31   C33   A    
C43   H15   S    
C1    C15   S    
C48   H28   S    
C2    C16   S    
C29   O11   S    
C40   H40   S    
C54   C55   S    
C27   H3    S    
C6    C31   S    
C3    C39   A    
C18   O10   S    
C3    C24   S    
Cu1   O8    S    
Cu2   O3    S    
C51   H35   S    
C46   H23   S    
C50   H32   S    
C7    C12   A    
O10   C44   S    
C47   H26   S    
C42   H13   S    
C41   C42   S    
C25   N2    T    
Cu1   O5    S    
C4    C6    A    
C10   C14   S    
Cu2   O6    S    
C4    C23   S    
C47   H25   S    
C17   C19   A    
C49   H31   S    
C7    O13   S    
C42   H14   S    
C32   C34   A    
C37   H1    S    
C23   O5    A    
C44   H18   S    
C58   H53   S    
C21   H56   S    
C38   H2    S    
C1    O3    A    
C44   H19   S    
Cu2   O7    S    
C28   C38   A    
C24   O6    A    
O12   C50   S    
C43   H17   S    
C49   H30   S    
C52   H37   S    
C48   C49   S    
C9    C11   A    
C53   C54   S    
C56   H48   S    
C10   C12   A    
C57   C58   S    
C20   C22   A    
C33   H5    S    
C5    C40   A    
C34   H6    S    
C58   H52   S    
C26   N1    T    
C46   H24   S    
C36   H8    S    
O14   C56   S    
C8    O14   S    
C57   H51   S    
C54   H43   S    
C7    C9    A    
C50   H33   S    
C50   C51   S    
C19   C21   A    
C45   H20   S    
C3    C5    A    
C47   C48   S    
C43   H16   S    
C2    O4    A    
C17   C22   A    
C55   H47   S    
C42   C43   S    
C41   H11   S    
C5    C32   S    
C28   C30   A    
C1    O1    A    
C58   H54   S    
C29   C31   A    
C2    O2    A    
O13   C53   S    
C17   O9    S    
C30   C32   A    
C45   C46   S    
C20   C26   S    
C27   C37   A    
C8    C11   A    
C36   C38   A    
C49   H29   S    
C33   C35   A    
C34   C36   A    
C55   H46   S    
C52   H38   S    
C18   C20   A    
C51   C52   S    
C19   C25   S    
C44   C45   S    
C53   H42   S    
Cu1   N2    S    
C56   H49   S    
O9    C41   S    
C23   O7    A    
C8    C10   A    
C13   C16   T    
C52   H36   S    
C6    C39   A    
C51   H34   S    
C48   H27   S    
C41   H12   S    
C57   H50   S    
C54   H44   S    
