data_mof_unit_5443.cif
_audit_creation_date              2012-12-10T16:39:38-0500
_audit_creation_method            fapswitch 2.2
_symmetry_space_group_name_H-M    P1
_symmetry_Int_Tables_number       1
_space_group_crystal_system       triclinic
_cell_length_a                    16.958075
_cell_length_b                    16.970844
_cell_length_c                    16.988043
_cell_angle_alpha                 67.980931
_cell_angle_beta                  67.41113
_cell_angle_gamma                 67.103657
_cell_volume                      4009.55036257

loop_
_atom_site_label
_atom_site_type_symbol
_atom_type_description
_atom_site_fract_x
_atom_site_fract_y
_atom_site_fract_z
_atom_type_partial_charge
C1    C     C_R   0.323836 0.959317 0.451821 -0.024917
C2    C     C_R   0.317002 0.445656 0.987886 -0.024887
C3    C     C_R   0.539034 0.407732 0.012486 0.017036
C4    C     C_R   0.006565 0.456234 0.586359 0.029700
C5    C     C_R   0.968928 0.546971 0.421283 0.029885
C6    C     C_2   0.316065 0.951026 0.826305 0.954452
C7    C     C_2   0.690421 0.037021 0.176902 0.939272
C8    C     C_2   0.952276 0.824810 0.313852 0.943408
C9    C     C_2   0.006469 0.182247 0.698907 0.947311
C10   C     C_2   0.818891 0.311781 0.980574 1.037105
C11   C     C_2   0.174228 0.699044 0.040717 0.959745
C12   C     C_2   0.222979 0.914273 0.734590 0.974829
C13   C     C_R   0.023841 0.679477 0.553420 -0.038380
C14   C     C_2   0.773526 0.091942 0.263580 0.989563
C15   C     C_2   0.728996 0.195929 0.973533 0.989750
C16   C     C_2   0.264429 0.785736 0.087502 1.042421
C17   C     C_2   0.906334 0.735214 0.225982 0.973525
C18   C     C_2   0.063753 0.263414 0.783307 1.024231
C19   C     C_R   0.962989 0.322004 0.448442 -0.037894
C20   C     C_R   0.450947 0.992651 0.454007 -0.024828
C21   C     C_R   0.540228 0.024281 0.544229 -0.027014
C22   C     C_R   0.974907 0.456622 0.457099 -0.022725
C23   C     C_R   0.003448 0.546351 0.549197 -0.025024
C24   C     C_R   0.448867 0.447356 0.013068 -0.010959
C25   C     C_R   0.539279 0.539295 0.039579 -0.004204
C26   C     C_R   0.968250 0.178105 0.435267 0.895059
C27   C     C_R   0.671176 0.050314 0.547537 -0.024316
C28   C     C_R   0.030284 0.821481 0.564895 0.896362
C29   C     C_R   0.178776 0.434307 0.971247 0.907875
C30   C     C_R   0.821674 0.564447 0.033401 0.903777
C31   C     C_R   0.435027 0.969670 0.178078 0.903368
C32   C     C_R   0.563399 0.033667 0.821849 0.920036
C33   C     C_R   0.563035 0.821630 0.035942 0.908427
C34   C     C_R   0.434600 0.178578 0.971118 0.907286
C35   C     C_R   0.032618 0.563888 0.821207 0.909701
C36   C     C_R   0.965811 0.436372 0.178505 0.899627
C37   C     C_R   0.820576 0.034291 0.564061 0.892593
C38   C     C_R   0.950886 0.452581 0.325736 -0.030822
C39   C     C_R   0.178834 0.965994 0.436246 0.896488
C40   C     C_R   0.405398 0.978896 0.407650 0.013883
C41   C     C_R   0.586427 0.036580 0.590836 0.013188
C42   C     C_R   0.965804 0.409623 0.409008 0.019485
C43   C     C_R   0.018694 0.592006 0.594495 0.015776
C44   C     C_R   0.403768 0.402514 0.997186 0.010355
C45   C     C_R   0.587486 0.588494 0.044520 0.021794
C46   C     C_R   0.275862 0.951542 0.403097 -0.159738
C47   C     C_R   0.721818 0.052832 0.596913 -0.164936
C48   C     C_R   0.949446 0.402532 0.275021 -0.168251
C49   C     C_R   0.036853 0.547669 0.676683 -0.026388
C50   C     C_R   0.046360 0.596161 0.724238 -0.163585
C51   C     C_R   0.402028 0.274587 0.964745 -0.168709
C52   C     C_R   0.595570 0.724722 0.055348 -0.171846
C53   C     C_R   0.593913 0.051026 0.725531 -0.163186
C54   C     C_R   0.401103 0.959079 0.273651 -0.157785
C55   C     C_R   0.725007 0.598076 0.050733 -0.164659
C56   C     C_R   0.275001 0.401525 0.965077 -0.163471
C57   C     C_R   0.040717 0.725231 0.598497 -0.164024
C58   C     C_R   0.954785 0.273774 0.400470 -0.167869
C59   C     C_R   0.454609 0.039373 0.714846 0.178706
C60   C     C_R   0.449016 0.318828 0.980313 -0.044980
C61   C     C_R   0.536928 0.972218 0.286448 0.204378
C62   C     C_R   0.023436 0.713786 0.463893 0.185887
C63   C     C_R   0.953681 0.290532 0.539669 0.178441
C64   C     C_R   0.708411 0.456703 0.057940 0.187614
C65   C     C_R   0.283305 0.536805 0.984535 0.201914
C66   C     C_R   0.302411 0.930745 0.544653 0.173730
C67   C     C_R   0.695054 0.076898 0.454615 0.173966
C68   C     C_R   0.542831 0.293551 0.958229 0.269292
C69   C     C_R   0.451344 0.698889 0.083237 0.194960
C70   C     C_R   0.921590 0.545774 0.303816 0.180168
C71   C     C_R   0.544966 0.674360 0.055056 -0.019404
C72   C     C_R   0.057340 0.454134 0.702437 0.174824
C73   C     C_R   0.318044 0.942760 0.317118 0.122432
C74   C     C_R   0.679081 0.063392 0.682472 0.123737
C75   C     C_R   0.944218 0.314875 0.314680 0.135359
C76   C     C_R   0.057174 0.681155 0.681364 0.118306
C77   C     C_R   0.325996 0.324753 0.937887 0.131115
C78   C     C_R   0.682868 0.683771 0.062205 0.128209
C79   C     C_R   0.657004 0.054503 0.407396 0.024807
C80   C     C_R   0.337315 0.957115 0.591363 0.020896
C81   C     C_R   0.030600 0.409215 0.665975 0.016940
C82   C     C_R   0.545033 0.041197 0.678722 -0.029631
C83   C     C_R   0.943839 0.592845 0.342146 0.023654
C84   C     C_R   0.404322 0.661065 0.060862 -0.027553
C85   C     C_R   0.586404 0.326299 0.989811 -0.039933
C86   C     C_R   0.573193 0.009603 0.320898 0.012315
C87   C     C_R   0.419731 0.002309 0.678675 0.015221
C88   C     C_R   0.316232 0.573995 0.022552 -0.043975
C89   C     C_R   0.671533 0.414148 0.030194 -0.060093
C90   C     C_R   0.987692 0.324447 0.579193 0.012894
C91   C     C_R   0.984940 0.679964 0.428372 0.015522
C92   C     C_R   0.693211 0.060277 0.315338 -0.237975
C93   C     C_R   0.446261 0.975218 0.319709 -0.044277
C94   C     C_R   0.303021 0.946900 0.684085 -0.229565
C95   C     C_R   0.033851 0.317497 0.702191 -0.194335
C96   C     C_R   0.936269 0.684833 0.307220 -0.213078
C97   C     C_R   0.312907 0.700018 0.063857 -0.117521
C98   C     C_R   0.678443 0.287331 0.987821 -0.160898
C99   C     C_R   0.653146 0.034070 0.272868 -0.224925
C100  C     C_R   0.344176 0.970106 0.727860 -0.223794
C101  C     C_R   0.269163 0.657534 0.042064 -0.120620
C102  C     C_R   0.720770 0.334111 0.006004 -0.105418
C103  C     C_R   0.008293 0.276539 0.660324 -0.229995
C104  C     C_R   0.676225 0.548809 0.045963 -0.042380
C105  C     C_R   0.959225 0.728127 0.349220 -0.216406
C106  C     C_R   0.533258 0.012350 0.409074 0.024806
C107  C     C_R   0.458293 0.003622 0.589367 0.027060
C108  C     C_R   0.991126 0.412135 0.540563 0.033191
C109  C     C_R   0.984045 0.591551 0.466934 0.028014
C110  C     C_R   0.403916 0.532280 0.028314 0.027098
C111  C     C_R   0.583030 0.453196 0.027907 0.037489
C112  C     C_R   0.577656 0.029110 0.453639 0.031360
C113  C     C_R   0.414346 0.986348 0.544774 0.031014
C114  C     C_R   0.449030 0.577913 0.042237 0.025586
H1    H     H_    0.185600 0.015366 0.836035 0.356051
H2    H     H_    0.261748 0.911867 0.066185 0.366421
H3    H     H_    0.805099 0.825633 0.284247 0.303852
H4    H     H_    0.159250 0.169649 0.724752 0.301195
H5    H     H_    0.818472 0.975330 0.181049 0.356288
H6    H     H_    0.023932 0.817437 0.189100 0.347650
H7    H     H_    0.920149 0.202095 0.815268 0.355193
H8    H     H_    0.930907 0.273148 0.017490 0.368255
H9    H     H_    0.077352 0.810050 0.007560 0.383044
H10   H     H_    0.284891 0.811060 0.819243 0.320485
H11   H     H_    0.711939 0.191670 0.176567 0.300744
H12   H     H_    0.730272 0.087448 0.949387 0.374298
I1    I     I_    0.258030 0.896687 0.256067 -0.156845
I2    I     I_    0.821184 0.290117 0.609676 -0.205934
I3    I     I_    0.717234 0.393669 0.188290 -0.181823
I4    I     I_    0.272802 0.617318 0.857205 -0.188946
I5    I     I_    0.305046 0.795347 0.589087 -0.208292
I6    I     I_    0.712833 0.205417 0.407052 -0.204894
I7    I     I_    0.599762 0.302187 0.820922 -0.181187
I8    I     I_    0.409430 0.692796 0.219186 -0.219495
I9    I     I_    0.788453 0.591754 0.296355 -0.205226
I10   I     I_    0.182913 0.390984 0.727289 -0.196606
I11   I     I_    0.741133 0.106023 0.744330 -0.140504
I12   I     I_    0.915569 0.245440 0.245453 -0.066768
I13   I     I_    0.108316 0.738997 0.739082 -0.095814
I14   I     I_    0.364963 0.350561 0.799549 -0.173047
I15   I     I_    0.749508 0.750204 0.095958 -0.082136
I16   I     I_    0.356992 0.145931 0.768174 -0.178732
I17   I     I_    0.616874 0.843582 0.276959 -0.207354
I18   I     I_    0.148236 0.728495 0.377503 -0.183208
O1    O     O_R   0.982940 0.138950 0.510160 -0.596054
O2    O     O_R   0.982940 0.510160 0.138950 -0.583966
O3    O     O_R   0.861050 0.017060 0.489840 -0.582180
O4    O     O_R   0.138950 0.982940 0.510160 -0.589489
O5    O     O_R   0.867700 0.025880 0.612340 -0.595305
O6    O     O_R   0.132300 0.974120 0.387660 -0.595712
O7    O     O_R   0.025880 0.612340 0.867700 -0.593566
O8    O     O_R   0.974120 0.387660 0.132300 -0.601967
O9    O     O_R   0.612340 0.867700 0.025880 -0.600578
O10   O     O_R   0.387660 0.132300 0.974120 -0.603074
O11   O     O_R   0.387660 0.974120 0.132300 -0.608452
O12   O     O_R   0.017060 0.861050 0.489840 -0.597667
O13   O     O_R   0.612340 0.025880 0.867700 -0.598066
O14   O     O_R   0.132300 0.387660 0.974120 -0.597148
O15   O     O_R   0.867700 0.612340 0.025880 -0.591610
O16   O     O_R   0.974120 0.132300 0.387660 -0.594164
O17   O     O_R   0.025880 0.867700 0.612340 -0.589943
O18   O     O_2   0.372725 0.910649 0.866126 -0.538437
O19   O     O_R   0.227053 0.978092 0.874613 -0.685077
O20   O     O_2   0.639456 0.066870 0.131168 -0.569617
O21   O     O_R   0.781620 0.005410 0.137554 -0.670884
O22   O     O_2   0.914645 0.872285 0.364354 -0.544826
O23   O     O_R   0.138950 0.510160 0.982940 -0.594428
O24   O     O_R   0.988379 0.862736 0.224474 -0.691764
O25   O     O_2   0.047838 0.129961 0.653448 -0.535111
O26   O     O_R   0.957723 0.152296 0.785895 -0.693198
O27   O     O_2   0.859751 0.318745 0.902670 -0.629173
O28   O     O_R   0.864032 0.285364 0.043932 -0.696754
O29   O     O_2   0.124011 0.652727 0.069615 -0.583287
O30   O     O_R   0.142728 0.790364 0.004955 -0.713321
O31   O     O_2   0.155288 0.951006 0.710375 -0.503578
O32   O     O_R   0.223808 0.841496 0.808915 -0.695437
O33   O     O_2   0.841310 0.056010 0.287656 -0.493910
O34   O     O_R   0.861050 0.489840 0.017060 -0.623133
O35   O     O_R   0.772880 0.162619 0.187382 -0.683825
O36   O     O_2   0.804707 0.160028 0.981025 -0.536928
O37   O     O_R   0.689396 0.148265 0.955977 -0.729510
O38   O     O_2   0.191831 0.794537 0.142650 -0.590065
O39   O     O_R   0.302584 0.855824 0.047730 -0.715748
O40   O     O_2   0.943467 0.708418 0.159680 -0.521029
O41   O     O_R   0.835089 0.812382 0.224447 -0.730141
O42   O     O_2   0.033153 0.291375 0.848630 -0.538572
O43   O     O_R   0.130024 0.182313 0.784835 -0.745699
O44   O     O_R   0.510160 0.982940 0.138950 -0.592431
O45   O     O_R   0.489840 0.017060 0.861050 -0.596657
O46   O     O_R   0.489840 0.861050 0.017060 -0.574280
O47   O     O_R   0.510160 0.138950 0.982940 -0.577602
O48   O     O_R   0.017060 0.489840 0.861050 -0.602319
Zn1   Zn    Zn3+2 0.004880 0.004880 0.583590 1.184442
Zn2   Zn    Zn3+2 0.995120 0.995120 0.416410 1.186676
Zn3   Zn    Zn3+2 0.004880 0.583590 0.004880 1.168442
Zn4   Zn    Zn3+2 0.995120 0.416410 0.995120 1.114159
Zn5   Zn    Zn3+2 0.583590 0.004880 0.004880 1.140502
Zn6   Zn    Zn3+2 0.416410 0.995120 0.995120 1.133753

loop_
_geom_bond_atom_site_label_1
_geom_bond_atom_site_label_2
_ccdc_geom_bond_type
O45   Zn6   S    
C96   C105  A    
C38   C70   A    
C69   I8    S    
C18   C95   S    
C89   C102  A    
C3    C85   A    
C91   C105  A    
C9    O25   D    
C67   I6    S    
C77   I14   S    
C40   C93   A    
C2    C65   A    
C8    C105  S    
H9    O30   S    
C65   I4    S    
C3    C24   A    
C16   O39   S    
C22   C108  A    
C106  C112  A    
C28   C57   S    
C33   C52   S    
O15   Zn3   S    
C4    C108  A    
C39   O6    A    
H6    O24   S    
C34   C51   S    
C35   O48   A    
C7    C99   S    
C79   C112  A    
C84   C97   A    
O48   Zn4   S    
C57   C76   A    
C68   I7    S    
C38   C42   A    
C72   C81   A    
C20   C113  A    
C81   C95   A    
C16   O38   D    
C1    C46   A    
C72   I10   S    
O9    Zn5   S    
C41   C82   A    
C10   O28   S    
H2    O39   S    
C18   O43   S    
C23   C43   A    
O3    Zn2   S    
C64   C104  A    
C32   O13   A    
O7    Zn3   S    
C69   C71   A    
O6    Zn2   S    
C54   C93   A    
C85   C98   A    
C8    O24   S    
C1    C40   A    
O5    Zn1   S    
C61   I17   S    
C107  C113  A    
C5    C22   A    
C6    O18   D    
C59   I16   S    
C19   C63   A    
C49   C72   A    
C39   O4    A    
C28   O17   A    
C59   C82   A    
C26   O16   A    
C37   C47   S    
C110  C114  A    
O1    Zn1   S    
C63   I2    S    
C19   C42   A    
C12   O32   S    
C88   C110  A    
C6    O19   S    
H7    O26   S    
C7    O21   S    
C15   O36   D    
C68   C85   A    
C48   C75   A    
C12   C94   S    
C9    O26   S    
C86   C106  A    
C35   O7    A    
C64   C89   A    
C24   C110  A    
C52   C78   A    
C95   C103  A    
C58   C75   A    
C88   C101  A    
C20   C106  A    
C34   O10   A    
C19   C58   A    
C30   O15   A    
C23   C109  A    
C74   I11   S    
C11   O29   D    
C4    C81   A    
O47   Zn5   S    
C10   C102  S    
C67   C79   A    
C78   I15   S    
C2    C44   A    
C55   C78   A    
O8    Zn4   S    
C43   C49   A    
C10   O27   D    
C98   C102  A    
O34   Zn4   S    
C55   C104  A    
C18   O42   D    
O14   Zn4   S    
C56   C77   A    
C33   O46   A    
C6    C100  S    
C31   O44   A    
C26   O1    A    
O12   Zn2   S    
C51   C77   A    
H11   O35   S    
C86   C99   A    
C45   C104  A    
C50   C76   A    
C54   C73   A    
C27   C41   A    
C20   C40   A    
C94   C100  A    
C9    C103  S    
C28   O12   A    
C62   C91   A    
C35   C50   S    
C1    C66   A    
C30   O34   A    
O17   Zn1   S    
C11   C101  S    
C17   C96   S    
C37   O3    A    
C70   C83   A    
C26   C58   S    
C14   C92   S    
C79   C92   A    
C21   C107  A    
O11   Zn6   S    
C8    O22   D    
C2    C56   A    
C12   O31   D    
C21   C41   A    
C13   C62   A    
C36   O2    A    
H8    O28   S    
C39   C46   S    
C70   I9    S    
C24   C44   A    
O23   Zn3   S    
C15   C98   S    
C80   C94   A    
C25   C45   A    
C32   C53   S    
C13   C43   A    
C21   C112  A    
C45   C71   A    
O46   Zn6   S    
C65   C88   A    
O16   Zn2   S    
C87   C100  A    
C30   C55   S    
C76   I13   S    
C27   C47   A    
C4    C23   A    
H5    O21   S    
C34   O47   A    
C11   O30   S    
C84   C114  A    
C38   C48   A    
C36   O8    A    
C14   O35   S    
C47   C74   A    
C37   O5    A    
C75   I12   S    
C31   O11   A    
H4    O43   S    
C87   C107  A    
C5    C83   A    
C29   O14   A    
H10   O32   S    
C29   C56   S    
C64   I3    S    
C66   C80   A    
C7    O20   D    
C89   C111  A    
C17   O41   S    
C29   O23   A    
C33   O9    A    
C90   C108  A    
C52   C71   A    
C73   I1    S    
C25   C114  A    
C17   O40   D    
C91   C109  A    
C22   C42   A    
C5    C109  A    
O44   Zn5   S    
C44   C60   A    
O10   Zn6   S    
C83   C96   A    
C15   O37   S    
C63   C90   A    
C66   I5    S    
C32   O45   A    
C36   C48   S    
O13   Zn5   S    
C31   C54   S    
H1    O19   S    
C16   C97   S    
C59   C87   A    
C90   C103  A    
C14   O33   D    
C27   C67   A    
C61   C86   A    
C25   C111  A    
C3    C111  A    
O4    Zn1   S    
C13   C57   A    
C80   C113  A    
C60   C68   A    
C49   C50   A    
C69   C84   A    
C53   C82   A    
H12   O37   S    
H3    O41   S    
C51   C60   A    
O2    Zn3   S    
C61   C93   A    
C46   C73   A    
C97   C101  A    
C92   C99   A    
C62   I18   S    
C53   C74   A    
