data_mof_unit_13486.cif
_audit_creation_date              2013-03-05T16:09:56-0500
_audit_creation_method            fapswitch 2.2
_symmetry_space_group_name_H-M    P1
_symmetry_Int_Tables_number       1
_space_group_crystal_system       triclinic
_cell_length_a                    10.778477
_cell_length_b                    10.007698
_cell_length_c                    10.983933
_cell_angle_alpha                 89.278574
_cell_angle_beta                  95.152702
_cell_angle_gamma                 86.754748
_cell_volume                      1177.94562267

loop_
_atom_site_label
_atom_site_type_symbol
_atom_site_description
_atom_site_fract_x
_atom_site_fract_y
_atom_site_fract_z
_atom_type_partial_charge
O1    O     O_R   0.316770 0.614620 0.499990 -0.557786
O2    O     O_R   0.683230 0.614620 0.500010 -0.581776
O3    O     O_R   0.316800 0.385290 0.500000 -0.578975
O4    O     O_R   0.683200 0.385290 0.500000 -0.583363
C1    C     C_R   0.260916 0.502467 0.509985 0.948861
C2    C     C_R   0.738969 0.496116 0.488491 0.931368
O5    O     O_R   0.500010 0.614690 0.316770 -0.593163
O6    O     O_R   0.499990 0.614690 0.683230 -0.554882
O7    O     O_R   0.500040 0.385360 0.316770 -0.594926
O8    O     O_R   0.499960 0.385360 0.683230 -0.600606
C3    C     C_R   0.497471 0.499836 0.259779 0.905609
C4    C     C_R   0.490320 0.501028 0.738716 0.880491
Zn1   Zn    Zn3+2 0.500000 0.653120 0.500000 1.123492
Zn2   Zn    Zn3+2 0.500000 0.346880 0.500000 1.097838
C5    C     C_R   0.311105 0.667453 0.109110 0.283012
C6    C     C_R   0.357596 0.734554 0.874469 0.219859
C7    C     C_R   0.288906 0.797693 0.065917 0.138147
C8    C     C_R   0.271980 0.810030 0.940604 0.067752
C9    C     C_R   0.418704 0.613775 0.931341 -0.074298
C10   C     C_R   0.405833 0.592997 0.057334 -0.101133
C11   C     C_R   0.483942 0.496798 0.125751 -0.118073
C12   C     C_R   0.476068 0.503410 0.870262 -0.140703
C13   C     C_R   0.540880 0.392216 0.063314 0.118569
C14   C     C_R   0.512853 0.385204 0.938376 0.150091
C15   C     C_R   0.073793 0.381957 0.542704 0.223064
C16   C     C_R   0.947150 0.369840 0.508645 0.194743
C17   C     C_R   0.872310 0.487629 0.473255 -0.309046
C18   C     C_R   0.127501 0.503817 0.521504 -0.332386
C19   C     C_R   0.928644 0.607209 0.449475 0.165117
C20   C     C_R   0.052527 0.618491 0.489491 0.210777
C21   C     C_R   0.587826 0.065261 0.571379 0.184535
C22   C     C_R   0.412287 0.079239 0.428894 0.191481
C23   C     C_R   0.593986 0.922455 0.564067 0.299776
C24   C     C_R   0.404503 0.937763 0.438788 0.270700
N1    N     N_R   0.500000 0.857200 0.500000 -0.187906
N2    N     N_R   0.500000 0.142810 0.500000 -0.183246
I1    I     I_    0.667524 0.239841 0.146848 -0.081711
I2    I     I_    0.447346 0.197371 0.881123 -0.033103
N3    N     N_R   0.210293 0.599806 0.155744 0.226418
O9    O     O_R   0.109858 0.667700 0.182098 -0.312633
O10   O     O_R   0.210318 0.469977 0.155551 -0.364402
N4    N     N_R   0.420052 0.812303 0.792218 0.241325
O11   O     O_R   0.357323 0.869503 0.697516 -0.377651
O12   O     O_R   0.524764 0.860802 0.833209 -0.319227
I3    I     I_    0.439072 0.917596 0.125711 -0.156551
I4    I     I_    0.164340 0.984308 0.874035 0.079132
N5    N     N_R   0.144377 0.278913 0.615276 0.257789
O13   O     O_R   0.182717 0.303489 0.727919 -0.357754
O14   O     O_R   0.183490 0.168553 0.566209 -0.273588
N6    N     N_R   0.899358 0.238543 0.496485 0.247436
O15   O     O_R   0.830860 0.210661 0.397796 -0.320494
O16   O     O_R   0.945322 0.139404 0.567289 -0.255032
I5    I     I_    0.838227 0.764011 0.333363 -0.008207
I6    I     I_    0.092425 0.792920 0.585936 0.067149
I7    I     I_    0.710462 0.156307 0.704224 0.007133
I8    I     I_    0.292376 0.191654 0.293584 0.014895
N7    N     N_R   0.702422 0.849072 0.621003 0.237355
O17   O     O_R   0.812307 0.888098 0.603503 -0.323217
O18   O     O_R   0.693755 0.755112 0.701726 -0.295008
N8    N     N_R   0.294216 0.881292 0.385137 0.233442
O19   O     O_R   0.186180 0.947119 0.378815 -0.279429
O20   O     O_R   0.302648 0.769275 0.329850 -0.367083

loop_
_geom_bond_atom_site_label_1
_geom_bond_atom_site_label_2
_geom_bond_distance
_ccdc_geom_bond_type
C14   I2    2.127881 S    
O7    Zn2   2.044374 S    
C21   C23   1.430548 A    
Zn1   N1    2.042371 S    
C19   C20   1.379049 A    
C4    C12   1.467035 S    
C17   C19   1.404254 A    
C1    C18   1.454171 S    
C20   I6    2.098604 S    
C15   N5    1.434996 S    
N6    O16   1.300138 A    
N5    O13   1.299774 A    
C2    C17   1.459634 S    
O6    C4    1.297527 A    
C18   C20   1.388350 A    
C7    C8    1.375196 A    
N7    O17   1.297560 A    
N5    O14   1.300419 A    
C15   C18   1.404846 A    
C24   N8    1.427712 S    
O7    C3    1.296280 A    
C5    N3    1.440803 S    
C16   C17   1.419807 A    
O2    C2    1.311563 A    
O3    Zn2   1.990211 S    
N4    O12   1.299373 A    
C6    C9    1.449828 A    
O1    C1    1.311301 A    
C22   N2    1.362543 A    
O4    C2    1.301166 A    
C23   N1    1.380698 A    
C7    I3    2.130669 S    
N6    O15   1.298145 A    
O8    C4    1.318229 A    
C16   N6    1.441678 S    
C11   C13   1.401194 A    
O4    Zn2   2.032931 S    
C5    C10   1.396414 A    
C12   C14   1.409855 A    
N7    O18   1.297275 A    
O1    Zn1   2.033460 S    
N4    O11   1.296799 A    
C13   C14   1.381951 A    
Zn2   N2    2.042272 S    
C8    I4    2.123451 S    
O6    Zn1   2.044253 S    
C6    N4    1.423258 S    
O5    Zn1   2.053764 S    
C9    C12   1.438102 A    
C10   C11   1.405967 A    
N3    O10   1.299303 A    
C6    C8    1.416018 A    
C24   N1    1.389123 A    
O8    Zn2   2.053888 S    
N3    O9    1.302044 A    
C5    C7    1.381995 A    
O2    Zn1   1.990639 S    
C22   I8    2.143186 S    
C21   N2    1.371601 A    
O5    C3    1.316200 A    
C23   N7    1.434026 S    
C21   I7    2.128379 S    
C15   C16   1.395016 A    
C13   I1    2.129469 S    
C3    C11   1.467144 S    
N8    O20   1.284238 A    
C9    C10   1.417096 A    
C19   I5    2.142900 S    
N8    O19   1.300863 A    
O3    C1    1.298130 A    
C22   C24   1.426424 A    
