data_mof_unit_49699.cif
_audit_creation_date              2012-10-26T20:18:17-0400
_audit_creation_method            fapswitch 2.2
_symmetry_space_group_name_H-M    P1
_symmetry_Int_Tables_number       1
_space_group_crystal_system       triclinic
_cell_length_a                    23.445906
_cell_length_b                    8.65931
_cell_length_c                    7.435672
_cell_angle_alpha                 103.406982
_cell_angle_beta                  93.254338
_cell_angle_gamma                 91.788312
_cell_volume                      1464.59005959

loop_
_atom_site_label
_atom_site_type_symbol
_atom_type_description
_atom_site_fract_x
_atom_site_fract_y
_atom_site_fract_z
_atom_type_partial_charge
C1    C     C_R   0.498302 0.199554 0.452923 0.553648
C2    C     C_R   0.707146 0.507219 0.646905 -0.136234
C3    C     C_R   0.244542 0.526658 0.694626 -0.054598
C4    C     C_R   0.766238 0.504045 0.637425 -0.063675
C5    C     C_R   0.209477 0.508484 0.531828 0.243978
C6    C     C_R   0.790419 0.487948 0.466683 0.244671
C7    C     C_2   0.497468 0.031331 0.426616 -0.149617
C8    C     C_2   0.502522 0.968668 0.573385 -0.149411
C9    C     C_R   0.390961 0.501095 0.504271 0.551247
C10   C     C_R   0.609036 0.498789 0.495694 0.552456
C11   C     C_R   0.881002 0.634735 0.511494 0.408593
C12   C     C_R   0.501694 0.800445 0.547077 0.553790
C13   C     C_R   0.118942 0.360927 0.482081 0.416247
C14   C     C_R   0.878288 0.351388 0.415991 0.386708
C15   C     C_R   0.121467 0.643675 0.585782 0.383217
C16   C     C_R   0.938146 0.351313 0.428152 -0.030346
C17   C     C_R   0.061657 0.643658 0.570159 -0.035040
C18   C     C_R   0.969810 0.497065 0.487520 -0.096031
C19   C     C_R   0.030060 0.497966 0.507673 -0.098976
C20   C     C_R   0.941236 0.641604 0.528207 0.030826
C21   C     C_R   0.058690 0.353519 0.465877 0.030624
C22   C     C_R   0.966601 0.208420 0.388969 -0.112334
C23   C     C_R   0.233743 0.489814 0.360911 -0.073007
C24   C     C_R   0.033198 0.786496 0.609726 -0.114567
C25   C     C_R   0.026523 0.207482 0.405271 0.250748
C26   C     C_R   0.973502 0.787265 0.589332 0.250511
C27   C     C_3   0.047077 0.984502 0.190174 0.029870
C28   C     C_3   0.079056 0.830011 0.154509 -0.241583
C29   C     C_3   0.143468 0.858895 0.196346 -0.329571
C30   C     C_3   0.946115 0.996341 0.809605 0.036780
C31   C     C_3   0.911659 0.147338 0.845457 -0.223315
C32   C     C_3   0.950234 0.298713 0.888995 -0.448346
C33   C     C_R   0.755336 0.473869 0.304677 -0.052155
C34   C     C_R   0.292855 0.488058 0.352006 -0.141418
C35   C     C_R   0.696096 0.477198 0.313711 -0.140920
C36   C     C_R   0.328483 0.504554 0.514434 0.005957
C37   C     C_R   0.671494 0.494553 0.485216 0.006389
C38   C     C_R   0.303825 0.524537 0.686131 -0.144349
Cu1   Cu    Cu3+1 0.506340 0.517380 0.684380 0.960237
Cu2   Cu    Cu3+1 0.493660 0.482620 0.315620 0.959569
H1    H     H_    0.942244 0.096154 0.349527 0.202044
H2    H     H_    0.793417 0.515153 0.762942 0.111728
H3    H     H_    0.492700 0.958835 0.285591 0.135234
H4    H     H_    0.507289 0.041164 0.714410 0.135467
H5    H     H_    0.454942 0.380410 0.949272 0.239489
H6    H     H_    0.545057 0.619590 0.050728 0.240023
H7    H     H_    0.064119 0.061468 0.102497 0.132525
H8    H     H_    0.001398 0.950220 0.147791 0.086323
H9    H     H_    0.062284 0.750888 0.238979 0.169344
H10   H     H_    0.070877 0.767555 0.006395 0.116068
H11   H     H_    0.160801 0.938786 0.113317 0.180327
H12   H     H_    0.057238 0.899168 0.653568 0.200868
H13   H     H_    0.164701 0.743936 0.160214 0.115947
H14   H     H_    0.153311 0.912504 0.345886 0.254996
H15   H     H_    0.990308 0.025832 0.871983 0.096767
H16   H     H_    0.925307 0.909414 0.877923 0.130668
H17   H     H_    0.881819 0.146889 0.723664 0.236147
H18   H     H_    0.885373 0.149649 0.965843 0.153187
H19   H     H_    0.974795 0.311091 0.024166 0.137111
H20   H     H_    0.923751 0.403919 0.896974 0.142796
H21   H     H_    0.980845 0.295491 0.780142 0.181100
H22   H     H_    0.206613 0.475607 0.234784 0.109384
H23   H     H_    0.774012 0.462002 0.172504 0.116754
H24   H     H_    0.310541 0.472930 0.217911 0.128852
H25   H     H_    0.669681 0.466932 0.186824 0.129268
H26   H     H_    0.330232 0.537853 0.813578 0.128451
H27   H     H_    0.689491 0.520210 0.780807 0.129470
H28   H     H_    0.225828 0.540735 0.827016 0.114388
N1    N     N_R   0.851286 0.491345 0.460306 -0.407106
N2    N     N_R   0.148575 0.504239 0.537666 -0.403946
N3    N     N_2   0.484110 0.456420 0.038520 -0.258569
N4    N     N_2   0.515890 0.543580 0.961480 -0.258328
O1    O     O_R   0.504120 0.286130 0.619770 -0.504345
O2    O     O_2   0.148111 0.226912 0.440711 -0.463095
O3    O     O_2   0.847176 0.212748 0.363316 -0.493501
O4    O     O_2   0.152440 0.781971 0.645568 -0.511331
O5    O     O_3   0.053187 0.063643 0.379569 -0.509404
O6    O     O_3   0.947327 0.931507 0.617256 -0.514375
O7    O     O_R   0.495880 0.713870 0.380230 -0.504479
O8    O     O_R   0.493410 0.256770 0.308360 -0.494163
O9    O     O_R   0.506590 0.743230 0.691640 -0.493983
O10   O     O_R   0.423230 0.514630 0.655730 -0.507485
O11   O     O_R   0.576770 0.485370 0.344270 -0.506975
O12   O     O_R   0.412530 0.485280 0.344320 -0.502453
O13   O     O_R   0.587470 0.514720 0.655680 -0.501596
O14   O     O_2   0.851959 0.769355 0.548377 -0.440167

loop_
_geom_bond_atom_site_label_1
_geom_bond_atom_site_label_2
_ccdc_geom_bond_type
C27   H8    S    
C24   H12   S    
C6    N1    S    
C10   O13   A    
Cu2   N3    S    
H5    N3    S    
Cu2   O12   S    
C3    H28   S    
C4    H2    S    
C7    C8    D    
C26   O6    S    
C29   H13   S    
C10   C37   S    
C25   O5    S    
C31   H18   S    
C28   C29   S    
C19   C21   A    
C24   C26   A    
C32   H21   S    
C30   C31   S    
C22   H1    S    
C13   N2    A    
C35   H25   S    
C11   O14   S    
C12   O7    A    
C10   O11   A    
C18   C19   A    
C33   C35   A    
C28   H10   S    
C23   H22   S    
C38   H26   S    
C3    C38   A    
C22   C25   A    
C9    C36   S    
Cu1   N4    S    
Cu2   O8    S    
C7    H3    S    
H6    N4    S    
C8    C12   S    
C9    O10   A    
C15   O4    S    
Cu2   O11   S    
C11   C20   A    
C17   C24   A    
Cu1   O9    S    
C4    C6    A    
C2    H27   S    
Cu1   Cu2   S    
C3    C5    A    
C30   H16   S    
C2    C4    A    
C5    N2    S    
C28   H9    S    
C31   C32   S    
C5    C23   A    
C33   H23   S    
C23   C34   A    
C34   H24   S    
Cu2   O7    S    
C13   C21   A    
C14   N1    A    
C14   C16   A    
Cu1   O13   S    
C29   H11   S    
C27   H7    S    
C15   C17   A    
C15   N2    A    
C21   C25   A    
C16   C22   A    
C35   C37   A    
C1    C7    S    
C8    H4    S    
Cu1   O10   S    
C27   O5    S    
C11   N1    A    
C30   H15   S    
C6    C33   A    
C1    O1    A    
C14   O3    S    
C31   H17   S    
C36   C38   A    
N3    N4    D    
C2    C37   A    
C20   C26   A    
C17   C19   A    
C34   C36   A    
C12   O9    A    
C18   C20   A    
Cu1   O1    S    
C9    O12   A    
C30   O6    S    
C13   O2    S    
C16   C18   A    
C29   H14   S    
C27   C28   S    
C1    O8    A    
C32   H20   S    
C32   H19   S    
