data_mof_unit_62534.cif
_audit_creation_date              2012-10-26T20:48:28-0400
_audit_creation_method            fapswitch 2.2
_symmetry_space_group_name_H-M    P1
_symmetry_Int_Tables_number       1
_space_group_crystal_system       triclinic
_cell_length_a                    15.202259
_cell_length_b                    13.808009
_cell_length_c                    19.296804
_cell_angle_alpha                 89.805281
_cell_angle_beta                  89.972353
_cell_angle_gamma                 90.064778
_cell_volume                      4050.62218993

loop_
_atom_site_label
_atom_site_type_symbol
_atom_type_description
_atom_site_fract_x
_atom_site_fract_y
_atom_site_fract_z
_atom_type_partial_charge
C1    C     C_R   0.330112 0.499989 0.499878 0.602023
C2    C     C_R   0.542426 0.892909 0.553029 0.233936
C3    C     C_R   0.461168 0.209152 0.553120 0.044162
C4    C     C_R   0.459178 0.790914 0.447977 0.058705
C5    C     C_R   0.538400 0.209387 0.446867 0.058107
C6    C     C_R   0.540626 0.790545 0.552191 0.059075
C7    C     C_R   0.499499 0.054588 0.500154 0.083428
C8    C     C_R   0.499456 0.945453 0.500239 0.082296
C9    C     C_R   0.499243 0.499995 0.367408 0.591168
C10   C     C_R   0.499281 0.499992 0.632593 0.591455
C11   C     C_R   0.566438 0.543482 0.253915 0.064689
C12   C     C_R   0.670809 0.500030 0.499854 0.591733
C13   C     C_R   0.566224 0.455973 0.745995 0.063217
C14   C     C_R   0.427488 0.545941 0.743709 0.077389
C15   C     C_R   0.427176 0.454184 0.256395 0.076911
C16   C     C_R   0.564914 0.542809 0.181050 0.091431
C17   C     C_R   0.564690 0.456503 0.818865 0.090949
C18   C     C_R   0.424453 0.543523 0.816546 0.093556
C19   C     C_R   0.424165 0.456451 0.183555 0.094893
C20   C     C_R   0.493269 0.500271 0.146060 -0.008006
C21   C     C_R   0.493304 0.499329 0.853948 -0.008493
C22   C     C_R   0.497407 0.499621 0.291435 -0.017222
C23   C     C_R   0.234263 0.500033 0.499674 0.050582
C24   C     C_R   0.497478 0.500292 0.708570 -0.018773
C25   C     C_R   0.491568 0.499520 0.929950 0.372008
C26   C     C_R   0.491510 0.500059 0.070059 0.371970
C27   C     C_R   0.096494 0.558140 0.452329 -0.084777
C28   C     C_R   0.907840 0.412995 0.504130 -0.081940
C29   C     C_R   0.908024 0.586984 0.494413 -0.081572
C30   C     C_R   0.096094 0.441962 0.546587 -0.083729
C31   C     C_R   0.187921 0.558969 0.452246 0.072374
C32   C     C_R   0.816402 0.411520 0.504598 0.089631
C33   C     C_R   0.816585 0.588470 0.494161 0.089187
C34   C     C_R   0.768347 0.500024 0.499556 0.042041
C35   C     C_R   0.187501 0.441309 0.547034 0.074106
C36   C     C_3   0.333012 0.086054 0.619902 -0.021825
C37   C     C_3   0.281285 0.003232 0.652397 -0.328808
C38   C     C_3   0.325375 0.953810 0.413035 -0.019509
C39   C     C_3   0.280324 0.016372 0.358681 -0.319072
C40   C     C_3   0.669918 0.066861 0.394622 -0.018034
C41   C     C_3   0.711424 0.990274 0.348617 -0.318144
C42   C     C_3   0.674028 0.933403 0.601609 -0.018718
C43   C     C_3   0.717106 0.009790 0.646942 -0.318797
C44   C     C_R   0.050241 0.499979 0.499349 -0.012851
C45   C     C_R   0.953838 0.499989 0.499269 -0.010426
C46   C     C_R   0.458409 0.106490 0.553906 0.223005
C47   C     C_R   0.456588 0.892950 0.447498 0.227151
C48   C     C_R   0.540129 0.107088 0.446160 0.226108
Cu1   Cu    Cu3+1 0.500000 0.596430 0.500000 1.033798
Cu2   Cu    Cu3+1 0.500000 0.403570 0.500000 1.030657
H1    H     H_    0.061421 0.602034 0.414832 0.154982
H2    H     H_    0.333183 0.147712 0.656726 0.177754
H3    H     H_    0.312402 0.980689 0.701950 0.199197
H4    H     H_    0.212763 0.026828 0.662875 0.127224
H5    H     H_    0.279827 0.940478 0.616529 0.161414
H6    H     H_    0.319226 0.991119 0.463967 0.121435
H7    H     H_    0.290822 0.882734 0.415677 0.156037
H8    H     H_    0.283889 0.980752 0.307239 0.194468
H9    H     H_    0.210171 0.026859 0.372818 0.114980
H10   H     H_    0.313014 0.088270 0.355618 0.186768
H11   H     H_    0.695269 0.055660 0.448291 0.139806
H12   H     H_    0.943561 0.345247 0.507012 0.147986
H13   H     H_    0.690612 0.139511 0.375560 0.159520
H14   H     H_    0.689305 0.000124 0.294205 0.191556
H15   H     H_    0.784203 0.996625 0.350598 0.126969
H16   H     H_    0.692022 0.916893 0.366870 0.195750
H17   H     H_    0.697418 0.945099 0.547419 0.139612
H18   H     H_    0.695432 0.860707 0.619946 0.159967
H19   H     H_    0.697149 0.999266 0.701829 0.190443
H20   H     H_    0.789789 0.003911 0.643109 0.126691
H21   H     H_    0.696791 0.083223 0.629566 0.196640
H22   H     H_    0.943880 0.654725 0.491390 0.148117
H23   H     H_    0.060718 0.398201 0.584067 0.155448
H24   H     H_    0.432271 0.249298 0.595262 0.161978
H25   H     H_    0.427553 0.751463 0.406670 0.178162
H26   H     H_    0.568566 0.249288 0.404811 0.157858
H27   H     H_    0.572361 0.750516 0.593406 0.157951
H28   H     H_    0.298540 0.107778 0.571190 0.123343
I1    I     I_    0.676381 0.604312 0.307909 -0.229206
I2    I     I_    0.763893 0.268478 0.513860 -0.400887
I3    I     I_    0.764337 0.731354 0.484306 -0.401965
I4    I     I_    0.248379 0.354003 0.624098 -0.371453
I5    I     I_    0.675778 0.394588 0.691856 -0.231328
I6    I     I_    0.325466 0.617814 0.686493 -0.238332
I7    I     I_    0.324825 0.382777 0.313779 -0.247591
I8    I     I_    0.673739 0.600381 0.123191 -0.160415
I9    I     I_    0.673136 0.398255 0.876591 -0.161874
I10   I     I_    0.313130 0.601459 0.870692 -0.155320
I11   I     I_    0.312548 0.398841 0.129547 -0.153914
I12   I     I_    0.249338 0.647705 0.376026 -0.338133
N1    N     N_R   0.491341 0.415209 0.034835 -0.167180
N2    N     N_R   0.491839 0.584367 0.965176 -0.166682
N3    N     N_R   0.490970 0.414939 0.965900 -0.164655
N4    N     N_R   0.491416 0.584639 0.034110 -0.163473
N5    N     N_R   0.500000 0.258690 0.500000 -0.273445
N6    N     N_R   0.500000 0.741310 0.500000 -0.279122
O1    O     O_R   0.371460 0.581430 0.500010 -0.478405
O2    O     O_3   0.414288 0.940860 0.394186 -0.516994
O3    O     O_3   0.577529 0.057870 0.391262 -0.524613
O4    O     O_3   0.581807 0.942046 0.607119 -0.521792
O5    O     O_R   0.628540 0.418570 0.499990 -0.467137
O6    O     O_R   0.628540 0.581430 0.499990 -0.468567
O7    O     O_R   0.371460 0.418570 0.500010 -0.477033
O8    O     O_R   0.499990 0.581460 0.400140 -0.478305
O9    O     O_R   0.500010 0.418540 0.599860 -0.479581
O10   O     O_R   0.500010 0.581460 0.599860 -0.494514
O11   O     O_R   0.499990 0.418540 0.400140 -0.496555
O12   O     O_3   0.420257 0.055105 0.608072 -0.524627

loop_
_geom_bond_atom_site_label_1
_geom_bond_atom_site_label_2
_ccdc_geom_bond_type
C26   N4    A    
C42   H18   S    
C25   N3    A    
C36   O12   S    
C18   C21   A    
C14   C18   A    
C19   C20   A    
C14   I6    S    
C38   O2    S    
Cu1   O8    S    
C7    C8    S    
C15   C19   A    
C47   O2    S    
C30   C35   A    
C36   C37   S    
C38   C39   S    
Cu2   N5    S    
N1    N3    A    
C29   C33   A    
C14   C24   A    
C3    H24   S    
C4    H25   S    
C4    N6    A    
C27   C44   A    
C15   C22   A    
C46   O12   S    
Cu2   O9    S    
C1    O7    A    
C36   H2    S    
C15   I7    S    
C29   H22   S    
C37   H3    S    
C2    O4    S    
Cu2   O7    S    
C43   H19   S    
C16   I8    S    
C30   C44   A    
C2    C6    A    
C40   O3    S    
C5    N5    A    
C35   I4    S    
C27   H1    S    
C5    C48   A    
C28   C45   A    
C27   C31   A    
C7    C46   A    
C28   C32   A    
C1    O1    A    
Cu1   O6    S    
C30   H23   S    
C6    H27   S    
C41   H15   S    
C10   C24   S    
C26   N1    A    
C39   H8    S    
C18   I10   S    
C40   H11   S    
C13   C24   A    
C29   C45   A    
C32   C34   A    
C12   O6    A    
C19   I11   S    
C42   O4    S    
C32   I2    S    
C38   H7    S    
C11   C16   A    
C16   C20   A    
C31   I12   S    
C39   H9    S    
N2    N4    A    
C33   C34   A    
C40   H13   S    
Cu1   O10   S    
C11   I1    S    
C37   H4    S    
C40   C41   S    
C1    C23   S    
C43   H20   S    
C23   C35   A    
Cu2   O11   S    
C10   O10   A    
C42   C43   S    
C12   C34   S    
C44   C45   S    
C48   O3    S    
C21   C25   S    
C25   N2    A    
C43   H21   S    
C11   C22   A    
C17   I9    S    
C2    C8    A    
C41   H16   S    
C9    O11   A    
C13   I5    S    
C3    C46   A    
C6    N6    A    
C13   C17   A    
C7    C48   A    
C5    H26   S    
C8    C47   A    
C12   O5    A    
C36   H28   S    
C42   H17   S    
C20   C26   S    
C9    O8    A    
C39   H10   S    
Cu1   N6    S    
C9    C22   S    
C17   C21   A    
Cu1   O1    S    
C37   H5    S    
C38   H6    S    
Cu2   O5    S    
Cu1   Cu2   S    
C10   O9    A    
C3    N5    A    
C41   H14   S    
C33   I3    S    
C23   C31   A    
C4    C47   A    
C28   H12   S    
