data_mof_unit_43067.cif
_audit_creation_date              2012-10-26T18:50:04-0400
_audit_creation_method            fapswitch 2.2
_symmetry_space_group_name_H-M    P1
_symmetry_Int_Tables_number       1
_space_group_crystal_system       triclinic
_cell_length_a                    10.891275
_cell_length_b                    13.084273
_cell_length_c                    11.652938
_cell_angle_alpha                 98.186147
_cell_angle_beta                  91.620042
_cell_angle_gamma                 93.048061
_cell_volume                      1640.26991586

loop_
_atom_site_label
_atom_site_type_symbol
_atom_type_description
_atom_site_fract_x
_atom_site_fract_y
_atom_site_fract_z
_atom_type_partial_charge
C1    C     C_R   0.500441 0.299679 0.480939 0.629038
C2    C     C_R   0.572693 0.872447 0.467761 0.068650
C3    C     C_R   0.465026 0.023867 0.545217 -0.057954
C4    C     C_R   0.544759 0.975609 0.462684 -0.041239
C5    C     C_R   0.379311 0.401921 0.028526 0.318002
C6    C     C_R   0.618283 0.598859 0.971530 0.308760
C7    C     C_R   0.392328 0.411046 0.149797 0.102487
C8    C     C_R   0.607547 0.588714 0.850366 0.111473
C9    C     C_R   0.549846 0.542883 0.152895 0.037553
C10   C     C_R   0.446640 0.458590 0.846343 0.045771
C11   C     C_R   0.541725 0.536280 0.031297 -0.039509
C12   C     C_R   0.505612 0.700294 0.519897 0.643230
C13   C     C_R   0.454867 0.464841 0.968165 -0.032730
C14   C     C_R   0.262424 0.498889 0.501807 0.664806
C15   C     C_R   0.737385 0.493422 0.496368 0.609666
C16   C     C_R   0.117971 0.319265 0.563898 0.131968
C17   C     C_R   0.896064 0.553735 0.299275 0.129319
C18   C     C_R   0.058857 0.253704 0.632704 -0.139470
C19   C     C_R   0.955229 0.634938 0.251173 -0.183727
C20   C     C_R   0.937793 0.267347 0.661947 -0.088051
C21   C     C_R   0.063137 0.684378 0.303134 -0.104602
C22   C     C_R   0.872155 0.341429 0.615983 0.379897
C23   C     C_R   0.496489 0.811718 0.530024 0.034337
C24   C     C_R   0.120792 0.644490 0.393908 0.412225
C25   C     C_R   0.932986 0.413937 0.553543 -0.013533
C26   C     C_R   0.063632 0.559983 0.439610 -0.013078
C27   C     C_R   0.062192 0.410970 0.543983 -0.034862
C28   C     C_R   0.939653 0.532303 0.409190 -0.047934
C29   C     C_R   0.870326 0.479014 0.486412 -0.009927
C30   C     C_R   0.128015 0.494325 0.502813 0.008034
C31   C     C_3   0.182593 0.256293 0.371250 -0.299395
C32   C     C_3   0.841847 0.375844 0.210820 -0.240866
C33   C     C_3   0.698827 0.768715 0.330635 -0.239434
C34   C     C_R   0.510331 0.187911 0.474919 0.020802
C35   C     C_3   0.521500 0.192196 0.764592 -0.262372
C36   C     C_3   0.578271 0.946462 0.181039 -0.279879
C37   C     C_3   0.294410 0.002347 0.799031 -0.223007
C38   C     C_R   0.594765 0.031990 0.378221 0.157589
C39   C     C_R   0.391622 0.962434 0.611103 0.164945
C40   C     C_R   0.573006 0.136450 0.382710 0.341591
C41   C     C_R   0.405868 0.856498 0.599728 0.403040
C42   C     C_R   0.464479 0.132421 0.562428 0.055960
Cu1   Cu    Cu3+1 0.509250 0.507730 0.615930 1.048990
Cu2   Cu    Cu3+1 0.490750 0.492270 0.384070 1.023186
F1    F     F_    0.294154 0.332074 0.971142 -0.676904
F2    F     F_    0.702666 0.669094 0.029460 -0.700641
F3    F     F_    0.749016 0.333751 0.625539 -0.646008
F4    F     F_    0.231399 0.688492 0.435976 -0.603315
F5    F     F_    0.328992 0.796409 0.655674 -0.576769
F6    F     F_    0.619746 0.188951 0.299552 -0.652039
H1    H     H_    0.107530 0.747780 0.266664 0.142711
H2    H     H_    0.263409 0.227143 0.323499 0.149891
H3    H     H_    0.153761 0.325681 0.335224 0.154747
H4    H     H_    0.106467 0.195307 0.356608 0.142978
H5    H     H_    0.791494 0.507200 0.147806 0.263750
H6    H     H_    0.772883 0.329733 0.149751 0.174393
H7    H     H_    0.838924 0.343878 0.293879 0.192054
H8    H     H_    0.934540 0.367377 0.174276 0.133908
H9    H     H_    0.762268 0.895081 0.451593 0.270872
H10   H     H_    0.771054 0.797737 0.275979 0.171511
H11   H     H_    0.610075 0.760107 0.280025 0.182653
H12   H     H_    0.890653 0.212690 0.709558 0.134457
H13   H     H_    0.724087 0.692997 0.352707 0.165444
H14   H     H_    0.377151 0.247103 0.673181 0.267578
H15   H     H_    0.598859 0.246045 0.748003 0.219221
H16   H     H_    0.556757 0.115316 0.772694 0.146841
H17   H     H_    0.480978 0.222586 0.848051 0.166861
H18   H     H_    0.734863 0.024066 0.262119 0.283069
H19   H     H_    0.631521 0.900681 0.114113 0.175271
H20   H     H_    0.542203 0.013236 0.144228 0.175498
H21   H     H_    0.499865 0.896212 0.203876 0.155593
H22   H     H_    0.244059 0.059903 0.644183 0.251516
H23   H     H_    0.102179 0.186246 0.654439 0.114460
H24   H     H_    0.296076 0.083104 0.844190 0.161466
H25   H     H_    0.376966 0.965404 0.828617 0.159561
H26   H     H_    0.210788 0.959595 0.823645 0.178523
H27   H     H_    0.920747 0.656826 0.170614 0.173298
H28   H     H_    0.379166 0.405717 0.796085 0.171388
H29   H     H_    0.616393 0.595667 0.202082 0.159443
H30   H     H_    0.666568 0.636707 0.804179 0.149650
H31   H     H_    0.334416 0.362438 0.196106 0.136150
H32   H     H_    0.252053 0.217203 0.521673 0.235297
N1    N     N_R   0.523180 0.519350 0.790130 -0.283812
N2    N     N_R   0.476820 0.480650 0.209870 -0.279041
N3    N     N_2   0.215216 0.280429 0.494038 -0.526714
N4    N     N_2   0.812274 0.483551 0.226420 -0.483079
N5    N     N_2   0.691318 0.838775 0.437069 -0.526241
N6    N     N_2   0.428501 0.183454 0.672007 -0.514130
N7    N     N_2   0.657398 0.982278 0.282229 -0.497936
N8    N     N_2   0.290372 0.002112 0.674621 -0.456576
O1    O     O_R   0.506570 0.354460 0.582000 -0.478827
O2    O     O_R   0.493430 0.645540 0.418000 -0.491442
O3    O     O_R   0.490940 0.341410 0.386200 -0.462456
O4    O     O_R   0.509060 0.658590 0.613800 -0.481276
O5    O     O_R   0.327470 0.506520 0.597900 -0.477496
O6    O     O_R   0.672530 0.493480 0.402100 -0.487977
O7    O     O_R   0.311840 0.493460 0.402100 -0.495459
O8    O     O_R   0.688160 0.506540 0.597900 -0.461667

loop_
_geom_bond_atom_site_label_1
_geom_bond_atom_site_label_2
_ccdc_geom_bond_type
C36   N7    S    
C37   H24   S    
C3    C42   A    
C31   N3    S    
C8    N1    A    
Cu1   N1    S    
C34   C42   A    
Cu1   O8    S    
C32   H8    S    
C31   H2    S    
C10   H28   S    
C39   C41   A    
C38   N7    S    
C37   N8    S    
C34   C40   A    
C28   C29   A    
C19   C21   A    
C24   C26   A    
C9    H29   S    
C35   H15   S    
C10   N1    A    
Cu1   O4    S    
Cu2   O7    S    
C19   H27   S    
Cu2   O3    S    
C22   C25   A    
Cu1   O5    S    
C39   N8    S    
C5    C13   A    
Cu2   O2    S    
C36   H21   S    
C16   C27   A    
C22   F3    S    
C37   H25   S    
C3    C39   A    
C1    O1    A    
C27   C30   A    
C12   O4    A    
C32   H7    S    
C14   C30   S    
C41   F5    S    
C36   H20   S    
C1    C34   S    
C15   C29   S    
C15   O6    A    
C25   C29   A    
C17   N4    S    
C24   F4    S    
C6    C11   A    
C5    C7    A    
C6    C8    A    
C35   H16   S    
C5    F1    S    
Cu1   O1    S    
C2    C4    A    
Cu1   Cu2   S    
Cu2   O6    S    
H22   N8    S    
C35   N6    S    
C12   C23   S    
C35   H17   S    
C33   H13   S    
C32   N4    S    
H18   N7    S    
C2    N5    S    
C16   C18   A    
C31   H3    S    
C9    C11   A    
C1    O3    A    
C7    H31   S    
C37   H26   S    
C4    C38   A    
C26   C30   A    
C18   H23   S    
C16   N3    S    
C42   N6    S    
C15   O8    A    
C3    C4    A    
C14   O5    A    
C21   H1    S    
C36   H19   S    
C14   O7    A    
C6    F2    S    
C17   C28   A    
C12   O2    A    
C20   C22   A    
Cu2   N2    S    
C10   C13   A    
C33   H10   S    
H32   N3    S    
C26   C28   A    
C23   C41   A    
H5    N4    S    
C33   N5    S    
C38   C40   A    
C11   C13   A    
C40   F6    S    
C17   C19   A    
C32   H6    S    
C7    N2    A    
C18   C20   A    
C31   H4    S    
C20   H12   S    
H9    N5    S    
C9    N2    A    
C33   H11   S    
C21   C24   A    
C2    C23   A    
C8    H30   S    
H14   N6    S    
C25   C27   A    
