data_mof_unit_57956.cif
_audit_creation_date              2012-12-10T17:20:25-0500
_audit_creation_method            fapswitch 2.2
_symmetry_space_group_name_H-M    P1
_symmetry_Int_Tables_number       1
_space_group_crystal_system       triclinic
_cell_length_a                    11.698786
_cell_length_b                    10.848043
_cell_length_c                    9.650667
_cell_angle_alpha                 91.245047
_cell_angle_beta                  91.220189
_cell_angle_gamma                 93.758925
_cell_volume                      1221.51565348

loop_
_atom_site_label
_atom_site_type_symbol
_atom_type_description
_atom_site_fract_x
_atom_site_fract_y
_atom_site_fract_z
_atom_type_partial_charge
C1    C     C_R   0.508448 0.263794 0.499140 0.788187
C2    C     C_R   0.650839 0.088528 0.849896 -0.136877
C3    C     C_R   0.608356 0.968849 0.873769 -0.169706
C4    C     C_R   0.554719 0.897333 0.766524 -0.189191
C5    C     C_R   0.540202 0.945254 0.631645 0.104942
C6    C     C_R   0.564898 0.073468 0.616957 0.095517
C7    C     C_R   0.521837 0.131224 0.498608 -0.109774
C8    C     C_R   0.477317 0.060303 0.385460 -0.216495
C9    C     C_R   0.470239 0.933158 0.390155 -0.220619
C10   C     C_R   0.500770 0.873444 0.511294 -0.106631
C11   C     C_R   0.690381 0.625452 0.143478 0.209291
C12   C     C_R   0.284227 0.499551 0.498840 0.825190
C13   C     C_R   0.792881 0.622260 0.070702 -0.160756
C14   C     C_R   0.786556 0.637968 0.928778 -0.244905
C15   C     C_R   0.680109 0.624985 0.862089 -0.132760
C16   C     C_R   0.587535 0.563943 0.928270 0.149759
C17   C     C_R   0.589182 0.565075 0.077232 0.093878
C18   C     C_R   0.418818 0.431978 0.067432 0.233308
C19   C     C_R   0.416955 0.438503 0.920494 -0.038799
C20   C     C_R   0.498960 0.738016 0.503014 0.772853
C21   C     C_R   0.715755 0.500190 0.501156 0.786492
C22   C     C_1   0.162404 0.499856 0.497098 -0.191350
C23   C     C_1   0.059886 0.500176 0.498450 -0.007192
C24   C     C_1   0.940071 0.500439 0.501336 -0.007097
C25   C     C_1   0.837556 0.500428 0.502804 -0.184934
C26   C     C_R   0.629788 0.140805 0.722449 -0.147691
Cu1   Cu    Cu3+1 0.499990 0.499990 0.640660 0.922440
Cu2   Cu    Cu3+1 0.500010 0.500010 0.359340 0.922129
H1    H     H_    0.445456 0.103261 0.293779 0.171996
H2    H     H_    0.861925 0.669607 0.873136 0.161573
H3    H     H_    0.672923 0.661770 0.760471 0.191143
H4    H     H_    0.349465 0.388831 0.859715 0.153858
H5    H     H_    0.664763 0.234229 0.707605 0.158447
H6    H     H_    0.696703 0.142363 0.931632 0.141470
H7    H     H_    0.616903 0.930785 0.975752 0.146121
H8    H     H_    0.519877 0.808576 0.797297 0.173886
H9    H     H_    0.436718 0.881356 0.299286 0.159570
H10   H     H_    0.874567 0.645231 0.122936 0.157963
N1    N     N_R   0.501070 0.501210 0.147910 -0.216153
N2    N     N_R   0.501110 0.501290 0.852040 -0.214343
O1    O     O_R   0.499990 0.319640 0.618810 -0.577771
O2    O     O_R   0.500000 0.319660 0.381240 -0.588623
O3    O     O_R   0.337190 0.500000 0.618790 -0.572139
O4    O     O_R   0.337200 0.500030 0.381210 -0.594031
O5    O     O_R   0.500000 0.680340 0.618760 -0.607292
O6    O     O_R   0.500010 0.680360 0.381190 -0.600166
O7    O     O_R   0.662800 0.499970 0.618790 -0.591015
O8    O     O_R   0.662810 0.500000 0.381210 -0.577012
C27   C     C_3   0.329536 0.341935 0.127683 -0.374238
C28   C     C_3   0.334097 0.211037 0.065636 -0.903511
H11   H     H_    0.298622 0.205121 0.957996 0.252418
H12   H     H_    0.423721 0.182881 0.065527 0.264462
H13   H     H_    0.281513 0.144800 0.128028 0.243863
H14   H     H_    0.340154 0.332491 0.239303 0.266173
H15   H     H_    0.242935 0.375087 0.107852 0.183680
C29   C     C_3   0.683190 0.742497 0.232948 -0.332891
C30   C     C_3   0.772220 0.850140 0.208201 -0.932268
H16   H     H_    0.858056 0.828442 0.248477 0.254550
H17   H     H_    0.777504 0.871169 0.096478 0.265047
H18   H     H_    0.747220 0.934165 0.264783 0.258275
H19   H     H_    0.599640 0.780894 0.209496 0.214038
H20   H     H_    0.694403 0.720706 0.343543 0.223711

loop_
_geom_bond_atom_site_label_1
_geom_bond_atom_site_label_2
_ccdc_geom_bond_type
C28   H12   S    
C18   N1    A    
C4    H8    S    
C15   H3    S    
C6    C7    A    
Cu1   O3    S    
C9    C10   A    
Cu1   O1    S    
C26   H5    S    
C20   O5    A    
C14   C15   A    
C3    H7    S    
Cu1   N2    S    
C23   C24   S    
C21   O8    A    
C2    H6    S    
C9    H9    S    
C2    C3    A    
C30   H16   S    
C5    C10   A    
C2    C26   A    
C27   H15   S    
C13   C14   A    
C24   C25   T    
C4    C5    A    
C11   C13   A    
Cu2   O6    S    
C13   H10   S    
C6    C26   A    
C14   H2    S    
C19   H4    S    
C1    O1    A    
C16   N2    A    
C28   H11   S    
C12   O3    A    
C22   C23   T    
C17   N1    A    
C5    C6    A    
C29   H20   S    
C30   H17   S    
C28   H13   S    
C16   C17   A    
Cu1   O5    S    
C8    H1    S    
Cu1   O7    S    
C27   H14   S    
C12   C22   S    
C1    O2    A    
C7    C8    A    
C29   C30   S    
C3    C4    A    
C12   O4    A    
C18   C19   A    
C19   N2    A    
Cu2   O2    S    
Cu1   Cu2   S    
C27   C28   S    
C21   C25   S    
C29   H19   S    
Cu2   O8    S    
C30   H18   S    
Cu2   N1    S    
C1    C7    S    
Cu2   O4    S    
C11   C17   A    
C11   C29   S    
C15   C16   A    
C18   C27   S    
C10   C20   S    
C8    C9    A    
C21   O7    A    
C20   O6    A    
