data_mof_unit_57407.cif
_audit_creation_date              2013-03-05T15:44:19-0500
_audit_creation_method            fapswitch 2.2
_symmetry_space_group_name_H-M    P1
_symmetry_Int_Tables_number       1
_space_group_crystal_system       triclinic
_cell_length_a                    23.53518
_cell_length_b                    10.913333
_cell_length_c                    9.680025
_cell_angle_alpha                 90.71635
_cell_angle_beta                  89.937882
_cell_angle_gamma                 90.226148
_cell_volume                      2486.0728463

loop_
_atom_site_label
_atom_site_type_symbol
_atom_site_description
_atom_site_fract_x
_atom_site_fract_y
_atom_site_fract_z
_atom_type_partial_charge
O1    O     O_R   0.500010 0.321960 0.617040 -0.568450
O2    O     O_R   0.499990 0.321920 0.382900 -0.558822
C1    C     C_R   0.498605 0.265337 0.499185 0.837311
O3    O     O_R   0.417890 0.499980 0.617100 -0.587232
O4    O     O_R   0.417870 0.499940 0.382950 -0.523416
C2    C     C_R   0.390933 0.502710 0.500115 0.868114
Cu1   Cu    Cu3+1 0.500010 0.500020 0.638630 1.015671
Cu2   Cu    Cu3+1 0.499990 0.499980 0.361370 1.018592
O5    O     O_R   0.500010 0.678080 0.617100 -0.521035
O6    O     O_R   0.499990 0.678040 0.382960 -0.581112
O7    O     O_R   0.582130 0.500060 0.617050 -0.576843
O8    O     O_R   0.582110 0.500020 0.382900 -0.585800
C3    C     C_R   0.502932 0.734882 0.501062 0.782599
C4    C     C_R   0.609083 0.499877 0.499824 0.831625
C5    C     C_R   0.880605 0.609089 0.512976 0.600770
N1    N     N_R   0.851888 0.500470 0.500707 -0.456180
C6    C     C_R   0.879592 0.390545 0.492779 0.612431
C7    C     C_R   0.939626 0.386662 0.491933 -0.050784
C8    C     C_R   0.969740 0.498799 0.504931 -0.052346
C9    C     C_R   0.940036 0.610623 0.515755 -0.000107
C10   C     C_R   0.970614 0.275533 0.479769 0.244727
C11   C     C_R   0.030131 0.278104 0.483631 -0.201841
C12   C     C_R   0.059941 0.389004 0.496664 -0.053392
C13   C     C_R   0.029764 0.499682 0.507375 -0.011306
C14   C     C_R   0.059603 0.611554 0.520489 -0.010066
C15   C     C_R   0.029399 0.721886 0.530911 -0.143250
C16   C     C_R   0.970255 0.721437 0.528451 -0.146652
C17   C     C_R   0.119584 0.392126 0.498229 0.633328
N2    N     N_R   0.147800 0.501529 0.511993 -0.443117
C18   C     C_R   0.119167 0.610167 0.522844 0.601271
O9    O     O_2   0.851549 0.715311 0.521582 -0.507551
O10   O     O_2   0.848798 0.286147 0.486799 -0.474729
H1    H     H_    0.052946 0.192317 0.474389 0.192954
O11   O     O_2   0.149217 0.286949 0.485687 -0.501148
O12   O     O_2   0.148331 0.716346 0.536574 -0.499671
H2    H     H_    0.051329 0.808994 0.540878 0.190941
H3    H     H_    0.948314 0.808321 0.536555 0.185801
C19   C     C_R   0.237041 0.546470 0.394877 -0.188274
H4    H     H_    0.212323 0.580054 0.309010 0.203847
C20   C     C_R   0.296363 0.551280 0.389307 0.313915
C21   C     C_R   0.328228 0.506151 0.501600 -0.217964
C22   C     C_R   0.299584 0.461955 0.618516 -0.302510
H5    H     H_    0.323757 0.428453 0.705305 0.206967
C23   C     C_R   0.240130 0.461455 0.626166 0.396535
C24   C     C_R   0.208774 0.502986 0.511790 0.172206
C25   C     C_R   0.761115 0.486863 0.371082 0.381084
C26   C     C_R   0.701498 0.485578 0.374062 -0.254340
H6    H     H_    0.678295 0.474500 0.278143 0.200246
C27   C     C_R   0.671687 0.499810 0.499047 -0.100449
C28   C     C_R   0.702066 0.514579 0.622690 -0.163005
H7    H     H_    0.680196 0.525725 0.720510 0.184347
C29   C     C_R   0.761185 0.515662 0.621383 -0.125722
H8    H     H_    0.784127 0.526664 0.717709 0.182235
C30   C     C_R   0.790992 0.501956 0.496934 0.233347
C31   C     C_2   0.505290 0.932539 0.390521 -0.240711
C32   C     C_2   0.514605 0.866097 0.504659 0.180790
H9    H     H_    0.491599 0.888489 0.294877 0.181547
C33   C     C_2   0.509901 0.066150 0.389201 -0.109449
C34   C     C_2   0.493593 0.133541 0.498379 -0.225375
H10   H     H_    0.524895 0.109069 0.295418 0.171804
H11   H     H_    0.476186 0.091412 0.590262 0.181225
C35   C     C_2   0.461085 0.446009 0.921495 -0.079344
N3    N     N_2   0.499380 0.498660 0.846910 -0.283885
H12   H     H_    0.425113 0.403728 0.869380 0.165624
H13   H     H_    0.535531 0.530594 0.894756 0.200781
C36   C     C_2   0.464675 0.434009 0.077051 0.352282
N4    N     N_2   0.499370 0.498630 0.153040 -0.280118
H14   H     H_    0.523738 0.564452 0.106259 0.176081
N5    N     N_2   0.942780 0.160374 0.462474 -0.380108
H15   H     H_    0.961471 0.090776 0.517271 0.249063
C37   C     C_3   0.933299 0.125498 0.319645 -0.519455
H16   H     H_    0.974550 0.110725 0.266042 0.202271
H17   H     H_    0.908992 0.197566 0.265485 0.261423
H18   H     H_    0.908361 0.038962 0.315018 0.241795
N6    N     N_R   0.541853 0.918095 0.625489 0.120894
O13   O     O_R   0.524237 0.890072 0.748622 -0.335463
O14   O     O_R   0.587753 0.983944 0.612699 -0.318013
N7    N     N_2   0.426370 0.352417 0.142915 -0.373748
H19   H     H_    0.384788 0.381282 0.137085 0.278842
C38   C     C_3   0.432403 0.225176 0.102152 -0.632089
H20   H     H_    0.407890 0.166916 0.174324 0.245189
H21   H     H_    0.477710 0.197425 0.105768 0.231502
H22   H     H_    0.415829 0.209797 0.995883 0.221094
N8    N     N_R   0.322997 0.607570 0.272447 0.133556
O15   O     O_R   0.359926 0.695235 0.291394 -0.338350
O16   O     O_R   0.302830 0.588096 0.148955 -0.328120
N9    N     N_R   0.212569 0.419934 0.750239 0.156550
O17   O     O_R   0.163183 0.462573 0.786940 -0.323242
O18   O     O_R   0.239032 0.347361 0.834035 -0.317393
N10   N     N_R   0.790259 0.473038 0.240716 0.134096
O19   O     O_R   0.764498 0.422659 0.135373 -0.340749
O20   O     O_R   0.840963 0.518091 0.222863 -0.344546

loop_
_geom_bond_atom_site_label_1
_geom_bond_atom_site_label_2
_geom_bond_distance
_ccdc_geom_bond_type
C31   C32   1.347729 D    
N3    H13   1.026803 S    
C7    C10   1.421215 A    
C21   C22   1.406208 A    
C20   N8    1.436226 S    
C8    C9    1.411524 A    
N9    O17   1.301139 A    
Cu1   Cu2   2.683878 S    
C26   C27   1.405141 A    
C23   C24   1.411670 A    
Cu1   O7    1.943739 S    
C15   C16   1.392163 A    
C35   N3    1.291743 D    
C18   O12   1.349673 S    
C17   N2    1.369014 A    
N8    O16   1.301350 A    
C38   H22   1.111107 S    
O4    C2    1.298796 A    
O7    C4    1.299399 A    
N7    C38   1.446337 S    
C4    C27   1.473418 S    
C33   H10   1.084756 S    
C5    N1    1.366157 A    
C7    C8    1.416085 A    
N5    C37   1.446732 S    
O5    C3    1.291361 A    
C19   C24   1.399245 A    
C35   H12   1.084529 S    
N1    C6    1.368913 A    
C2    C21   1.476442 S    
C28   C29   1.391423 A    
C12   C13   1.406263 A    
C23   N9    1.441572 S    
C3    C32   1.457037 S    
C36   N4    1.299598 D    
C17   O11   1.349549 S    
C32   N6    1.443436 S    
C10   C11   1.401448 A    
C22   C23   1.401133 A    
O3    Cu1   1.944133 S    
C29   C30   1.400072 A    
C28   H7    1.083012 S    
C5    C9    1.399021 A    
C36   N7    1.420807 S    
C34   H11   1.085479 S    
C35   C36   1.515573 S    
N4    H14   1.026798 S    
C13   C14   1.410484 A    
C38   H21   1.110330 S    
C37   H17   1.111395 S    
N7    H19   1.031104 S    
C14   C15   1.403181 A    
N2    C24   1.435054 S    
O1    C1    1.291024 A    
N6    O13   1.301221 A    
N2    C18   1.368881 A    
C37   H18   1.110388 S    
N10   O20   1.301039 A    
C26   H6    1.082907 S    
Cu2   O8    1.944138 S    
C25   C30   1.414781 A    
C6    C7    1.413735 A    
C12   C17   1.404093 A    
N8    O15   1.301432 A    
N6    O14   1.301735 A    
Cu1   N3    2.016434 S    
C15   H2    1.083213 S    
C20   C21   1.415852 A    
O8    C4    1.298318 A    
N9    O18   1.301609 A    
O3    C2    1.299355 A    
C22   H5    1.083274 S    
C29   H8    1.083123 S    
C14   C18   1.402188 A    
Cu1   O5    1.956960 S    
C11   H1    1.083794 S    
C25   C26   1.403392 A    
O1    Cu1   1.951836 S    
O2    Cu2   1.956960 S    
C38   H20   1.110177 S    
O6    C3    1.295637 A    
O4    Cu2   1.943739 S    
C5    O9    1.349853 S    
C25   N10   1.442195 S    
C9    C16   1.404698 A    
C31   H9    1.086460 S    
O2    C1    1.290967 A    
C33   C34   1.336803 D    
C37   H16   1.111684 S    
C19   C20   1.397938 A    
N10   O19   1.301693 A    
C19   H4    1.083505 S    
C16   H3    1.083420 S    
C8    C13   1.412883 A    
N5    H15   1.031992 S    
N1    C30   1.433880 S    
Cu2   N4    2.016578 S    
Cu2   O6    1.951834 S    
C27   C28   1.402069 A    
C31   C33   1.461955 S    
C10   N5    1.423054 S    
C6    O10   1.348552 S    
C11   C12   1.400927 A    
C1    C34   1.442623 S    
