data_mof_unit_9023.cif
_audit_creation_date              2012-12-10T20:31:00-0500
_audit_creation_method            fapswitch 2.2
_symmetry_space_group_name_H-M    P1
_symmetry_Int_Tables_number       1
_space_group_crystal_system       triclinic
_cell_length_a                    14.923787
_cell_length_b                    10.658377
_cell_length_c                    9.896396
_cell_angle_alpha                 90.43617
_cell_angle_beta                  88.757332
_cell_angle_gamma                 90.61482
_cell_volume                      1573.65017187

loop_
_atom_site_label
_atom_site_type_symbol
_atom_type_description
_atom_site_fract_x
_atom_site_fract_y
_atom_site_fract_z
_atom_type_partial_charge
C1    C     C_R   0.507034 0.259912 0.498312 0.862116
C2    C     C_R   0.186809 0.428670 0.407803 -0.266036
C3    C     C_R   0.231444 0.505265 0.499940 -0.074420
C4    C     C_R   0.326982 0.502363 0.500745 0.883988
C5    C     C_R   0.185358 0.587079 0.586433 -0.298096
C6    C     C_R   0.538582 0.065499 0.615506 0.118362
C7    C     C_R   0.529950 0.128921 0.493325 -0.148047
C8    C     C_R   0.544901 0.060915 0.369592 0.083799
C9    C     C_R   0.542020 0.930491 0.375411 -0.264006
C10   C     C_R   0.526186 0.870464 0.498891 -0.137161
C11   C     C_R   0.536767 0.937469 0.618207 0.129811
C12   C     C_R   0.905962 0.584182 0.589076 0.120135
C13   C     C_3   0.485906 0.932533 0.749494 -0.482758
C14   C     C_3   0.487655 0.074685 0.746961 -0.494911
C15   C     C_R   0.449844 0.414278 0.073816 0.123052
C16   C     C_R   0.504895 0.739945 0.500206 0.890404
C17   C     C_R   0.556321 0.576058 0.070452 -0.126838
C18   C     C_R   0.556659 0.575636 0.926771 -0.131227
C19   C     C_R   0.446231 0.416149 0.931363 0.162889
C20   C     C_3   0.343243 0.405438 0.946405 0.255599
C21   C     C_3   0.353599 0.394609 0.098636 -0.535999
C22   C     C_R   0.673145 0.501457 0.498673 0.869510
C23   C     C_R   0.955904 0.360586 0.305365 -0.219637
C24   C     C_R   0.813156 0.579905 0.590731 -0.257374
C25   C     C_R   0.768854 0.506016 0.495646 -0.055447
C26   C     C_R   0.815645 0.436517 0.397889 -0.272551
C27   C     C_R   0.908252 0.435582 0.398083 0.125090
C28   C     C_R   0.953720 0.510001 0.493818 0.054318
C29   C     C_3   0.291923 0.526775 0.917458 -0.853392
C30   C     C_3   0.298098 0.282107 0.895143 -0.391032
C31   C     C_3   0.271961 0.280229 0.746482 -0.316908
C32   C     C_3   0.221237 0.159806 0.710340 -0.935278
C33   C     C_3   0.560649 0.118217 0.230387 -0.375523
C34   C     C_R   0.048884 0.357764 0.308604 -0.224419
C35   C     C_3   0.651835 0.185442 0.221479 -0.329162
C36   C     C_3   0.671960 0.234228 0.079304 -0.881558
C37   C     C_R   0.094397 0.431673 0.402945 0.127525
C38   C     C_R   0.046878 0.509660 0.494731 0.058664
C39   C     C_R   0.092583 0.587208 0.587423 0.133874
C40   C     C_R   0.044893 0.663047 0.679300 -0.219471
C41   C     C_R   0.951674 0.660518 0.681098 -0.221391
H1    H     H_    0.775271 0.635006 0.664338 0.144636
H2    H     H_    0.780106 0.380898 0.324106 0.146215
H3    H     H_    0.340510 0.300158 0.142527 0.162284
H4    H     H_    0.921239 0.303166 0.231801 0.146619
H5    H     H_    0.085165 0.298290 0.237445 0.143613
H6    H     H_    0.224175 0.366554 0.340590 0.142755
H7    H     H_    0.221585 0.651387 0.651162 0.141733
H8    H     H_    0.079634 0.722670 0.750750 0.148346
H9    H     H_    0.915388 0.718190 0.753959 0.146199
H10   H     H_    0.324861 0.609626 0.964960 0.226270
H11   H     H_    0.288996 0.544963 0.809700 0.260497
H12   H     H_    0.546299 0.876292 0.282413 0.167494
H13   H     H_    0.222040 0.519108 0.957850 0.229121
H14   H     H_    0.205468 0.160260 0.601177 0.259933
H15   H     H_    0.262187 0.076032 0.731028 0.259409
H16   H     H_    0.157345 0.153480 0.769715 0.269166
H17   H     H_    0.227280 0.359877 0.726415 0.247859
H18   H     H_    0.332830 0.286286 0.681289 0.248730
H19   H     H_    0.342482 0.201553 0.914999 0.175582
H20   H     H_    0.235551 0.266565 0.956452 0.205212
H21   H     H_    0.674825 0.155101 0.005685 0.252981
H22   H     H_    0.619662 0.300697 0.048667 0.266684
H23   H     H_    0.417461 0.891538 0.739798 0.205314
H24   H     H_    0.737722 0.283986 0.077281 0.245917
H25   H     H_    0.652965 0.265111 0.293645 0.241997
H26   H     H_    0.705533 0.119426 0.249122 0.212069
H27   H     H_    0.560755 0.043829 0.150869 0.177998
H28   H     H_    0.505004 0.180187 0.202442 0.217648
H29   H     H_    0.526335 0.892870 0.831662 0.198401
H30   H     H_    0.420485 0.114744 0.734453 0.214493
H31   H     H_    0.528176 0.117700 0.828496 0.205586
H32   H     H_    0.600535 0.639617 0.123520 0.142211
H33   H     H_    0.601325 0.638534 0.871767 0.141615
H34   H     H_    0.321969 0.471761 0.157753 0.238531
N1    N     N_R   0.499390 0.499140 0.142800 -0.094113
N2    N     N_R   0.499390 0.499180 0.857150 -0.107000
O1    O     O_R   0.500010 0.316790 0.614690 -0.620312
O2    O     O_R   0.500000 0.316760 0.385350 -0.621317
O3    O     O_R   0.367850 0.499990 0.614680 -0.639960
O4    O     O_R   0.367840 0.499950 0.385340 -0.618339
O5    O     O_R   0.500000 0.683240 0.614650 -0.618729
O6    O     O_R   0.499990 0.683210 0.385310 -0.622736
O7    O     O_R   0.632160 0.500050 0.614660 -0.618696
O8    O     O_R   0.632150 0.500010 0.385320 -0.629077
Zn1   Zn    Zn3+2 0.500010 0.500020 0.653130 0.936342
Zn2   Zn    Zn3+2 0.499990 0.499980 0.346870 0.934324

loop_
_geom_bond_atom_site_label_1
_geom_bond_atom_site_label_2
_ccdc_geom_bond_type
O6    Zn2   S    
C23   H4    S    
C34   C37   A    
C24   H1    S    
C14   H30   S    
C35   C36   S    
O2    Zn2   S    
C7    C8    A    
C20   C30   S    
C15   C19   A    
C26   C27   A    
C12   C41   A    
C12   C28   A    
C31   H17   S    
O7    Zn1   S    
C4    O3    A    
C30   C31   S    
C13   H29   S    
C40   H8    S    
C22   O8    A    
C31   H18   S    
C19   N2    A    
O3    Zn1   S    
C4    O4    A    
C19   C20   S    
C8    C9    A    
C22   C25   S    
C30   H19   S    
C17   N1    A    
C34   H5    S    
C23   C27   A    
C36   H22   S    
C9    C10   A    
C32   H14   S    
C33   H28   S    
O1    Zn1   S    
C15   N1    A    
C18   H33   S    
C13   C14   S    
C17   H32   S    
C1    O1    A    
C32   H16   S    
C36   H21   S    
C26   H2    S    
C20   C29   S    
O8    Zn2   S    
C5    H7    S    
C24   C25   A    
C10   C11   A    
C39   C40   A    
C36   H24   S    
C35   H25   S    
C25   C26   A    
O5    Zn1   S    
C16   O6    A    
C22   O7    A    
C37   C38   A    
C6    C14   S    
C21   H3    S    
C31   C32   S    
C28   C38   A    
C23   C34   A    
C16   O5    A    
C17   C18   A    
N1    Zn2   S    
O4    Zn2   S    
C40   C41   A    
N2    Zn1   S    
C5    C39   A    
C1    O2    A    
C9    H12   S    
C3    C4    S    
C41   H9    S    
C6    C11   A    
C29   H10   S    
C12   C24   A    
C1    C7    S    
C14   H31   S    
C3    C5    A    
C6    C7    A    
C2    H6    S    
C21   H34   S    
C2    C3    A    
C10   C16   S    
C11   C13   S    
C2    C37   A    
C38   C39   A    
C13   H23   S    
C18   N2    A    
C33   C35   S    
C8    C33   S    
C35   H26   S    
C15   C21   S    
C20   C21   S    
C29   H13   S    
C30   H20   S    
C27   C28   A    
C32   H15   S    
C33   H27   S    
C29   H11   S    
