data_mof_unit_59608.cif
_audit_creation_date              2012-10-26T21:17:39-0400
_audit_creation_method            fapswitch 2.2
_symmetry_space_group_name_H-M    P1
_symmetry_Int_Tables_number       1
_space_group_crystal_system       triclinic
_cell_length_a                    10.824275
_cell_length_b                    9.09212
_cell_length_c                    7.794045
_cell_angle_alpha                 89.930878
_cell_angle_beta                  90.005479
_cell_angle_gamma                 90.00677
_cell_volume                      767.055104276

loop_
_atom_site_label
_atom_site_type_symbol
_atom_type_description
_atom_site_fract_x
_atom_site_fract_y
_atom_site_fract_z
_atom_type_partial_charge
C1    C     C_R   0.500020 0.220035 0.499927 0.664631
C2    C     C_R   0.065704 0.362835 0.585474 -0.018643
C3    C     C_R   0.128656 0.479121 0.500074 0.020367
C4    C     C_R   0.871342 0.479141 0.500149 0.020333
C5    C     C_R   0.063625 0.587127 0.410734 -0.161352
C6    C     C_R   0.936368 0.587129 0.410754 -0.161316
C7    C     C_1   0.500020 0.065360 0.499931 0.035986
C8    C     C_1   0.500014 0.934609 0.499854 -0.024728
C9    C     C_R   0.500005 0.779941 0.499915 0.530777
C10   C     C_R   0.262043 0.492490 0.500125 0.598200
C11   C     C_R   0.737952 0.492478 0.500148 0.598063
C12   C     C_R   0.128823 0.243770 0.665189 0.364031
C13   C     C_R   0.871190 0.243885 0.665507 0.363981
C14   C     C_R   0.063923 0.131619 0.746655 -0.135051
C15   C     C_R   0.936101 0.131693 0.746838 -0.135029
C16   C     C_R   0.934292 0.362871 0.585576 -0.018679
Cu1   Cu    Cu3+1 0.500000 0.500000 0.669080 1.136788
Cu2   Cu    Cu3+1 0.500000 0.500000 0.330920 1.063787
F1    F     F_    0.252947 0.229469 0.660047 -0.641755
F2    F     F_    0.747042 0.229716 0.660764 -0.641635
H1    H     H_    0.111964 0.674500 0.343783 0.130915
H2    H     H_    0.888029 0.674493 0.343805 0.130926
H3    H     H_    0.113383 0.041814 0.806864 0.152503
H4    H     H_    0.886663 0.041957 0.807223 0.152511
N1    N     N_1   0.500000 0.500000 0.076820 -0.077430
N2    N     N_1   0.500000 0.500000 0.923180 -0.065586
O1    O     O_R   0.500000 0.288390 0.642760 -0.398720
O2    O     O_R   0.500000 0.711610 0.642760 -0.511193
O3    O     O_R   0.500000 0.288370 0.357190 -0.509188
O4    O     O_R   0.500000 0.711630 0.357190 -0.511868
O5    O     O_R   0.319650 0.500000 0.642810 -0.462450
O6    O     O_R   0.680350 0.500000 0.642810 -0.462269
O7    O     O_R   0.319630 0.500000 0.357240 -0.513411
O8    O     O_R   0.680370 0.500000 0.357240 -0.513495

loop_
_geom_bond_atom_site_label_1
_geom_bond_atom_site_label_2
_ccdc_geom_bond_type
C14   H3    S    
C4    C16   A    
Cu2   O4    S    
C2    C16   A    
C2    C12   A    
C1    O3    A    
C2    C3    A    
C7    C8    T    
C1    O1    A    
C3    C10   S    
C4    C11   S    
Cu2   O8    S    
Cu2   N1    S    
C9    O4    A    
Cu1   N2    S    
C12   F1    S    
C15   H4    S    
C12   C14   A    
C11   O6    A    
Cu1   Cu2   S    
C10   O7    A    
C13   C15   A    
C5    C6    A    
Cu1   O5    S    
Cu2   O7    S    
Cu1   O1    S    
C5    H1    S    
C4    C6    A    
C13   C16   A    
Cu2   O3    S    
Cu1   O6    S    
C14   C15   A    
C13   F2    S    
N1    N2    T    
C1    C7    S    
Cu1   O2    S    
C10   O5    A    
C11   O8    A    
C9    O2    A    
C8    C9    S    
C3    C5    A    
C6    H2    S    
