data_mof_unit_11258.cif
_audit_creation_date              2012-12-10T18:34:27-0500
_audit_creation_method            fapswitch 2.2
_symmetry_space_group_name_H-M    P1
_symmetry_Int_Tables_number       1
_space_group_crystal_system       triclinic
_cell_length_a                    15.013338
_cell_length_b                    15.407718
_cell_length_c                    15.739059
_cell_angle_alpha                 89.664472
_cell_angle_beta                  104.687194
_cell_angle_gamma                 82.572178
_cell_volume                      3489.42780015

loop_
_atom_site_label
_atom_site_type_symbol
_atom_type_description
_atom_site_fract_x
_atom_site_fract_y
_atom_site_fract_z
_atom_type_partial_charge
C1    C     C_R   0.441952 0.662410 0.485700 0.888189
C2    C     C_R   0.558070 0.337696 0.510298 0.890597
C3    C     C_R   0.290946 0.868323 0.375488 0.463633
C4    C     C_R   0.721683 0.126034 0.528265 0.461359
C5    C     C_R   0.317190 0.781853 0.410768 -0.328346
C6    C     C_R   0.688784 0.215083 0.532696 -0.327824
C7    C     C_R   0.471842 0.813548 0.477386 -0.240711
C8    C     C_R   0.531413 0.188195 0.469582 -0.249339
C9    C     C_R   0.451174 0.897221 0.437506 -0.007329
C10   C     C_R   0.561249 0.099712 0.461534 -0.006777
C11   C     C_R   0.358210 0.927494 0.389694 0.064718
C12   C     C_R   0.657290 0.066882 0.494442 0.065146
C13   C     C_R   0.521360 0.952191 0.447908 0.071481
C14   C     C_R   0.495413 0.042180 0.428749 0.072777
C15   C     C_R   0.404307 0.071879 0.378582 -0.320360
C16   C     C_R   0.616829 0.919537 0.475507 -0.325125
C17   C     C_R   0.336618 0.015612 0.357391 0.213897
C18   C     C_R   0.684721 0.975530 0.495090 0.216305
C19   C     C_R   0.842184 0.638726 0.629464 -0.304842
C20   C     C_R   0.158885 0.358187 0.374227 -0.303377
C21   C     C_R   0.753248 0.615642 0.607601 -0.004437
C22   C     C_R   0.247375 0.382398 0.394570 0.000887
C23   C     C_R   0.501164 0.500179 0.662072 0.899198
C24   C     C_R   0.498826 0.499841 0.337928 0.896951
C25   C     C_R   0.793968 0.510674 0.509742 -0.033740
C26   C     C_R   0.205733 0.490295 0.489438 -0.032065
C27   C     C_R   0.885963 0.531033 0.528670 -0.031210
C28   C     C_R   0.114498 0.468259 0.472644 -0.030798
C29   C     C_R   0.909628 0.596774 0.590324 0.136303
C30   C     C_R   0.091426 0.400817 0.412883 0.135793
C31   C     C_R   0.954445 0.487998 0.489332 0.042800
C32   C     C_R   0.046259 0.510896 0.512593 0.043903
C33   C     C_R   0.067269 0.575214 0.575458 -0.280264
C34   C     C_R   0.934039 0.422176 0.428120 -0.277334
C35   C     C_R   0.000391 0.618449 0.613121 0.207993
C36   C     C_R   0.001326 0.377739 0.391864 0.207165
C37   C     C_3   0.468119 0.582027 0.019586 -0.293992
C38   C     C_3   0.531747 0.418116 0.980413 -0.294578
C39   C     C_3   0.557616 0.557073 0.987384 -0.294779
C40   C     C_3   0.442251 0.443069 0.012614 -0.294558
C41   C     C_1   0.503648 0.500483 0.751626 -0.176205
C42   C     C_1   0.496308 0.499589 0.248378 -0.173861
C43   C     C_3   0.416203 0.524334 0.949634 0.524540
C44   C     C_3   0.583662 0.475808 0.050361 0.524221
C45   C     C_3   0.503597 0.499986 0.917839 0.098846
C46   C     C_3   0.496270 0.500156 0.082156 0.098513
C47   C     C_1   0.504434 0.500398 0.827123 0.016454
C48   C     C_1   0.495476 0.499715 0.172875 0.016235
C49   C     C_R   0.407666 0.754695 0.461131 -0.099616
C50   C     C_R   0.593758 0.245398 0.505558 -0.097236
H1    H     H_    0.606132 0.601915 0.976228 0.163090
H2    H     H_    0.393738 0.398226 0.023779 0.162453
H3    H     H_    0.229791 0.541245 0.532083 0.132372
H4    H     H_    0.768874 0.461926 0.464688 0.132824
H5    H     H_    0.299851 0.349586 0.365380 0.130192
H6    H     H_    0.700943 0.647617 0.637477 0.135923
H7    H     H_    0.857636 0.688677 0.677061 0.179759
H8    H     H_    0.143700 0.306795 0.328256 0.175361
H9    H     H_    0.135583 0.594195 0.597482 0.148437
H10   H     H_    0.866359 0.401645 0.407408 0.149220
H11   H     H_    0.440213 0.648173 0.036327 0.164491
H12   H     H_    0.559656 0.351967 0.963685 0.163413
H13   H     H_    0.458309 0.213050 0.451864 0.168880
H14   H     H_    0.538978 0.792699 0.521976 0.164781
H15   H     H_    0.737371 0.260332 0.559348 0.159784
H16   H     H_    0.267602 0.735301 0.396977 0.160886
H17   H     H_    0.384606 0.138687 0.352683 0.146515
H18   H     H_    0.640706 0.850055 0.478348 0.156237
N1    N     N_R   0.731710 0.552730 0.549140 -0.099798
N2    N     N_R   0.268290 0.447270 0.450860 -0.099423
O1    O     O_R   0.383110 0.605620 0.475230 -0.619094
O2    O     O_R   0.616890 0.394380 0.524770 -0.618488
O3    O     O_R   0.531900 0.639510 0.506760 -0.623426
O4    O     O_R   0.468100 0.360490 0.493240 -0.623536
O5    O     O_R   0.425620 0.483070 0.607460 -0.601771
O6    O     O_R   0.574380 0.516930 0.392540 -0.604068
O7    O     O_R   0.574400 0.516960 0.638990 -0.617758
O8    O     O_R   0.425600 0.483040 0.361010 -0.619612
Zn1   Zn    Zn3+2 0.400660 0.477370 0.478940 0.947697
Zn2   Zn    Zn3+2 0.599340 0.522630 0.521060 0.947071
O9    O     O_3   0.671607 0.450238 0.106791 -0.762221
H19   H     H_    0.714021 0.438640 0.067869 0.323993
O10   O     O_3   0.328256 0.549904 0.893207 -0.762188
H20   H     H_    0.285842 0.561499 0.932130 0.324595
N3    N     N_2   0.246797 0.049655 0.305047 -0.237710
H21   H     H_    0.248695 0.088083 0.251785 0.216571
C51   C     C_3   0.186182 0.092926 0.354576 -0.703052
H22   H     H_    0.116574 0.113464 0.309611 0.241723
H23   H     H_    0.214301 0.151854 0.385147 0.206377
H24   H     H_    0.178533 0.047730 0.406765 0.263850
N4    N     N_2   0.779867 0.938310 0.519225 -0.240794
H25   H     H_    0.792059 0.879896 0.555255 0.209568
C52   C     C_3   0.822833 0.932396 0.446561 -0.687571
H26   H     H_    0.898113 0.908511 0.471451 0.233847
H27   H     H_    0.815251 0.997762 0.413307 0.257637
H28   H     H_    0.790519 0.885852 0.398314 0.213089
O11   O     O_3   0.201384 0.894510 0.325479 -0.751363
H29   H     H_    0.164164 0.845448 0.322930 0.328232
O12   O     O_3   0.815324 0.096029 0.559519 -0.751748
H30   H     H_    0.849709 0.145952 0.580051 0.327468
N5    N     N_2   0.025856 0.683367 0.675451 -0.315350
H31   H     H_    0.091353 0.667803 0.717131 0.244749
C53   C     C_3   0.012033 0.771057 0.636919 -0.786292
H32   H     H_    0.027028 0.818451 0.689852 0.253399
H33   H     H_    0.939018 0.788623 0.598076 0.245930
H34   H     H_    0.059356 0.775879 0.593524 0.241033
N6    N     N_2   0.977115 0.309386 0.333503 -0.318225
H35   H     H_    0.915717 0.326669 0.285981 0.243735
C54   C     C_3   0.978268 0.226626 0.377891 -0.796940
H36   H     H_    0.963308 0.175676 0.328638 0.244858
H37   H     H_    0.924349 0.232093 0.415405 0.246343
H38   H     H_    0.047608 0.206079 0.423644 0.254839

loop_
_geom_bond_atom_site_label_1
_geom_bond_atom_site_label_2
_ccdc_geom_bond_type
C39   H1    S    
C51   H22   S    
C52   H26   S    
C27   C29   A    
C43   O10   S    
O1    Zn1   S    
O11   H29   S    
C20   C30   A    
N3    H21   S    
C19   H7    S    
C40   C46   S    
N5    H31   S    
C17   N3    S    
C18   N4    S    
C19   C21   A    
C54   H37   S    
C24   C42   S    
C15   C17   A    
C9    C13   A    
C38   C45   S    
C2    C50   S    
C6    H15   S    
C31   C32   A    
N6    H35   S    
C16   H18   S    
C4    C12   A    
C2    O4    A    
C39   C45   S    
N3    C51   S    
C33   H9    S    
C13   C14   A    
C36   N6    S    
C34   H10   S    
N6    C54   S    
C5    C49   A    
C2    O2    A    
C44   C46   S    
O9    H19   S    
C45   C47   S    
C37   C39   S    
C46   C48   S    
C27   C31   A    
C28   C32   A    
C25   H4    S    
C7    C49   A    
C4    C6    A    
C44   O9    S    
C10   C14   A    
C54   H38   S    
N4    H25   S    
O8    Zn1   S    
C24   O6    A    
C3    C5    A    
C40   H2    S    
C6    C50   A    
C21   N1    A    
C37   C43   S    
C38   C44   S    
N4    C52   S    
C9    C11   A    
C3    O11   S    
O10   H20   S    
C15   H17   S    
C40   C43   S    
C41   C47   T    
C31   C34   A    
C53   H33   S    
C42   C48   T    
C23   O7    A    
C43   C45   S    
C22   H5    S    
C10   C12   A    
C24   O8    A    
C20   C22   A    
C52   H28   S    
O4    Zn1   S    
C51   H23   S    
C26   N2    A    
C51   H24   S    
C25   N1    A    
C20   H8    S    
C19   C29   A    
C26   H3    S    
C8    C50   A    
N5    C53   S    
O7    Zn2   S    
C7    C9    A    
C11   C17   A    
N2    Zn1   S    
C8    C10   A    
O6    Zn2   S    
C23   O5    A    
C5    H16   S    
C35   N5    S    
C21   H6    S    
C37   H11   S    
C39   C44   S    
C25   C27   A    
C29   C35   A    
C26   C28   A    
C23   C41   S    
O12   H30   S    
C30   C36   A    
C1    O3    A    
C32   C33   A    
C28   C30   A    
C13   C16   A    
O2    Zn2   S    
C54   H36   S    
C38   C40   S    
C52   H27   S    
C1    C49   S    
C1    O1    A    
C33   C35   A    
O3    Zn2   S    
C53   H34   S    
C34   C36   A    
C7    H14   S    
C3    C11   A    
C8    H13   S    
C16   C18   A    
C4    O12   S    
C12   C18   A    
C53   H32   S    
C14   C15   A    
N1    Zn2   S    
C37   C46   S    
O5    Zn1   S    
C22   N2    A    
C38   H12   S    
