data_mof_unit_28769.cif
_audit_creation_date              2012-12-11T17:04:41-0500
_audit_creation_method            fapswitch 2.2
_symmetry_space_group_name_H-M    P1
_symmetry_Int_Tables_number       1
_space_group_crystal_system       triclinic
_cell_length_a                    17.396197
_cell_length_b                    24.321523
_cell_length_c                    14.909469
_cell_angle_alpha                 90.048025
_cell_angle_beta                  125.250853
_cell_angle_gamma                 90.077097
_cell_volume                      5151.49074381

loop_
_atom_site_label
_atom_site_type_symbol
_atom_type_description
_atom_site_fract_x
_atom_site_fract_y
_atom_site_fract_z
_atom_type_partial_charge
C1    C     C_R   0.852242 0.652394 0.906078 -0.152691
C2    C     C_R   0.935634 0.502487 0.632815 0.101698
C3    C     C_R   0.761509 0.047630 0.295684 -0.139776
C4    C     C_R   0.815245 0.370871 0.909900 -0.119897
C5    C     C_R   0.183340 0.369862 0.087659 -0.122877
C6    C     C_R   0.316516 0.869801 0.912381 -0.122616
C7    C     C_R   0.684629 0.870946 0.090140 -0.119761
C8    C     C_R   0.942218 0.653486 0.088631 -0.107190
C9    C     C_R   0.060788 0.652346 0.910511 -0.115136
C10   C     C_R   0.439106 0.152281 0.089715 -0.115785
C11   C     C_R   0.557685 0.153544 0.911623 -0.106536
C12   C     C_R   0.881537 0.684776 0.996044 0.083294
C13   C     C_R   0.564532 0.002673 0.367264 0.101622
C14   C     C_R   0.122537 0.683671 0.003205 0.071418
C15   C     C_R   0.377158 0.183461 0.997126 0.070611
C16   C     C_R   0.618169 0.184967 0.004332 0.083745
C17   C     C_3   0.964966 0.697387 0.372886 -0.289162
C18   C     C_3   0.099534 0.642777 0.666611 -0.249324
C19   C     C_3   0.400629 0.142541 0.333771 -0.249595
C20   C     C_3   0.535052 0.197467 0.627640 -0.289585
C21   C     C_R   0.540966 0.003287 0.714912 0.063045
C22   C     C_R   0.689971 0.500426 0.645691 0.041910
C23   C     C_R   0.325082 0.502103 0.297710 0.039879
C24   C     C_R   0.174873 0.000683 0.704069 0.039656
C25   C     C_R   0.811140 0.001968 0.352804 0.042542
C26   C     C_3   0.535466 0.449140 0.495810 -0.172916
C27   C     C_3   0.500257 0.471561 0.381180 -0.149005
C28   C     C_3   0.013935 0.949506 0.571403 -0.170408
C29   C     C_R   0.149724 0.652111 0.093472 -0.155925
C30   C     C_3   0.980892 0.970433 0.456997 -0.147750
C31   C     C_3   0.457695 0.480496 0.493525 -0.147267
C32   C     C_3   0.564808 0.522816 0.434236 -0.147629
C33   C     C_3   0.934497 0.981754 0.565274 -0.147929
C34   C     C_3   0.043905 0.021576 0.507168 -0.141211
C35   C     C_3   0.423906 0.502885 0.380579 0.184665
C36   C     C_3   0.597478 0.500300 0.546643 0.186076
C37   C     C_3   0.903366 0.002599 0.452361 0.184790
C38   C     C_3   0.076135 0.000778 0.620554 0.183930
C39   C     C_3   0.485904 0.554098 0.431089 -0.168595
C40   C     C_R   0.350091 0.151933 0.906708 -0.155801
C41   C     C_3   0.520562 0.531554 0.545027 -0.142966
C42   C     C_3   0.965442 0.053877 0.501789 -0.167456
C43   C     C_3   0.999158 0.033060 0.616957 -0.149621
C44   C     C_R   0.768690 0.307566 0.107100 0.164205
C45   C     C_R   0.229885 0.308183 0.891252 0.167046
C46   C     C_R   0.269628 0.808741 0.109010 0.167379
C47   C     C_R   0.731084 0.807164 0.893241 0.163728
C48   C     C_R   0.749813 0.326288 0.007396 0.041175
C49   C     C_R   0.251728 0.330167 0.990126 0.038848
C50   C     C_R   0.247955 0.830384 0.010047 0.038246
C51   C     C_R   0.647576 0.152556 0.094123 -0.152261
C52   C     C_R   0.750000 0.826186 0.992847 0.041469
C53   C     C_R   0.661077 0.314163 0.910480 -0.199137
C54   C     C_R   0.339566 0.317166 0.087435 -0.205676
C55   C     C_R   0.160031 0.817223 0.912802 -0.202156
C56   C     C_R   0.838563 0.814131 0.089886 -0.199936
C57   C     C_R   0.910994 0.367654 0.093134 -0.142400
C58   C     C_R   0.093648 0.375381 0.904435 -0.138106
C59   C     C_R   0.406319 0.875434 0.095571 -0.138039
C60   C     C_R   0.589061 0.867734 0.906826 -0.142606
C61   C     C_R   0.109258 0.772308 0.911699 -0.210204
C62   C     C_R   0.822429 0.353249 0.003059 0.072760
C63   C     C_R   0.892989 0.772125 0.089346 -0.193998
C64   C     C_R   0.606413 0.272271 0.911175 -0.194731
C65   C     C_R   0.390136 0.272187 0.088672 -0.208955
C66   C     C_R   0.146605 0.741431 0.008122 0.034962
C67   C     C_R   0.858051 0.742531 0.991836 0.032920
C68   C     C_R   0.641381 0.242829 0.008688 0.032395
C69   C     C_R   0.352755 0.241105 0.992296 0.035564
C70   C     C_R   0.219340 0.764733 0.108051 0.158697
C71   C     C_R   0.784968 0.765976 0.892630 0.157396
C72   C     C_R   0.714576 0.266477 0.107858 0.158416
C73   C     C_R   0.179863 0.358007 0.994263 0.067966
C74   C     C_R   0.279986 0.264133 0.892334 0.156975
C75   C     C_3   0.305406 0.739327 0.206595 -0.524561
C76   C     C_3   0.701577 0.740695 0.790439 -0.518516
C77   C     C_3   0.797836 0.241422 0.210131 -0.520231
C78   C     C_3   0.193765 0.238435 0.794032 -0.521645
C79   C     C_3   0.856850 0.286153 0.208906 -0.528832
C80   C     C_3   0.138977 0.286586 0.793063 -0.521961
C81   C     C_3   0.360396 0.787422 0.207443 -0.521777
C82   C     C_3   0.642806 0.785551 0.791496 -0.528672
C83   C     C_R   0.901255 0.554906 0.471334 -0.085309
C84   C     C_R   0.319985 0.858043 0.005789 0.068490
C85   C     C_R   0.904277 0.555340 0.381277 0.034825
C86   C     C_R   0.595737 0.055576 0.618855 0.034480
C87   C     C_R   0.598852 0.055169 0.528863 -0.081756
C88   C     C_R   0.900592 0.505026 0.517795 0.086314
C89   C     C_R   0.911410 0.505621 0.339145 0.041217
C90   C     C_R   0.588556 0.005827 0.660808 0.041093
C91   C     C_R   0.599582 0.005306 0.482295 0.087138
C92   C     C_R   0.879525 0.456674 0.455645 -0.197871
C93   C     C_R   0.885191 0.456960 0.365910 -0.164795
C94   C     C_R   0.614800 0.957241 0.633930 -0.163573
C95   C     C_R   0.677497 0.853323 0.996984 0.072391
C96   C     C_R   0.620613 0.957000 0.544298 -0.202140
C97   C     C_3   0.962071 0.607017 0.417962 0.328917
C98   C     C_3   0.960991 0.605776 0.519024 0.330883
C99   C     C_3   0.539139 0.105886 0.481275 0.329710
C100  C     C_3   0.537963 0.107113 0.582273 0.328734
C101  C     C_R   0.981886 0.547882 0.248567 -0.159352
C102  C     C_R   0.950690 0.547332 0.697209 -0.016105
C103  C     C_R   0.549413 0.047447 0.302871 -0.016010
C104  C     C_R   0.518077 0.047943 0.751414 -0.159717
C105  C     C_R   0.740033 0.454546 0.701937 -0.142313
C106  C     C_R   0.959037 0.503198 0.285086 0.063093
C107  C     C_R   0.270346 0.455615 0.268477 -0.147570
C108  C     C_R   0.230178 0.954875 0.732007 -0.132522
C109  C     C_R   0.760773 0.955429 0.298396 -0.158735
C110  C     C_R   0.993295 0.456674 0.264900 -0.117468
C111  C     C_R   0.950037 0.455980 0.694258 -0.172339
C112  C     C_R   0.550071 0.956105 0.305766 -0.172973
C113  C     C_R   0.506785 0.956692 0.735167 -0.117142
C114  C     C_R   0.739031 0.546712 0.702129 -0.157443
C115  C     C_R   0.269297 0.547858 0.261186 -0.129003
C116  C     C_R   0.230183 0.047045 0.739815 -0.144804
H1    H     H_    0.819610 0.665802 0.822540 0.098069
H2    H     H_    0.531226 0.555896 0.614459 0.116473
H3    H     H_    0.944202 0.096677 0.471699 0.109689
H4    H     H_    0.010190 0.058380 0.685480 0.116987
H5    H     H_    0.638789 0.331663 0.832326 0.120681
H6    H     H_    0.363420 0.336688 0.164676 0.122860
H7    H     H_    0.136280 0.836512 0.835502 0.122966
H8    H     H_    0.860882 0.831825 0.167999 0.119412
H9    H     H_    0.048415 0.758258 0.833547 0.119905
H10   H     H_    0.954467 0.758518 0.167167 0.117161
H11   H     H_    0.544789 0.258553 0.833395 0.117270
H12   H     H_    0.182756 0.666307 0.176717 0.098778
H13   H     H_    0.450940 0.258313 0.166838 0.119866
H14   H     H_    0.325751 0.699755 0.188324 0.202753
H15   H     H_    0.681768 0.699510 0.803497 0.204837
H16   H     H_    0.817511 0.200171 0.197278 0.205440
H17   H     H_    0.173440 0.198938 0.812644 0.202534
H18   H     H_    0.302540 0.738701 0.279180 0.187878
H19   H     H_    0.706558 0.743600 0.719524 0.187284
H20   H     H_    0.792876 0.244594 0.281040 0.187076
H21   H     H_    0.196468 0.237538 0.721338 0.187805
H22   H     H_    0.908231 0.269389 0.194319 0.200844
H23   H     H_    0.316838 0.166041 0.823459 0.098945
H24   H     H_    0.087758 0.274305 0.811351 0.200869
H25   H     H_    0.411686 0.774993 0.189409 0.200881
H26   H     H_    0.591298 0.768980 0.806128 0.200794
H27   H     H_    0.886378 0.315001 0.279435 0.185868
H28   H     H_    0.110142 0.313289 0.719792 0.192238
H29   H     H_    0.389211 0.814374 0.280554 0.192534
H30   H     H_    0.613490 0.814207 0.720898 0.185929
H31   H     H_    0.870821 0.417609 0.483352 0.116168
H32   H     H_    0.880953 0.418178 0.327639 0.115636
H33   H     H_    0.618981 0.918459 0.672039 0.115627
H34   H     H_    0.679995 0.166035 0.177663 0.097406
H35   H     H_    0.629387 0.917965 0.516528 0.115899
H36   H     H_    0.943641 0.356321 0.176647 0.098358
H37   H     H_    0.067614 0.373737 0.819162 0.112232
H38   H     H_    0.432414 0.873909 0.180846 0.112411
H39   H     H_    0.556572 0.856395 0.823261 0.098415
H40   H     H_    0.033140 0.601165 0.435433 0.055863
H41   H     H_    0.922235 0.640226 0.525704 0.044139
H42   H     H_    0.577936 0.140433 0.474749 0.044734
H43   H     H_    0.466858 0.101084 0.564694 0.055554
H44   H     H_    0.964548 0.590312 0.248037 0.145829
H45   H     H_    0.557158 0.406113 0.523835 0.103049
H46   H     H_    0.930057 0.589308 0.670649 0.076129
H47   H     H_    0.570037 0.089487 0.329469 0.076488
H48   H     H_    0.535381 0.090414 0.751959 0.146017
H49   H     H_    0.725316 0.412452 0.673307 0.086336
H50   H     H_    0.294637 0.414687 0.299797 0.090141
H51   H     H_    0.207063 0.913845 0.700196 0.084208
H52   H     H_    0.776753 0.913620 0.328412 0.094115
H53   H     H_    0.997326 0.416136 0.295861 0.083259
H54   H     H_    0.930972 0.414238 0.664322 0.090910
H55   H     H_    0.569167 0.914426 0.335658 0.090777
H56   H     H_    0.488299 0.447318 0.311025 0.114264
H57   H     H_    0.502839 0.916111 0.704273 0.083325
H58   H     H_    0.722560 0.589033 0.675322 0.096402
H59   H     H_    0.290283 0.590567 0.277664 0.092704
H60   H     H_    0.207990 0.089520 0.722981 0.100605
H61   H     H_    0.777087 0.090210 0.321082 0.088053
H62   H     H_    0.756791 0.365300 0.825330 0.090515
H63   H     H_    0.237160 0.357311 0.170114 0.085187
H64   H     H_    0.262537 0.857118 0.829963 0.083871
H65   H     H_    0.742912 0.865438 0.174778 0.090416
H66   H     H_    0.988434 0.668357 0.171993 0.082825
H67   H     H_    0.035463 0.906816 0.602171 0.101492
H68   H     H_    0.016213 0.666577 0.826621 0.078165
H69   H     H_    0.483590 0.166598 0.173675 0.078384
H70   H     H_    0.511396 0.168326 0.828337 0.082551
H71   H     H_    0.411606 0.463382 0.515827 0.114030
H72   H     H_    0.612259 0.539808 0.413896 0.116109
H73   H     H_    0.886174 0.965694 0.585088 0.115279
H74   H     H_    0.091060 0.037762 0.485660 0.115486
H75   H     H_    0.024953 0.688997 0.367304 0.121642
H76   H     H_    0.990595 0.713090 0.455765 0.129493
H77   H     H_    0.921882 0.730298 0.312980 0.180459
H78   H     H_    0.971015 0.944983 0.389163 0.111403
H79   H     H_    0.059889 0.669125 0.687794 0.118415
H80   H     H_    0.115443 0.665640 0.614634 0.123752
H81   H     H_    0.167620 0.632349 0.744558 0.183283
H82   H     H_    0.440314 0.169030 0.312771 0.118546
H83   H     H_    0.384647 0.165319 0.385786 0.123846
H84   H     H_    0.332581 0.131947 0.255738 0.183133
H85   H     H_    0.475031 0.188909 0.633132 0.121595
H86   H     H_    0.509471 0.213122 0.544831 0.129473
H87   H     H_    0.578117 0.230479 0.687680 0.180318
H88   H     H_    0.463786 0.597028 0.402569 0.110227
N1    N     N_R   0.892620 0.603790 0.941770 -0.038021
N2    N     N_R   0.973690 0.529110 0.793240 -0.052853
N3    N     N_R   0.526310 0.029110 0.206760 -0.053179
N4    N     N_R   0.473690 0.029110 0.793240 -0.044032
N5    N     N_R   0.818570 0.472310 0.793020 -0.035366
N6    N     N_R   0.181430 0.472310 0.206980 -0.037181
N7    N     N_R   0.318570 0.972310 0.793020 -0.037977
N8    N     N_R   0.681430 0.972310 0.206980 -0.034531
N9    N     N_R   0.026930 0.472300 0.207330 -0.039746
N10   N     N_R   0.973070 0.472300 0.792670 -0.041142
N11   N     N_R   0.526930 0.972300 0.207330 -0.040877
N12   N     N_R   0.107380 0.603790 0.058230 -0.037555
N13   N     N_R   0.473070 0.972300 0.792670 -0.039840
N14   N     N_R   0.817960 0.529130 0.792460 -0.036981
N15   N     N_R   0.182040 0.529130 0.207540 -0.039443
N16   N     N_R   0.317960 0.029130 0.792460 -0.038917
N17   N     N_R   0.682040 0.029130 0.207540 -0.038077
N18   N     N_R   0.894850 0.397640 0.943830 -0.041200
N19   N     N_R   0.105150 0.397640 0.056170 -0.039977
N20   N     N_R   0.394850 0.897640 0.943830 -0.040393
N21   N     N_R   0.605150 0.897640 0.056170 -0.040729
N22   N     N_R   0.950040 0.603780 0.055950 -0.042244
N23   N     N_R   0.392620 0.103790 0.941770 -0.037059
N24   N     N_R   0.049960 0.603780 0.944050 -0.038526
N25   N     N_R   0.450040 0.103780 0.055950 -0.038568
N26   N     N_R   0.549960 0.103780 0.944050 -0.042139
N27   N     N_R   0.607380 0.103790 0.058230 -0.038262
N28   N     N_R   0.952270 0.397640 0.058010 -0.040357
N29   N     N_R   0.047730 0.397640 0.941990 -0.040798
N30   N     N_R   0.452270 0.897640 0.058010 -0.040716
N31   N     N_R   0.547730 0.897640 0.941990 -0.040438
N32   N     N_R   0.026310 0.529110 0.206760 -0.044013
Ni1   Ni    Ni4+2 0.934160 0.565860 0.869070 0.204122
Ni2   Ni    Ni4+2 0.065840 0.565860 0.130930 0.206550
Ni3   Ni    Ni4+2 0.434160 0.065860 0.869070 0.205897
Ni4   Ni    Ni4+2 0.565840 0.065860 0.130930 0.204382
Ni5   Ni    Ni4+2 0.067260 0.435560 0.132230 0.212621
Ni6   Ni    Ni4+2 0.932740 0.435560 0.867770 0.210228
Ni7   Ni    Ni4+2 0.567260 0.935560 0.132230 0.210180
Ni8   Ni    Ni4+2 0.432740 0.935560 0.867770 0.213132
O1    O     O_3   0.907811 0.650516 0.345860 -0.607590
O2    O     O_3   0.050943 0.593544 0.615057 -0.609509
O3    O     O_3   0.449218 0.093430 0.385150 -0.609706
O4    O     O_3   0.592207 0.150745 0.654537 -0.607307

loop_
_geom_bond_atom_site_label_1
_geom_bond_atom_site_label_2
_ccdc_geom_bond_type
C57   H36   S    
N22   Ni2   S    
C87   C91   A    
C11   H70   S    
C17   H77   S    
C38   C43   S    
C34   C42   S    
C111  N10   A    
C82   H26   S    
C58   N29   A    
C97   C98   S    
N18   Ni6   S    
C75   H18   S    
C19   O3    S    
C57   C62   A    
C39   C41   S    
C54   C65   A    
C30   H78   S    
C17   H75   S    
C94   H33   S    
N7    N16   A    
C1    C12   A    
C43   H4    S    
C19   H84   S    
N12   N24   A    
C52   C95   S    
N5    N14   A    
C56   H8    S    
N15   Ni2   S    
C109  H52   S    
C28   H67   S    
C103  N3    A    
C20   H85   S    
C98   O2    S    
N8    Ni7   S    
C10   C15   A    
C97   O1    S    
C71   C76   S    
C76   H15   S    
C78   C80   S    
C42   H3    S    
C47   C82   S    
C112  H55   S    
C2    C102  A    
C49   C54   A    
C40   H23   S    
C4    C62   A    
C101  C106  A    
C10   H69   S    
C105  N5    A    
C93   H32   S    
C33   H73   S    
C112  N11   A    
C37   C42   S    
N20   N30   A    
C5    H63   S    
C94   C96   A    
C115  H59   S    
N19   N29   A    
C25   C37   S    
C91   C96   A    
C21   C104  A    
C61   C66   A    
C76   H19   S    
C79   H27   S    
C88   C92   A    
C101  H44   S    
N32   Ni2   S    
C80   H28   S    
C83   C98   S    
C89   C106  S    
C67   C71   A    
C24   C38   S    
C16   C51   A    
N16   Ni3   S    
C2    C88   S    
C16   C68   S    
C77   H20   S    
C17   O1    S    
C41   H2    S    
C116  N16   A    
C109  N8    A    
C86   C100  S    
C6    N20   A    
C97   H40   S    
C75   H14   S    
C8    C12   A    
N30   Ni7   S    
N8    N17   A    
C6    H64   S    
N2    N10   A    
C81   H25   S    
C83   C88   A    
C54   H6    S    
C107  H50   S    
N18   N28   A    
C26   C31   S    
C3    N17   A    
C39   H88   S    
C13   C91   S    
C92   H31   S    
C5    C73   A    
C115  N15   A    
C36   C41   S    
N26   N27   A    
C60   N31   A    
C114  N14   A    
N4    Ni3   S    
C113  N13   A    
C82   H30   S    
C59   H38   S    
C90   C94   A    
C114  H58   S    
C87   C99   S    
C21   C90   S    
C77   C79   S    
C17   H76   S    
C14   C66   S    
C48   C53   A    
C15   C69   S    
C12   C67   S    
C63   C67   A    
C2    C111  A    
C6    C84   A    
C30   C34   S    
N17   Ni4   S    
C51   N27   A    
N28   Ni5   S    
C33   C43   S    
C3    C25   A    
C7    H65   S    
C59   C84   A    
N6    Ni5   S    
C21   C113  A    
C86   C90   A    
C76   C82   S    
C107  N6    A    
C57   N28   A    
C32   H72   S    
C86   C87   A    
N20   Ni8   S    
C29   N12   A    
C7    N21   A    
C27   C35   S    
N2    Ni1   S    
C80   H24   S    
C96   H35   S    
C18   H80   S    
N29   Ni6   S    
C50   C84   S    
C10   N25   A    
C33   C37   S    
N6    N15   A    
C30   C37   S    
C45   C74   A    
C77   H16   S    
N21   N31   A    
C35   C39   S    
C9    C14   A    
C110  H53   S    
C72   C77   S    
C100  O4    S    
C58   H37   S    
C103  H47   S    
C46   C81   S    
C11   C16   A    
C18   O2    S    
C48   C62   S    
C99   C100  S    
C98   H41   S    
C28   C38   S    
C68   C72   A    
C64   H11   S    
C23   C107  A    
N31   Ni8   S    
C110  N9    A    
C101  N32   A    
N3    N11   A    
C45   C49   A    
C26   C27   S    
C56   C63   A    
C69   C74   A    
C4    N18   A    
C1    H1    S    
C13   C112  A    
N25   Ni4   S    
N1    Ni1   S    
C102  N2    A    
C34   H74   S    
C47   C71   A    
N3    Ni4   S    
C24   C108  A    
C116  H60   S    
C26   C36   S    
N23   N25   A    
C108  H51   S    
C28   C33   S    
C24   C116  A    
C11   N26   A    
C81   H29   S    
N1    N22   A    
C49   C73   S    
C99   H42   S    
C59   N30   A    
C13   C103  A    
C42   C43   S    
C14   C29   A    
C99   O3    S    
N9    N32   A    
C78   H21   S    
C64   C68   A    
N23   Ni3   S    
C108  N7    A    
C1    N1    A    
C102  H46   S    
C113  H57   S    
C106  C110  A    
C8    H66   S    
N4    N13   A    
C19   H82   S    
C85   C89   A    
C31   C41   S    
C26   H45   S    
C5    N19   A    
C18   H79   S    
C34   C38   S    
N11   Ni7   S    
N7    Ni8   S    
C44   C79   S    
C75   C81   S    
C20   H87   S    
C4    H62   S    
C55   H7    S    
N5    Ni6   S    
C104  H48   S    
C65   H13   S    
C7    C95   A    
C32   C36   S    
C47   C52   A    
C25   C109  A    
C51   H34   S    
N21   Ni7   S    
C22   C105  A    
C22   C36   S    
C9    N24   A    
C46   C50   A    
C18   H81   S    
C19   H83   S    
C50   C55   A    
N10   Ni6   S    
C111  H54   S    
N12   Ni2   S    
C46   C70   A    
C40   N23   A    
N9    Ni5   S    
C3    H61   S    
C60   H39   S    
C20   H86   S    
N24   Ni1   S    
C9    H68   S    
C53   H5    S    
C100  H43   S    
C66   C70   A    
N19   Ni5   S    
C65   C69   A    
C55   C61   A    
C28   C30   S    
C92   C93   A    
C53   C64   A    
C105  H49   S    
C44   C72   A    
C45   C80   S    
C31   C35   S    
C104  N4    A    
C89   C93   A    
C83   C85   A    
C78   H17   S    
C15   C40   A    
N13   Ni8   S    
C63   H10   S    
C85   C97   S    
C27   C32   S    
C23   C115  A    
C23   C35   S    
C60   C95   A    
C44   C48   A    
C8    N22   A    
C22   C114  A    
C79   H22   S    
C74   C78   S    
C29   H12   S    
C31   H71   S    
C70   C75   S    
C32   C39   S    
N27   Ni4   S    
C61   H9    S    
N14   Ni1   S    
C20   O4    S    
C27   H56   S    
C52   C56   A    
C58   C73   A    
N26   Ni3   S    
