data_mof_unit_62675.cif
_audit_creation_date              2012-12-10T19:01:39-0500
_audit_creation_method            fapswitch 2.2
_symmetry_space_group_name_H-M    P1
_symmetry_Int_Tables_number       1
_space_group_crystal_system       triclinic
_cell_length_a                    14.256503
_cell_length_b                    13.39385
_cell_length_c                    10.630215
_cell_angle_alpha                 90.305505
_cell_angle_beta                  90.000991
_cell_angle_gamma                 90.002562
_cell_volume                      2029.80498538

loop_
_atom_site_label
_atom_site_type_symbol
_atom_type_description
_atom_site_fract_x
_atom_site_fract_y
_atom_site_fract_z
_atom_type_partial_charge
C1    C     C_R   0.326595 0.499998 0.499977 0.930516
C2    C     C_3   0.576646 0.454128 0.957842 0.599487
C3    C     C_3   0.499339 0.594379 0.961340 0.639588
C4    C     C_3   0.500661 0.405620 0.038660 0.639588
C5    C     C_3   0.422064 0.451700 0.957883 -0.480093
C6    C     C_3   0.577936 0.548300 0.042117 -0.480092
C7    C     C_3   0.499270 0.500883 0.878374 -0.416532
C8    C     C_3   0.500730 0.499117 0.121626 -0.416532
C9    C     C_1   0.500000 0.169477 0.499997 0.151110
C10   C     C_1   0.500000 0.830523 0.500003 0.151110
C11   C     C_1   0.225937 0.499996 0.499977 -0.164667
C12   C     C_R   0.673405 0.500002 0.500022 0.930516
C13   C     C_1   0.774063 0.500004 0.500023 -0.164667
C14   C     C_1   0.141359 0.499997 0.499982 0.027793
C15   C     C_1   0.858641 0.500003 0.500018 0.027793
C16   C     C_1   0.042287 0.499999 0.499994 0.043863
C17   C     C_1   0.957713 0.500001 0.500006 0.043863
C18   C     C_1   0.500000 0.049520 0.499999 -0.003102
C19   C     C_1   0.500000 0.950480 0.500001 -0.003102
C20   C     C_R   0.500166 0.499666 0.254363 1.055191
C21   C     C_R   0.499834 0.500334 0.745637 1.055192
C22   C     C_3   0.423354 0.545872 0.042158 0.599487
F1    F     F_    0.345392 0.594069 0.090439 -0.609346
F2    F     F_    0.654608 0.405931 0.909561 -0.609346
F3    F     F_    0.497161 0.691423 0.917683 -0.596970
F4    F     F_    0.502839 0.308577 0.082317 -0.596970
H1    H     H_    0.359137 0.412917 0.920236 0.218697
H2    H     H_    0.640862 0.587083 0.079764 0.218697
N1    N     N_1   0.500000 0.261870 0.500000 -0.051029
N2    N     N_1   0.500000 0.738130 0.500000 -0.051029
O1    O     O_R   0.373710 0.576470 0.500000 -0.593068
O2    O     O_R   0.626290 0.423530 0.500000 -0.593068
O3    O     O_R   0.626290 0.576470 0.500000 -0.612283
O4    O     O_R   0.373710 0.423530 0.500000 -0.612283
O5    O     O_R   0.499980 0.576440 0.313950 -0.602249
O6    O     O_R   0.500020 0.423560 0.686050 -0.602249
O7    O     O_R   0.500020 0.576440 0.686050 -0.582041
O8    O     O_R   0.499980 0.423560 0.313950 -0.582041
Zn1   Zn    Zn3+2 0.500000 0.602090 0.500000 1.045132
Zn2   Zn    Zn3+2 0.500000 0.397910 0.500000 1.045132

loop_
_geom_bond_atom_site_label_1
_geom_bond_atom_site_label_2
_ccdc_geom_bond_type
C1    O4    A    
C8    C22   S    
C20   O8    A    
C10   N2    T    
C2    C4    S    
C2    C7    S    
C1    C11   S    
C9    N1    T    
C10   C19   S    
C4    C8    S    
C3    C6    S    
O2    Zn2   S    
O7    Zn1   S    
C21   O6    A    
O3    Zn1   S    
C12   O2    A    
O8    Zn2   S    
C2    C6    S    
C8    C20   S    
O4    Zn2   S    
N1    Zn2   S    
O1    Zn1   S    
N2    Zn1   S    
C3    C7    S    
C13   C15   T    
C1    O1    A    
C2    F2    S    
O5    Zn1   S    
C11   C14   T    
C14   C16   S    
C4    F4    S    
C9    C18   S    
O6    Zn2   S    
C3    F3    S    
C21   O7    A    
C12   C13   S    
C5    C7    S    
C18   C19   T    
C7    C21   S    
C15   C17   S    
C22   F1    S    
C16   C17   T    
C3    C22   S    
C6    C8    S    
C12   O3    A    
C5    H1    S    
C20   O5    A    
C6    H2    S    
C5    C22   S    
C4    C5    S    
