data_mof_unit_67096.cif
_audit_creation_date              2012-12-11T17:44:21-0500
_audit_creation_method            fapswitch 2.2
_symmetry_space_group_name_H-M    P1
_symmetry_Int_Tables_number       1
_space_group_crystal_system       triclinic
_cell_length_a                    8.391834
_cell_length_b                    13.336148
_cell_length_c                    15.058359
_cell_angle_alpha                 96.817013
_cell_angle_beta                  97.819308
_cell_angle_gamma                 99.928823
_cell_volume                      1627.03406383

loop_
_atom_site_label
_atom_site_type_symbol
_atom_type_description
_atom_site_fract_x
_atom_site_fract_y
_atom_site_fract_z
_atom_type_partial_charge
Ba1   Ba    Ba6+2 0.843760 0.550230 0.455610 1.848572
Ba2   Ba    Ba6+2 0.346080 0.449860 0.544400 1.883498
C1    C     C_3   0.609549 0.850531 0.101560 -0.209135
C2    C     C_3   0.593660 0.788573 0.179701 0.701485
C3    C     C_3   0.461231 0.306800 0.274565 0.304887
C4    C     C_3   0.426520 0.284369 0.171460 -0.295048
C5    C     C_3   0.126643 0.148954 0.805815 0.854704
C6    C     C_3   0.205198 0.084401 0.869811 0.285087
C7    C     C_3   0.634499 0.188959 0.759348 0.347452
C8    C     C_3   0.637164 0.091531 0.801342 -0.289383
C9    C     C_R   0.361220 0.548983 0.165938 -0.019184
C10   C     C_R   0.104286 0.461891 0.202562 -0.028784
C11   C     C_R   0.921750 0.474260 0.763474 -0.082761
C12   C     C_3   0.060980 0.728620 0.200208 0.457459
C13   C     C_R   0.822252 0.438429 0.825029 0.047559
C14   C     C_R   0.883496 0.449032 0.917261 -0.081476
C15   C     C_R   0.048829 0.493837 0.951174 0.097648
C16   C     C_R   0.145354 0.538642 0.888643 0.007157
C17   C     C_R   0.121370 0.494867 0.044570 0.050333
C18   C     C_R   0.292284 0.537628 0.072115 -0.046402
C19   C     C_R   0.384526 0.569844 0.004767 0.364148
C20   C     C_R   0.308198 0.582310 0.920520 -0.072601
C21   C     C_R   0.031401 0.453446 0.111038 -0.093864
C22   C     C_R   0.265169 0.513601 0.228626 -0.291558
C23   C     C_3   0.013653 0.727087 0.098302 0.411808
C24   C     C_R   0.080093 0.530625 0.793546 0.154004
C25   C     C_R   0.757000 0.173313 0.543199 -0.171067
C26   C     C_R   0.439312 0.805091 0.446946 -0.157954
C27   C     C_R   0.420834 0.968872 0.393896 0.350227
C28   C     C_R   0.345428 0.868142 0.403350 0.000664
C29   C     C_R   0.592495 0.844632 0.500664 0.123287
C30   C     C_R   0.654154 0.955680 0.509443 0.044579
C31   C     C_R   0.560788 0.020527 0.459915 0.004744
C32   C     C_R   0.610665 0.132750 0.481526 -0.023149
C33   C     C_R   0.861608 0.111557 0.580387 0.009677
C34   C     C_3   0.350829 0.788893 0.732318 0.638243
C35   C     C_R   0.806207 0.003548 0.565524 -0.036545
C36   C     C_3   0.424821 0.848963 0.825461 -0.227826
C37   C     C_3   0.014898 0.208444 0.268650 0.677622
C38   C     C_3   0.959872 0.133737 0.180463 -0.203824
C39   C     C_3   0.839815 0.781687 0.738063 0.687844
C40   C     C_3   0.918335 0.880955 0.797931 -0.173958
H1    H     H_    0.419986 0.797298 0.877658 0.096292
H2    H     H_    0.552672 0.887155 0.825930 0.106714
H3    H     H_    0.354571 0.906612 0.846573 0.099821
H4    H     H_    0.142200 0.246639 0.271840 -0.105468
H5    H     H_    0.891536 0.169639 0.128297 0.080559
H6    H     H_    0.878928 0.062180 0.190053 0.188584
H7    H     H_    0.068101 0.116308 0.152286 0.186348
H8    H     H_    0.930495 0.753541 0.699769 0.022623
H9    H     H_    0.734905 0.895970 0.108885 0.181781
H10   H     H_    0.030435 0.869244 0.840243 0.166136
H11   H     H_    0.833456 0.908030 0.841370 0.165407
H12   H     H_    0.945894 0.940765 0.754699 0.048531
H13   H     H_    0.461177 0.762069 0.179552 -0.038469
H14   H     H_    0.522916 0.904225 0.099763 0.151245
H15   H     H_    0.369654 0.347333 0.301427 -0.050350
H16   H     H_    0.578819 0.358952 0.294071 0.105568
H17   H     H_    0.307707 0.230986 0.148188 0.149198
H18   H     H_    0.422131 0.356140 0.142045 0.107442
H19   H     H_    0.525181 0.249044 0.145926 0.132953
H20   H     H_    0.580972 0.798252 0.036028 0.124856
H21   H     H_    0.884415 0.689727 0.077107 0.087984
H22   H     H_    0.993110 0.118253 0.787235 -0.357582
H23   H     H_    0.199294 0.009119 0.833145 0.021962
H24   H     H_    0.336882 0.117013 0.894066 0.080284
H25   H     H_    0.763396 0.223801 0.755317 -0.142845
H26   H     H_    0.563046 0.168313 0.689779 0.076134
H27   H     H_    0.700418 0.108989 0.872577 0.120684
H28   H     H_    0.700815 0.039849 0.761845 0.107030
H29   H     H_    0.982862 0.659893 0.217553 -0.013775
H30   H     H_    0.509508 0.052715 0.800432 0.144451
H31   H     H_    0.319693 0.522443 0.299200 0.044244
H32   H     H_    0.905342 0.414542 0.094043 0.104941
H33   H     H_    0.871608 0.463819 0.692170 0.033516
H34   H     H_    0.800673 0.417772 0.960098 0.109670
H35   H     H_    0.384844 0.615699 0.876316 0.161899
H36   H     H_    0.885228 0.957085 0.596062 0.100403
H37   H     H_    0.798026 0.255980 0.556409 0.029249
H38   H     H_    0.190262 0.718489 0.214090 -0.152138
H39   H     H_    0.385178 0.725034 0.445557 0.038957
H40   H     H_    0.087271 0.680126 0.062632 -0.203725
H41   H     H_    0.437020 0.743843 0.706277 0.061308
O1    O     O_2   0.827930 0.435360 0.277760 -0.454416
O2    O     O_3   0.703179 0.799607 0.684963 -0.685779
O3    O     O_3   0.036350 0.818847 0.251429 -0.486840
O4    O     O_2   0.361790 0.564680 0.722290 -0.437265
O5    O     O_3   0.089410 0.561080 0.608830 -0.520254
O6    O     O_3   0.564100 0.365890 0.666740 -0.492891
O7    O     O_3   0.203381 0.728233 0.739837 -0.701651
O8    O     O_3   0.601940 0.368260 0.453780 -0.514648
O9    O     O_3   0.133140 0.308990 0.620990 -0.411620
O10   O     O_2   0.180216 0.129874 0.561072 -0.350082
O11   O     O_3   0.204565 0.149833 0.728426 -0.596813
O12   O     O_3   0.100310 0.439010 0.391180 -0.470464
O13   O     O_3   0.587770 0.631830 0.546230 -0.470672
O14   O     O_2   0.332600 0.233710 0.456170 -0.378468
O15   O     O_3   0.466633 0.214223 0.309255 -0.562013
O16   O     O_2   0.485346 0.438614 0.820806 -0.318504
O17   O     O_3   0.558420 0.254564 0.812332 -0.569922
O18   O     O_3   0.625610 0.634200 0.333270 -0.480939
O19   O     O_2   0.673337 0.521400 0.185150 -0.437365
O20   O     O_3   0.905199 0.274921 0.270957 -0.652738
O21   O     O_3   0.673455 0.706319 0.166784 -0.588158
O22   O     O_2   0.857120 0.766320 0.543890 -0.495120
O23   O     O_3   0.056570 0.691100 0.379020 -0.510063
O24   O     O_2   0.013625 0.877218 0.420872 -0.330566
P1    P     P_3+3 0.998770 0.403620 0.291990 0.990177
P2    P     P_3+3 0.687370 0.751000 0.571300 1.022163
P3    P     P_3+3 0.118208 0.817984 0.364320 1.217458
P4    P     P_3+3 0.190950 0.596470 0.708020 0.981007
P5    P     P_3+3 0.083252 0.175471 0.630577 1.147289
P6    P     P_3+3 0.577820 0.604144 0.214573 1.000456
P7    P     P_3+3 0.507675 0.234814 0.427457 1.040861
P8    P     P_3+3 0.607911 0.377439 0.783286 1.156717
Cl1   Cl    Cl    0.691747 0.864718 0.283788 -0.571175
S1    S     S_3+6 0.994069 0.149105 0.366231 -0.011029
O25   O     O_2   0.102900 0.074489 0.386433 -0.216038
O26   O     O_2   0.020690 0.235026 0.443509 -0.332675
O27   O     O_3   0.803805 0.087162 0.353615 -0.470598
H42   H     H_    0.744894 0.144135 0.345922 0.342404
S2    S     S_3+6 0.770259 0.689953 0.804696 -0.112967
O28   O     O_2   0.689702 0.594356 0.741341 -0.342259
O29   O     O_2   0.649498 0.724052 0.859814 -0.331500
O30   O     O_3   0.930219 0.674044 0.875915 -0.606660
H43   H     H_    0.880642 0.647292 0.926110 0.376245
S3    S     S_3+6 0.161531 0.273510 0.867564 -0.074327
O31   O     O_2   0.330201 0.303159 0.922683 -0.252039
O32   O     O_2   0.143809 0.344469 0.799666 -0.382964
O33   O     O_3   0.024177 0.276546 0.938574 -0.532389
H44   H     H_    0.917342 0.245238 0.901234 0.317614
Cl2   Cl    Cl    0.103565 0.070753 0.965394 -0.598044
Cl3   Cl    Cl    0.592421 0.565826 0.005716 -0.675720
S4    S     S_3+6 0.386704 0.993859 0.278368 -0.016521
O34   O     O_2   0.328814 0.893582 0.218700 -0.318386
O35   O     O_2   0.255284 0.054629 0.262979 -0.239884
O36   O     O_3   0.548378 0.050014 0.236399 -0.494298
H45   H     H_    0.502959 0.065746 0.176520 0.364526
S5    S     S_3+6 0.043532 0.847513 0.057173 0.021467
O37   O     O_2   0.900544 0.848543 0.986516 -0.273550
O38   O     O_2   0.051909 0.934840 0.130187 -0.175491
O39   O     O_3   0.217070 0.863884 0.012159 -0.479351
H46   H     H_    0.206339 0.801202 0.967753 0.320480
S6    S     S_3+6 0.301681 0.872360 0.653953 -0.141479
O40   O     O_2   0.181976 0.935181 0.682889 -0.348644
O41   O     O_2   0.452517 0.943264 0.641125 -0.393041
O42   O     O_3   0.212614 0.797941 0.557191 -0.559851
H47   H     H_    0.138676 0.740014 0.573949 0.348670

loop_
_geom_bond_atom_site_label_1
_geom_bond_atom_site_label_2
_ccdc_geom_bond_type
C38   H5    S    
O6    P8    S    
C6    H24   S    
O18   P6    S    
C39   C40   S    
C17   C18   A    
C16   C24   A    
S4    O36   S    
S3    O32   D    
C5    C6    S    
Ba1   O1    S    
C10   C21   A    
C3    H16   S    
C28   P3    S    
C4    H19   S    
Ba2   O12   S    
C23   S5    S    
C25   H37   S    
S1    O26   D    
C40   H11   S    
C23   H21   S    
C3    C4    S    
S5    O39   S    
C22   H31   S    
O15   P7    S    
O4    P4    D    
C34   H41   S    
C13   C14   A    
C27   C31   A    
C9    C22   A    
Ba1   Ba2   S    
C12   H29   S    
O11   P5    S    
C36   H3    S    
O42   H47   S    
Ba1   P2    S    
O5    P4    S    
C11   H33   S    
Ba2   O14   S    
C14   C15   A    
C6    Cl2   S    
Ba2   O5    S    
O20   P1    S    
C12   H38   S    
C7    C8    S    
Ba1   O23   S    
Ba1   O5    S    
C27   S4    S    
C6    H23   S    
Ba1   O8    S    
C14   H34   S    
C19   C20   A    
O17   P8    S    
O7    P4    S    
S6    O42   S    
C19   Cl3   S    
C15   C16   A    
C25   C32   A    
Ba2   P4    S    
C9    C18   A    
C4    H18   S    
C12   O3    S    
S6    O41   D    
S1    O27   S    
C37   C38   S    
C10   P1    S    
C1    H9    S    
O9    P5    S    
S4    O35   D    
O3    P3    S    
C25   C33   A    
C37   S1    S    
C1    C2    S    
C39   S2    S    
Ba2   O6    S    
C17   C21   A    
C7    H25   S    
C36   H2    S    
C27   C28   A    
C1    H14   S    
C29   C30   A    
Ba1   O12   S    
C31   C32   A    
C29   P2    S    
Ba2   O4    S    
C30   C35   A    
C18   C19   A    
Ba2   O9    S    
O13   P2    S    
C37   H4    S    
C8    H28   S    
C7    O17   S    
C11   C13   A    
C2    H13   S    
O30   H43   S    
Ba1   P1    S    
O24   P3    D    
C13   P8    S    
C11   C24   A    
C21   H32   S    
S2    O29   D    
S3    O31   D    
Ba1   O18   S    
C39   H8    S    
O27   H42   S    
O23   P3    S    
C1    H20   S    
C34   O7    S    
C38   H6    S    
C5    O11   S    
O22   P2    D    
C33   C35   A    
C26   H39   S    
C16   C20   A    
C4    H17   S    
C2    Cl1   S    
C26   C29   A    
C20   H35   S    
S6    O40   D    
S5    O37   D    
C37   O20   S    
S4    O34   D    
C32   P7    S    
C39   O2    S    
O36   H45   S    
C10   C22   A    
O2    P2    S    
O8    P7    S    
C3    H15   S    
C30   C31   A    
S2    O30   S    
Ba2   O13   S    
O33   H44   S    
C34   S6    S    
C7    H26   S    
C36   H1    S    
O19   P6    D    
S1    O25   D    
C40   H12   S    
O16   P8    D    
S5    O38   D    
C23   H40   S    
Ba1   O13   S    
C2    O21   S    
C34   C36   S    
C15   C17   A    
C26   C28   A    
C12   C23   S    
Ba2   O8    S    
C9    P6    S    
C5    H22   S    
S3    O33   S    
O12   P1    S    
O10   P5    D    
O21   P6    S    
C8    H27   S    
O1    P1    D    
C3    O15   S    
C40   H10   S    
S2    O28   D    
O39   H46   S    
C5    S3    S    
O14   P7    D    
C35   H36   S    
C24   P4    S    
C33   P5    S    
C38   H7    S    
Ba1   O22   S    
C8    H30   S    
