data_mof_unit_21351.cif
_audit_creation_date              2012-12-10T18:05:46-0500
_audit_creation_method            fapswitch 2.2
_symmetry_space_group_name_H-M    P1
_symmetry_Int_Tables_number       1
_space_group_crystal_system       triclinic
_cell_length_a                    25.942934
_cell_length_b                    25.901006
_cell_length_c                    22.148016
_cell_angle_alpha                 90.085962
_cell_angle_beta                  54.241291
_cell_angle_gamma                 90.168726
_cell_volume                      12076.7266984

loop_
_atom_site_label
_atom_site_type_symbol
_atom_type_description
_atom_site_fract_x
_atom_site_fract_y
_atom_site_fract_z
_atom_type_partial_charge
C1    C     C_R   0.400289 0.249911 0.699410 0.809766
C2    C     C_3   0.242407 0.705734 0.975207 0.373960
C3    C     C_3   0.240921 0.205140 0.976477 0.373943
C4    C     C_3   0.731568 0.289242 0.976189 0.373217
C5    C     C_3   0.266693 0.711629 0.023965 0.373505
C6    C     C_3   0.258643 0.294335 0.023707 0.374317
C7    C     C_3   0.741437 0.705540 0.976478 0.374059
C8    C     C_3   0.688046 0.243713 0.024157 -0.070955
C9    C     C_3   0.310482 0.757040 0.976056 -0.070468
C10   C     C_3   0.311302 0.254042 0.976291 -0.073773
C11   C     C_3   0.688957 0.745955 0.023977 -0.073137
C12   C     C_3   0.187765 0.744270 0.024055 -0.070563
C13   C     C_3   0.234427 0.289397 0.974772 0.374566
C14   C     C_3   0.810714 0.257078 0.976058 -0.070924
C15   C     C_3   0.812121 0.754154 0.976079 -0.071231
C16   C     C_3   0.188239 0.245431 0.023935 -0.071885
C17   C     C_1   0.639214 0.249909 0.221312 -0.157431
C18   C     C_1   0.360228 0.750550 0.778741 -0.157526
C19   C     C_1   0.360588 0.249513 0.778730 -0.147200
C20   C     C_1   0.639556 0.750508 0.221329 -0.149301
C21   C     C_1   0.139074 0.750043 0.221288 -0.155895
C22   C     C_1   0.860310 0.250446 0.778763 -0.156580
C23   C     C_1   0.860828 0.749681 0.778706 -0.154323
C24   C     C_3   0.765773 0.710286 0.025317 0.373821
C25   C     C_1   0.139237 0.250309 0.221352 -0.149912
C26   C     C_3   0.546242 0.440922 0.332627 0.133821
C27   C     C_3   0.588477 0.411804 0.259573 -0.786828
C28   C     C_3   0.355386 0.551327 0.656200 0.159958
C29   C     C_3   0.314137 0.583559 0.726356 -0.782440
C30   C     C_3   0.453688 0.441259 0.667270 0.145797
C31   C     C_3   0.411428 0.412114 0.740347 -0.806534
C32   C     C_3   0.644315 0.551858 0.342906 0.163365
C33   C     C_3   0.685378 0.583611 0.272130 -0.785851
C34   C     C_3   0.046668 0.940916 0.332504 0.133856
C35   C     C_3   0.255839 0.795565 0.024887 0.374085
C36   C     C_3   0.089015 0.911783 0.259482 -0.786480
C37   C     C_3   0.855068 0.051275 0.655561 0.161378
C38   C     C_3   0.813551 0.083803 0.725342 -0.785511
C39   C     C_3   0.953249 0.941249 0.667416 0.145614
C40   C     C_3   0.910921 0.912008 0.740396 -0.803868
C41   C     C_3   0.144593 0.051826 0.343387 0.164370
C42   C     C_3   0.185872 0.083701 0.272777 -0.786887
C43   C     C_3   0.617873 0.236308 0.056100 -0.390736
C44   C     C_3   0.607789 0.231239 0.994919 -0.824140
C45   C     C_3   0.380632 0.764235 0.944318 -0.394956
C46   C     C_3   0.742912 0.205363 0.975272 0.374218
C47   C     C_3   0.390566 0.769011 0.005646 -0.814610
C48   C     C_3   0.381601 0.258522 0.945089 -0.385302
C49   C     C_3   0.391081 0.262791 0.006849 -0.822500
C50   C     C_3   0.618548 0.741630 0.055556 -0.388606
C51   C     C_3   0.608713 0.737525 0.994079 -0.818861
C52   C     C_3   0.117569 0.737216 0.055919 -0.391904
C53   C     C_3   0.107519 0.732385 0.994686 -0.822046
C54   C     C_3   0.880838 0.264577 0.944276 -0.393569
C55   C     C_3   0.890777 0.269597 0.005579 -0.815816
C56   C     C_3   0.882566 0.758395 0.944368 -0.391576
C57   C     C_3   0.735281 0.789835 0.974789 0.374399
C58   C     C_3   0.892542 0.762489 0.005729 -0.821156
C59   C     C_3   0.117847 0.240869 0.055514 -0.392070
C60   C     C_3   0.108019 0.236619 0.994045 -0.817848
C61   C     C_3   0.168225 0.860932 0.998520 0.107255
C62   C     C_3   0.174104 0.914234 0.966222 -0.860830
C63   C     C_3   0.830883 0.140560 0.001668 0.108891
C64   C     C_3   0.825286 0.087371 0.034113 -0.858435
C65   C     C_3   0.807649 0.875208 0.000404 0.108528
C66   C     C_3   0.791026 0.929662 0.032178 -0.863296
C67   C     C_3   0.193175 0.124374 0.999708 0.110693
C68   C     C_3   0.265110 0.210086 0.025448 0.373930
C69   C     C_3   0.210106 0.069856 0.968190 -0.863858
C70   C     C_3   0.667655 0.360144 0.998898 0.107168
C71   C     C_3   0.673136 0.413455 0.966829 -0.860355
C72   C     C_3   0.330034 0.640367 0.001523 0.108960
C73   C     C_3   0.324174 0.587067 0.033816 -0.857572
C74   C     C_3   0.306474 0.375074 0.000367 0.107492
C75   C     C_3   0.289675 0.429593 0.031877 -0.857922
C76   C     C_3   0.693263 0.624947 0.999970 0.110029
C77   C     C_3   0.709913 0.570381 0.968612 -0.860856
C78   C     C_3   0.199285 0.623267 0.995299 0.112697
C79   C     C_3   0.712315 0.249921 0.073551 -0.133438
C80   C     C_3   0.218563 0.569641 0.960866 -0.867817
C81   C     C_3   0.798146 0.378196 0.005159 0.114154
C82   C     C_3   0.777757 0.431760 0.039638 -0.864527
C83   C     C_3   0.824279 0.636411 0.006729 0.110913
C84   C     C_3   0.815176 0.583808 0.042257 -0.866915
C85   C     C_3   0.175440 0.363029 0.993785 0.111069
C86   C     C_3   0.184455 0.415847 0.958825 -0.854279
C87   C     C_3   0.700228 0.122713 0.995489 0.111985
C88   C     C_3   0.719863 0.069068 0.961185 -0.868534
C89   C     C_3   0.298650 0.878150 0.005072 0.113762
C90   C     C_3   0.286266 0.751105 0.926558 -0.132988
C91   C     C_3   0.278501 0.931760 0.039444 -0.864823
C92   C     C_3   0.323818 0.136385 0.007067 0.110461
C93   C     C_3   0.314758 0.083797 0.042615 -0.867297
C94   C     C_3   0.676534 0.863659 0.993945 0.110929
C95   C     C_3   0.685745 0.916544 0.959077 -0.855506
C96   C     C_3   0.392649 0.214818 0.327835 0.122943
C97   C     C_3   0.457916 0.222900 0.255134 -0.828560
C98   C     C_3   0.606394 0.780496 0.673911 0.120188
C99   C     C_3   0.541078 0.770670 0.745766 -0.822923
C100  C     C_3   0.626011 0.182580 0.661049 0.069334
C101  C     C_3   0.287156 0.249080 0.926601 -0.134384
C102  C     C_3   0.592860 0.143541 0.642894 -0.763670
C103  C     C_3   0.392793 0.688920 0.353865 0.099163
C104  C     C_3   0.460324 0.686292 0.283387 -0.820848
C105  C     C_3   0.893208 0.720554 0.325986 0.120228
C106  C     C_3   0.958754 0.730476 0.254534 -0.827497
C107  C     C_3   0.108503 0.287809 0.670750 0.142274
C108  C     C_3   0.044214 0.280552 0.745032 -0.825912
C109  C     C_3   0.111218 0.701896 0.666273 0.122618
C110  C     C_3   0.045715 0.704715 0.739958 -0.825258
C111  C     C_3   0.897211 0.200209 0.344742 0.112941
C112  C     C_R   0.599749 0.750115 0.300610 0.808674
C113  C     C_3   0.713252 0.750734 0.073507 -0.133461
C114  C     C_3   0.962318 0.202307 0.270432 -0.828848
C115  C     C_3   0.265218 0.275610 0.360727 -0.352290
C116  C     C_3   0.239585 0.329802 0.366712 -0.872693
C117  C     C_3   0.736026 0.720490 0.637381 -0.352812
C118  C     C_3   0.762548 0.666208 0.628126 -0.878098
C119  C     C_3   0.731117 0.257676 0.643690 -0.351341
C120  C     C_3   0.751152 0.311872 0.649799 -0.859502
C121  C     C_3   0.268329 0.739142 0.355708 -0.318603
C122  C     C_3   0.244142 0.687531 0.347422 -0.905976
C123  C     C_3   0.763252 0.781815 0.363994 -0.351712
C124  C     C_3   0.212023 0.750185 0.073507 -0.133900
C125  C     C_3   0.736786 0.836412 0.375139 -0.879800
C126  C     C_3   0.234595 0.219267 0.637394 -0.317608
C127  C     C_3   0.210859 0.163460 0.653658 -0.850976
C128  C     C_3   0.232915 0.767387 0.641861 -0.346150
C129  C     C_3   0.255913 0.821834 0.641337 -0.862487
C130  C     C_3   0.769858 0.251781 0.353977 -0.306434
C131  C     C_3   0.749785 0.201778 0.336030 -0.894429
C132  C     C_3   0.610973 0.057626 0.378282 -0.396142
C133  C     C_3   0.654674 0.072525 0.400660 -0.913608
C134  C     C_3   0.390118 0.942512 0.625950 -0.386976
C135  C     C_3   0.786483 0.250859 0.926599 -0.133289
C136  C     C_3   0.333782 0.941412 0.621121 -0.875996
C137  C     C_3   0.390629 0.058964 0.624162 -0.391842
C138  C     C_3   0.352505 0.086062 0.600707 -0.875012
C139  C     C_3   0.610937 0.942250 0.379077 -0.406332
C140  C     C_3   0.608223 0.932511 0.312853 -0.828213
C141  C     C_3   0.119876 0.558593 0.430400 -0.378155
C142  C     C_3   0.138477 0.565983 0.483864 -0.878773
C143  C     C_3   0.879451 0.440927 0.575298 -0.381190
C144  C     C_3   0.854405 0.433194 0.528287 -0.812225
C145  C     C_3   0.880355 0.556705 0.559424 -0.365505
C146  C     C_3   0.787799 0.749391 0.926548 -0.134078
C147  C     C_3   0.873130 0.568324 0.496822 -0.844417
C148  C     C_3   0.121058 0.443377 0.423903 -0.421509
C149  C     C_3   0.143796 0.432052 0.344187 -0.866325
C150  C     C_3   0.212424 0.250421 0.073561 -0.133855
C151  C     C_1   0.672315 0.249849 0.154602 0.089422
C152  C     C_1   0.326662 0.750940 0.845470 0.087961
C153  C     C_1   0.327364 0.249119 0.845482 0.088407
C154  C     C_1   0.672941 0.750814 0.154597 0.089028
C155  C     C_1   0.172075 0.750061 0.154571 0.090481
C156  C     C_R   0.599711 0.249965 0.300560 0.809500
C157  C     C_1   0.826809 0.250757 0.845501 0.087305
C158  C     C_1   0.827802 0.749373 0.845446 0.089810
C159  C     C_1   0.172330 0.250537 0.154631 0.090276
C160  C     C_R   0.311168 0.255103 0.432555 0.397842
C161  C     C_R   0.689043 0.743036 0.567235 0.386934
C162  C     C_R   0.689890 0.240575 0.565902 0.425611
C163  C     C_R   0.311548 0.743529 0.432793 0.390830
C164  C     C_R   0.810692 0.757513 0.433144 0.385339
C165  C     C_R   0.189036 0.245672 0.567353 0.407707
C166  C     C_R   0.188966 0.749239 0.567318 0.379800
C167  C     C_R   0.400215 0.750089 0.699460 0.824610
C168  C     C_R   0.812211 0.248762 0.431813 0.386145
C169  C     C_R   0.257401 0.259686 0.432018 -0.009161
C170  C     C_R   0.743044 0.738535 0.567300 -0.006762
C171  C     C_R   0.742132 0.248567 0.568642 -0.026448
C172  C     C_R   0.258512 0.743917 0.430518 -0.007766
C173  C     C_R   0.756636 0.762321 0.433250 -0.007627
C174  C     C_R   0.242779 0.239461 0.567485 -0.012865
C175  C     C_R   0.242154 0.754502 0.568752 -0.006304
C176  C     C_R   0.759266 0.249612 0.429454 -0.016700
C177  C     C_R   0.196622 0.252189 0.499378 -0.224472
C178  C     C_R   0.900335 0.749946 0.699402 0.808246
C179  C     C_R   0.803462 0.748338 0.500458 -0.213021
C180  C     C_R   0.803516 0.249947 0.500843 -0.212973
C181  C     C_R   0.197155 0.747651 0.498491 -0.217709
C182  C     C_R   0.696363 0.751884 0.499813 -0.216036
C183  C     C_R   0.303479 0.247920 0.500522 -0.237620
C184  C     C_R   0.303321 0.749996 0.501108 -0.213810
C185  C     C_R   0.697730 0.246686 0.497558 -0.214175
C186  C     C_R   0.553172 0.027200 0.440218 0.100350
C187  C     C_R   0.446435 0.972858 0.561419 0.094504
C188  C     C_R   0.446415 0.027593 0.560635 0.106171
C189  C     C_R   0.099695 0.250077 0.300619 0.810108
C190  C     C_R   0.553124 0.972654 0.440736 0.107911
C191  C     C_R   0.058018 0.527779 0.466714 0.105967
C192  C     C_R   0.941432 0.472163 0.534216 0.092220
C193  C     C_R   0.941417 0.526754 0.530844 0.100712
C194  C     C_R   0.058513 0.473239 0.465659 0.113897
C195  C     C_R   0.499573 0.946245 0.500892 -0.120848
C196  C     C_R   0.499815 0.053812 0.499965 -0.102666
C197  C     C_R   0.000213 0.446229 0.500220 -0.117833
C198  C     C_R   0.999446 0.553778 0.499575 -0.117608
C199  C     C_R   0.640690 0.249245 0.499120 0.902705
C200  C     C_R   0.099685 0.749993 0.300551 0.808549
C201  C     C_R   0.359510 0.750398 0.500826 0.883659
C202  C     C_R   0.359760 0.249513 0.500203 0.887612
C203  C     C_R   0.640099 0.750248 0.500081 0.918453
C204  C     C_R   0.140463 0.749553 0.499478 0.912106
C205  C     C_R   0.859501 0.250453 0.500873 0.878857
C206  C     C_R   0.859852 0.749768 0.499989 0.912765
C207  C     C_R   0.140231 0.250403 0.499857 0.913024
C208  C     C_R   0.500366 0.109975 0.499661 0.853327
C209  C     C_R   0.499522 0.890043 0.500474 0.818677
C210  C     C_R   0.999033 0.609963 0.500637 0.827357
C211  C     C_R   0.900229 0.250069 0.699468 0.826355
C212  C     C_R   0.000930 0.390029 0.499287 0.825094
C213  C     C_R   0.500053 0.390095 0.499958 0.915227
C214  C     C_R   0.499936 0.609777 0.499952 0.956069
C215  C     C_R   0.000054 0.890094 0.499963 0.914936
C216  C     C_R   0.999937 0.109776 0.499956 0.954639
C217  C     C_R   0.539939 0.472849 0.432456 0.303484
C218  C     C_R   0.457355 0.526690 0.566797 0.296124
C219  C     C_R   0.460098 0.472806 0.567314 0.300026
C220  C     C_R   0.542461 0.526783 0.432918 0.291738
C221  C     C_R   0.040093 0.972848 0.432498 0.303855
C222  C     C_3   0.755844 0.295415 0.024930 0.374167
C223  C     C_R   0.957181 0.026682 0.566743 0.296161
C224  C     C_R   0.959943 0.972804 0.567290 0.299976
C225  C     C_R   0.042630 0.026777 0.432982 0.291894
C226  C     C_R   0.499874 0.553592 0.499879 -0.345500
C227  C     C_R   0.500102 0.446070 0.499905 -0.349643
C228  C     C_R   0.999874 0.053589 0.499885 -0.345533
C229  C     C_R   0.000104 0.946067 0.499914 -0.349352
C230  C     C_3   0.231582 0.789674 0.976090 0.372992
C231  C     C_3   0.767203 0.211548 0.023992 0.373386
C232  C     C_3   0.759632 0.794568 0.023608 0.373915
H1    H     H_    0.535198 0.479364 0.320329 0.159402
H2    H     H_    0.316935 0.568247 0.771185 0.257055
H3    H     H_    0.208157 0.066921 0.919523 0.264333
H4    H     H_    0.666606 0.365009 0.049520 0.168988
H5    H     H_    0.621782 0.343118 0.015773 0.152966
H6    H     H_    0.670970 0.410287 0.918338 0.263041
H7    H     H_    0.633460 0.438220 0.009764 0.205987
H8    H     H_    0.718825 0.431838 0.948602 0.258673
H9    H     H_    0.376033 0.657187 0.984537 0.153347
H10   H     H_    0.330984 0.635508 0.950969 0.170732
H11   H     H_    0.278470 0.568823 0.051829 0.258035
H12   H     H_    0.363814 0.562184 0.991081 0.207314
H13   H     H_    0.464649 0.479841 0.679550 0.162875
H14   H     H_    0.326109 0.590216 0.082476 0.262722
H15   H     H_    0.307181 0.374309 0.949666 0.169898
H16   H     H_    0.354992 0.366560 0.983723 0.152448
H17   H     H_    0.291824 0.432506 0.080403 0.264692
H18   H     H_    0.323832 0.457587 0.988688 0.207551
H19   H     H_    0.241024 0.439618 0.049903 0.256493
H20   H     H_    0.644773 0.633549 0.016575 0.152603
H21   H     H_    0.692547 0.625726 0.050674 0.169514
H22   H     H_    0.758483 0.560234 0.950764 0.255599
H23   H     H_    0.675607 0.542470 0.011830 0.207970
H24   H     H_    0.498626 0.419137 0.630792 0.107630
H25   H     H_    0.707869 0.567461 0.920014 0.264265
H26   H     H_    0.150018 0.630269 0.013506 0.151558
H27   H     H_    0.199642 0.623456 0.045262 0.170416
H28   H     H_    0.268200 0.561348 0.940693 0.257342
H29   H     H_    0.186660 0.540212 0.003030 0.209820
H30   H     H_    0.215016 0.567111 0.913344 0.262666
H31   H     H_    0.798230 0.377613 0.954892 0.169034
H32   H     H_    0.847403 0.371832 0.987393 0.151434
H33   H     H_    0.780511 0.434649 0.087725 0.267691
H34   H     H_    0.809483 0.461382 0.997730 0.208252
H35   H     H_    0.400238 0.373121 0.729938 0.267248
H36   H     H_    0.728188 0.439465 0.059091 0.254331
H37   H     H_    0.871336 0.651497 0.988532 0.151838
H38   H     H_    0.824631 0.630926 0.956681 0.170205
H39   H     H_    0.768300 0.567347 0.061579 0.258019
H40   H     H_    0.853125 0.557096 0.001039 0.207218
H41   H     H_    0.817487 0.587547 0.090594 0.263933
H42   H     H_    0.174776 0.368224 0.044089 0.171014
H43   H     H_    0.128523 0.347892 0.011534 0.153300
H44   H     H_    0.182178 0.412447 0.910435 0.265925
H45   H     H_    0.146431 0.442397 0.000317 0.205913
H46   H     H_    0.366433 0.433567 0.778406 0.258422
H47   H     H_    0.231280 0.432297 0.939721 0.256822
H48   H     H_    0.650932 0.129432 0.013624 0.151402
H49   H     H_    0.700524 0.123140 0.045494 0.169721
H50   H     H_    0.769553 0.061057 0.941035 0.257707
H51   H     H_    0.688153 0.039612 0.003431 0.209234
H52   H     H_    0.716330 0.066263 0.913672 0.262556
H53   H     H_    0.298853 0.877640 0.954723 0.168213
H54   H     H_    0.347834 0.871592 0.987448 0.151294
H55   H     H_    0.281154 0.934572 0.087611 0.268072
H56   H     H_    0.310434 0.961294 0.997514 0.207501
H57   H     H_    0.436173 0.407872 0.767396 0.188710
H58   H     H_    0.229010 0.939664 0.058754 0.254371
H59   H     H_    0.370776 0.151577 0.989084 0.151182
H60   H     H_    0.324369 0.130847 0.956891 0.169408
H61   H     H_    0.267991 0.067220 0.061710 0.258131
H62   H     H_    0.352858 0.057149 0.001482 0.206684
H63   H     H_    0.316848 0.087597 0.091106 0.264111
H64   H     H_    0.675903 0.868697 0.044250 0.170313
H65   H     H_    0.629555 0.848693 0.011676 0.153475
H66   H     H_    0.683519 0.913301 0.910636 0.266026
H67   H     H_    0.647778 0.943118 0.000598 0.205686
H68   H     H_    0.662934 0.511721 0.330305 0.174748
H69   H     H_    0.732601 0.932865 0.940071 0.256977
H70   H     H_    0.359981 0.200585 0.314303 0.111788
H71   H     H_    0.396441 0.184202 0.360172 0.171062
H72   H     H_    0.491957 0.236768 0.266568 0.270217
H73   H     H_    0.475573 0.185949 0.223977 0.199619
H74   H     H_    0.455035 0.251913 0.220336 0.243662
H75   H     H_    0.602135 0.811887 0.642893 0.169554
H76   H     H_    0.638379 0.794339 0.688665 0.115690
H77   H     H_    0.544323 0.740798 0.779332 0.245144
H78   H     H_    0.522347 0.806838 0.778751 0.198224
H79   H     H_    0.648921 0.568389 0.386029 0.138260
H80   H     H_    0.507711 0.757154 0.733097 0.269494
H81   H     H_    0.597292 0.186537 0.722516 0.151895
H82   H     H_    0.672776 0.166343 0.643052 0.113039
H83   H     H_    0.622240 0.135912 0.582119 0.244456
H84   H     H_    0.586274 0.106614 0.672054 0.181887
H85   H     H_    0.545476 0.158172 0.661624 0.285590
H86   H     H_    0.362005 0.664480 0.345739 0.139114
H87   H     H_    0.392746 0.672795 0.400473 0.116325
H88   H     H_    0.492481 0.709853 0.290119 0.258916
H89   H     H_    0.477060 0.645669 0.272104 0.200023
H90   H     H_    0.735592 0.582813 0.253075 0.192211
H91   H     H_    0.461933 0.701211 0.235314 0.250385
H92   H     H_    0.861370 0.707334 0.310703 0.115119
H93   H     H_    0.897082 0.688749 0.356810 0.167119
H94   H     H_    0.991935 0.743494 0.267737 0.268393
H95   H     H_    0.977448 0.694472 0.221144 0.199957
H96   H     H_    0.955901 0.760755 0.221140 0.243824
H97   H     H_    0.103483 0.317368 0.638203 0.164693
H98   H     H_    0.142278 0.303251 0.681786 0.112071
H99   H     H_    0.048289 0.252387 0.779805 0.248121
H100  H     H_    0.027322 0.317974 0.775027 0.197874
H101  H     H_    0.668819 0.624258 0.282750 0.282621
H102  H     H_    0.008951 0.265996 0.735930 0.268039
H103  H     H_    0.145256 0.687726 0.677623 0.109107
H104  H     H_    0.109582 0.673120 0.630074 0.163366
H105  H     H_    0.010307 0.718276 0.730687 0.275823
H106  H     H_    0.031313 0.665925 0.766231 0.197159
H107  H     H_    0.046556 0.731936 0.778180 0.243102
H108  H     H_    0.865811 0.175441 0.337962 0.134211
H109  H     H_    0.902592 0.182127 0.386319 0.115912
H110  H     H_    0.995116 0.226450 0.275365 0.264373
H111  H     H_    0.982200 0.162757 0.253143 0.197482
H112  H     H_    0.501342 0.418598 0.369188 0.111858
H113  H     H_    0.682655 0.567431 0.227581 0.252748
H114  H     H_    0.958353 0.219111 0.227190 0.250426
H115  H     H_    0.187258 0.330998 0.407517 0.243482
H116  H     H_    0.261547 0.357892 0.383422 0.265678
H117  H     H_    0.251540 0.341476 0.311680 0.245596
H118  H     H_    0.315734 0.276383 0.312161 0.237196
H119  H     H_    0.241678 0.247388 0.346453 0.215135
H120  H     H_    0.739210 0.638790 0.612452 0.268939
H121  H     H_    0.814547 0.665465 0.585111 0.250458
H122  H     H_    0.753169 0.653251 0.681487 0.246473
H123  H     H_    0.759598 0.747924 0.652587 0.215742
H124  H     H_    0.035682 0.979354 0.320128 0.159419
H125  H     H_    0.685661 0.718876 0.686244 0.238866
H126  H     H_    0.803371 0.316889 0.611774 0.241690
H127  H     H_    0.727767 0.341299 0.636997 0.258445
H128  H     H_    0.736402 0.318364 0.707446 0.248229
H129  H     H_    0.680229 0.254234 0.690616 0.222991
H130  H     H_    0.755812 0.228129 0.654223 0.220388
H131  H     H_    0.265410 0.654854 0.358027 0.244262
H132  H     H_    0.191704 0.684641 0.386212 0.248877
H133  H     H_    0.257679 0.683973 0.289873 0.257993
H134  H     H_    0.245193 0.771590 0.347604 0.230197
H135  H     H_    0.001750 0.918596 0.368973 0.111971
H136  H     H_    0.319285 0.742353 0.308565 0.239943
H137  H     H_    0.684916 0.837420 0.419118 0.243479
H138  H     H_    0.760946 0.863142 0.390504 0.267775
H139  H     H_    0.745309 0.850215 0.322542 0.245641
H140  H     H_    0.813546 0.783563 0.314943 0.237804
H141  H     H_    0.739313 0.755179 0.348353 0.211645
H142  H     H_    0.162734 0.160391 0.666539 0.297292
H143  H     H_    0.243992 0.138563 0.605024 0.250171
H144  H     H_    0.208199 0.149149 0.702643 0.235942
H145  H     H_    0.279476 0.219702 0.632691 0.195594
H146  H     H_    0.100228 0.872925 0.269982 0.267272
H147  H     H_    0.201090 0.243628 0.686219 0.210491
H148  H     H_    0.308109 0.825380 0.600577 0.246642
H149  H     H_    0.232333 0.850500 0.627764 0.269000
H150  H     H_    0.243736 0.830867 0.697312 0.244160
H151  H     H_    0.182238 0.765880 0.689970 0.236665
H152  H     H_    0.257145 0.738683 0.654274 0.215793
H153  H     H_    0.773151 0.167998 0.341211 0.242669
H154  H     H_    0.697634 0.196103 0.373377 0.250468
H155  H     H_    0.764085 0.203436 0.278018 0.258358
H156  H     H_    0.744937 0.285280 0.351060 0.230683
H157  H     H_    0.133992 0.933425 0.221428 0.259884
H158  H     H_    0.820563 0.258477 0.308027 0.237939
H159  H     H_    0.630280 0.099279 0.448872 0.265381
H160  H     H_    0.669823 0.037666 0.415540 0.259508
H161  H     H_    0.697615 0.092157 0.353326 0.254576
H162  H     H_    0.638835 0.036134 0.325192 0.217956
H163  H     H_    0.596476 0.092991 0.363733 0.211752
H164  H     H_    0.315983 0.980657 0.623655 0.276009
H165  H     H_    0.347716 0.922612 0.568477 0.265309
H166  H     H_    0.294348 0.919112 0.668762 0.250105
H167  H     H_    0.401830 0.901844 0.628028 0.208517
H168  H     H_    0.064327 0.907220 0.232378 0.188756
H169  H     H_    0.376081 0.957655 0.680420 0.190877
H170  H     H_    0.304152 0.094649 0.650948 0.244825
H171  H     H_    0.374676 0.123318 0.572754 0.255312
H172  H     H_    0.348113 0.061388 0.562884 0.263412
H173  H     H_    0.356745 0.035614 0.673732 0.213308
H174  H     H_    0.408209 0.087993 0.645081 0.211521
H175  H     H_    0.604353 0.969230 0.290090 0.244343
H176  H     H_    0.652083 0.912308 0.268203 0.250357
H177  H     H_    0.566827 0.907911 0.329509 0.286252
H178  H     H_    0.655926 0.962121 0.360176 0.210855
H179  H     H_    0.836304 0.011107 0.668944 0.173665
H180  H     H_    0.615155 0.904525 0.399507 0.188228
H181  H     H_    0.102186 0.589152 0.532810 0.281774
H182  H     H_    0.143328 0.528314 0.503829 0.247482
H183  H     H_    0.184588 0.586743 0.455006 0.239726
H184  H     H_    0.159238 0.540050 0.378340 0.208659
H185  H     H_    0.116357 0.597169 0.411375 0.188615
H186  H     H_    0.830201 0.468340 0.528490 0.256800
H187  H     H_    0.893569 0.422835 0.470162 0.277780
H188  H     H_    0.818920 0.401522 0.552048 0.237728
H189  H     H_    0.885559 0.402194 0.591547 0.185282
H190  H     H_    0.851203 0.066929 0.611505 0.130338
H191  H     H_    0.842664 0.458374 0.629814 0.185734
H192  H     H_    0.822011 0.571878 0.520261 0.232026
H193  H     H_    0.896360 0.605269 0.468856 0.280676
H194  H     H_    0.894038 0.537248 0.454275 0.263564
H195  H     H_    0.837368 0.536112 0.604255 0.202012
H196  H     H_    0.878930 0.593333 0.586454 0.176190
H197  H     H_    0.147978 0.468332 0.314960 0.258812
H198  H     H_    0.191109 0.413388 0.313256 0.249303
H199  H     H_    0.110120 0.405684 0.343921 0.271508
H200  H     H_    0.158957 0.464019 0.422829 0.216729
H201  H     H_    0.763472 0.082310 0.743958 0.186712
H202  H     H_    0.116243 0.406604 0.452274 0.204417
H203  H     H_    0.829986 0.124552 0.713686 0.283150
H204  H     H_    0.599736 0.372939 0.269998 0.267359
H205  H     H_    0.815985 0.068791 0.770571 0.257852
H206  H     H_    0.964079 0.979828 0.679857 0.162401
H207  H     H_    0.998247 0.919186 0.630995 0.110494
H208  H     H_    0.899854 0.873020 0.729823 0.267151
H209  H     H_    0.865866 0.933397 0.778415 0.258078
H210  H     H_    0.935553 0.907748 0.767577 0.189829
H211  H     H_    0.163226 0.011693 0.330733 0.175237
H212  H     H_    0.148943 0.068248 0.386764 0.137813
H213  H     H_    0.236007 0.082859 0.254003 0.191926
H214  H     H_    0.169318 0.124350 0.283478 0.282651
H215  H     H_    0.633436 0.433447 0.221441 0.259745
H216  H     H_    0.183385 0.067654 0.227991 0.253186
H217  H     H_    0.624672 0.266222 0.959416 0.275254
H218  H     H_    0.633731 0.197476 0.958868 0.274946
H219  H     H_    0.556381 0.226080 0.020611 0.229542
H220  H     H_    0.599518 0.201254 0.091602 0.195713
H221  H     H_    0.590243 0.269601 0.092383 0.194976
H222  H     H_    0.364718 0.802780 0.041738 0.277113
H223  H     H_    0.373486 0.733977 0.041059 0.275079
H224  H     H_    0.441971 0.773998 0.980097 0.229668
H225  H     H_    0.408201 0.730953 0.907959 0.197282
H226  H     H_    0.563680 0.407258 0.232597 0.188868
H227  H     H_    0.399114 0.799370 0.908988 0.195125
H228  H     H_    0.366857 0.297383 0.041739 0.275559
H229  H     H_    0.371929 0.228325 0.043396 0.275047
H230  H     H_    0.442589 0.265950 0.981738 0.229787
H231  H     H_    0.407346 0.224223 0.910154 0.194402
H232  H     H_    0.402351 0.292929 0.908446 0.193945
H233  H     H_    0.627779 0.772038 0.957622 0.275670
H234  H     H_    0.632814 0.702962 0.959051 0.275103
H235  H     H_    0.557149 0.734418 0.019466 0.230692
H236  H     H_    0.597795 0.707217 0.092198 0.194184
H237  H     H_    0.336676 0.511140 0.669344 0.173659
H238  H     H_    0.592969 0.775931 0.090594 0.199449
H239  H     H_    0.124668 0.767357 0.959148 0.275348
H240  H     H_    0.133243 0.698554 0.958677 0.275319
H241  H     H_    0.056086 0.727489 0.020328 0.229559
H242  H     H_    0.098973 0.702172 0.091428 0.195476
H243  H     H_    0.090145 0.770582 0.092165 0.195252
H244  H     H_    0.864744 0.303322 0.041670 0.276907
H245  H     H_    0.873908 0.234571 0.041000 0.274730
H246  H     H_    0.942157 0.274807 0.980006 0.229948
H247  H     H_    0.908580 0.231339 0.907933 0.196702
H248  H     H_    0.351153 0.567247 0.612553 0.130886
H249  H     H_    0.899136 0.299702 0.908911 0.196235
H250  H     H_    0.868672 0.797154 0.040610 0.275238
H251  H     H_    0.873320 0.728065 0.042356 0.275070
H252  H     H_    0.944142 0.765400 0.980230 0.229699
H253  H     H_    0.908064 0.724068 0.909332 0.196731
H254  H     H_    0.903318 0.792795 0.907705 0.194622
H255  H     H_    0.126910 0.271153 0.957624 0.275789
H256  H     H_    0.132287 0.202105 0.958976 0.275172
H257  H     H_    0.056467 0.233328 0.019445 0.230175
H258  H     H_    0.097259 0.206427 0.092118 0.195364
H259  H     H_    0.263944 0.582125 0.745378 0.188060
H260  H     H_    0.092103 0.275116 0.090593 0.199315
H261  H     H_    0.167203 0.865764 0.049127 0.168921
H262  H     H_    0.122237 0.844129 0.015450 0.152905
H263  H     H_    0.171986 0.911103 0.917692 0.263527
H264  H     H_    0.134575 0.939168 0.009025 0.206060
H265  H     H_    0.219902 0.932404 0.947984 0.258095
H266  H     H_    0.876817 0.157588 0.984584 0.153325
H267  H     H_    0.831804 0.135487 0.951164 0.170790
H268  H     H_    0.779645 0.068938 0.052241 0.257586
H269  H     H_    0.865017 0.062532 0.991430 0.207441
H270  H     H_    0.330525 0.624323 0.714986 0.283106
H271  H     H_    0.827257 0.090749 0.082728 0.262916
H272  H     H_    0.808161 0.874656 0.949833 0.170336
H273  H     H_    0.856212 0.866537 0.983499 0.152997
H274  H     H_    0.793325 0.932346 0.080612 0.263866
H275  H     H_    0.825175 0.957701 0.989072 0.209002
H276  H     H_    0.742343 0.939818 0.050432 0.256051
H277  H     H_    0.144664 0.132828 0.016279 0.152483
H278  H     H_    0.192405 0.125170 0.050448 0.169427
H279  H     H_    0.258700 0.059859 0.950395 0.254884
H280  H     H_    0.175897 0.041847 0.011301 0.208527
O1    O     O_3   0.500000 0.250030 0.500000 -0.490721
O2    O     O_R   0.112550 0.219620 0.335580 -0.642052
O3    O     O_R   0.112550 0.780380 0.335580 -0.626294
O4    O     O_R   0.887450 0.219620 0.664420 -0.638532
O5    O     O_R   0.594260 0.219670 0.543090 -0.612705
O6    O     O_R   0.405740 0.780330 0.456910 -0.598031
O7    O     O_R   0.405740 0.219670 0.456910 -0.639088
O8    O     O_R   0.594260 0.780330 0.543090 -0.645248
O9    O     O_R   0.094260 0.719670 0.543090 -0.637394
O10   O     O_R   0.905740 0.280330 0.456910 -0.595354
O11   O     O_R   0.905740 0.719670 0.456910 -0.653698
O12   O     O_3   0.500000 0.749970 0.500000 -0.486235
O13   O     O_R   0.094260 0.280330 0.543090 -0.646043
O14   O     O_R   0.508800 0.134220 0.543090 -0.662588
O15   O     O_R   0.491200 0.865780 0.456910 -0.635387
O16   O     O_R   0.491200 0.134220 0.456910 -0.653980
O17   O     O_R   0.508800 0.865780 0.543090 -0.664356
O18   O     O_R   0.008800 0.634220 0.543090 -0.649205
O19   O     O_R   0.991200 0.365780 0.456910 -0.633921
O20   O     O_R   0.991200 0.634220 0.456910 -0.648996
O21   O     O_R   0.008800 0.365780 0.543090 -0.662661
O22   O     O_R   0.448100 0.365830 0.543110 -0.607199
O23   O     O_3   0.000000 0.750030 0.500000 -0.490254
O24   O     O_R   0.551900 0.634170 0.456890 -0.628099
O25   O     O_R   0.551900 0.365830 0.456890 -0.609774
O26   O     O_R   0.448100 0.634170 0.543110 -0.632478
O27   O     O_R   0.948100 0.865830 0.543110 -0.608629
O28   O     O_R   0.051900 0.134170 0.456890 -0.628322
O29   O     O_R   0.051900 0.865830 0.456890 -0.608750
O30   O     O_R   0.948100 0.134170 0.543110 -0.632204
O31   O     O_R   0.637370 0.280400 0.456880 -0.659573
O32   O     O_R   0.362630 0.719600 0.543120 -0.677916
O33   O     O_R   0.362630 0.280400 0.543120 -0.655443
O34   O     O_3   0.000000 0.249970 0.500000 -0.486796
O35   O     O_R   0.637370 0.719600 0.456880 -0.659848
O36   O     O_R   0.137370 0.780400 0.456880 -0.653710
O37   O     O_R   0.862630 0.219600 0.543120 -0.675416
O38   O     O_R   0.862630 0.780400 0.543120 -0.653768
O39   O     O_R   0.137370 0.219600 0.456880 -0.658882
O40   O     O_R   0.448170 0.219660 0.664410 -0.643449
O41   O     O_R   0.551830 0.780340 0.335590 -0.634500
O42   O     O_R   0.551830 0.219660 0.335590 -0.646307
O43   O     O_R   0.448170 0.780340 0.664410 -0.646287
O44   O     O_R   0.948170 0.719660 0.664410 -0.643779
O45   O     O_R   0.387450 0.280380 0.664420 -0.631575
O46   O     O_R   0.051830 0.280340 0.335590 -0.634956
O47   O     O_R   0.051830 0.719660 0.335590 -0.643822
O48   O     O_R   0.948170 0.280340 0.664410 -0.643010
O49   O     O_3   0.578481 0.446265 0.366103 -0.576618
O50   O     O_3   0.418925 0.553322 0.633207 -0.584050
O51   O     O_3   0.421521 0.446206 0.633695 -0.576647
O52   O     O_3   0.580611 0.553483 0.366449 -0.590814
O53   O     O_3   0.078760 0.946275 0.366158 -0.576240
O54   O     O_3   0.918453 0.053305 0.633104 -0.583882
O55   O     O_3   0.921234 0.946215 0.633657 -0.577097
O56   O     O_R   0.612550 0.719620 0.335580 -0.642916
O57   O     O_3   0.080999 0.053470 0.366544 -0.590613
O58   O     O_3   0.218824 0.829747 0.943324 -0.606077
O59   O     O_3   0.780180 0.171680 0.056815 -0.606979
O60   O     O_3   0.763719 0.840083 0.055939 -0.606639
O61   O     O_3   0.237088 0.159503 0.944158 -0.606151
O62   O     O_3   0.718469 0.329176 0.943570 -0.606005
O63   O     O_3   0.279454 0.671557 0.056728 -0.606512
O64   O     O_3   0.262530 0.339982 0.055969 -0.604560
O65   O     O_3   0.737306 0.659956 0.944296 -0.605649
O66   O     O_3   0.240837 0.660105 0.941170 -0.603998
O67   O     O_R   0.612550 0.280380 0.335580 -0.624799
O68   O     O_3   0.757033 0.341107 0.059117 -0.602241
O69   O     O_3   0.775808 0.669843 0.060135 -0.604571
O70   O     O_3   0.224146 0.329831 0.940163 -0.602682
O71   O     O_3   0.741567 0.159607 0.941300 -0.603912
O72   O     O_3   0.257286 0.841166 0.059052 -0.601954
O73   O     O_3   0.275186 0.169751 0.060375 -0.604515
O74   O     O_3   0.725097 0.830394 0.940257 -0.602728
O75   O     O_3   0.371587 0.262020 0.367576 -0.609411
O76   O     O_3   0.628912 0.734299 0.631835 -0.608722
O77   O     O_3   0.629523 0.231975 0.630757 -0.601918
O78   O     O_R   0.387450 0.719620 0.664420 -0.637755
O79   O     O_3   0.372323 0.740826 0.367283 -0.592624
O80   O     O_3   0.870763 0.766502 0.368608 -0.611700
O81   O     O_3   0.128697 0.239922 0.632838 -0.607979
O82   O     O_3   0.128215 0.751446 0.632930 -0.604009
O83   O     O_3   0.873016 0.250878 0.366219 -0.590467
O84   O     O_R   0.887450 0.780380 0.664420 -0.629167
Zn1   Zn    Zn3+2 0.574170 0.293410 0.438410 0.982393
Zn2   Zn    Zn3+2 0.487410 0.793350 0.438420 0.979964
Zn3   Zn    Zn3+2 0.487410 0.206650 0.438420 0.950606
Zn4   Zn    Zn3+2 0.512590 0.793350 0.561580 0.953435
Zn5   Zn    Zn3+2 0.012590 0.706650 0.561580 0.952099
Zn6   Zn    Zn3+2 0.987410 0.293350 0.438420 0.980149
Zn7   Zn    Zn3+2 0.987410 0.706650 0.438420 0.945542
Zn8   Zn    Zn3+2 0.012590 0.293350 0.561580 0.954265
Zn9   Zn    Zn3+2 0.425830 0.706590 0.561590 0.959151
Zn10  Zn    Zn3+2 0.425830 0.293410 0.561590 0.984156
Zn11  Zn    Zn3+2 0.574170 0.706590 0.438410 0.969368
Zn12  Zn    Zn3+2 0.074170 0.793410 0.438410 0.987621
Zn13  Zn    Zn3+2 0.925830 0.206590 0.561590 0.956813
Zn14  Zn    Zn3+2 0.925830 0.793410 0.561590 0.986429
Zn15  Zn    Zn3+2 0.074170 0.206590 0.438410 0.967635
Zn16  Zn    Zn3+2 0.512590 0.206650 0.561580 0.945373

loop_
_geom_bond_atom_site_label_1
_geom_bond_atom_site_label_2
_ccdc_geom_bond_type
O1    Zn3   S    
C130  H156  S    
C54   H249  S    
C89   H53   S    
C126  C127  S    
C15   C232  S    
C46   C231  S    
C91   H55   S    
C223  C224  A    
C100  H81   S    
O41   Zn2   S    
C140  H175  S    
C143  H191  S    
C97   H74   S    
C113  C232  S    
C55   H246  S    
C222  O68   S    
O43   Zn4   S    
C120  H127  S    
C117  H125  S    
C35   C124  S    
C104  H91   S    
C195  C209  S    
C137  H174  S    
C194  C197  A    
C143  C144  S    
C167  O78   A    
C221  C225  A    
C225  C228  A    
C85   H42   S    
C62   H265  S    
C212  O19   A    
C169  C177  A    
C161  C182  A    
C2    C90   S    
C42   H214  S    
C44   H219  S    
C1    O40   A    
C60   H256  S    
C28   O50   S    
C117  C170  S    
C102  H84   S    
C162  C171  A    
C77   H23   S    
C25   C159  T    
C78   H27   S    
C8    C43   S    
C70   H5    S    
C114  H110  S    
C119  H130  S    
C52   H242  S    
C112  O41   A    
C126  C174  S    
C7    C146  S    
O26   Zn9   S    
C163  C184  A    
C59   C60   S    
O18   Zn5   S    
C51   H234  S    
C17   C151  T    
C18   C152  T    
C210  O18   A    
C24   O69   S    
C3    O61   S    
O67   Zn1   S    
C39   H206  S    
C150  C159  S    
C182  C203  S    
C231  O59   S    
C90   C152  S    
O9    Zn5   S    
C109  H103  S    
C89   O72   S    
O12   Zn4   S    
C207  O39   A    
C168  C180  A    
C186  C190  A    
C43   C44   S    
C141  H185  S    
C37   C38   S    
C42   H216  S    
C83   O69   S    
C59   H260  S    
C5    C124  S    
C142  H183  S    
C166  C175  A    
C164  C173  A    
C148  C149  S    
C12   C230  S    
C163  C172  A    
C79   C231  S    
C110  H106  S    
C164  C179  A    
C114  H114  S    
C4    C135  S    
C156  O42   A    
C173  C182  A    
C10   C68   S    
C19   C153  T    
C50   H238  S    
C76   H20   S    
C62   H264  S    
C79   C222  S    
C203  O35   A    
C100  C102  S    
C200  O47   A    
C143  H189  S    
C128  C175  S    
C136  H166  S    
C98   H75   S    
C65   H272  S    
C72   C73   S    
C2    O66   S    
C88   H50   S    
C9    C90   S    
O40   Zn16  S    
C133  H160  S    
C139  C140  S    
O46   Zn6   S    
C22   C157  T    
C217  O49   S    
C131  H154  S    
C212  O21   A    
C130  C131  S    
C191  C194  A    
C178  O84   A    
C224  C229  A    
C71   H8    S    
C34   H135  S    
C27   H215  S    
C82   H33   S    
C87   H48   S    
C67   H277  S    
C162  O77   S    
C11   C113  S    
O34   Zn8   S    
C66   H274  S    
C147  H193  S    
C187  C188  A    
C128  H151  S    
C106  H96   S    
C98   C99   S    
C197  C212  S    
O8    Zn4   S    
C63   H266  S    
C218  C226  A    
C7    C24   S    
C41   H212  S    
C119  C171  S    
C43   H220  S    
O56   Zn11  S    
C36   H146  S    
C23   C158  T    
O27   Zn14  S    
O31   Zn1   S    
C165  C177  A    
C141  H184  S    
C138  H171  S    
O38   Zn14  S    
C139  C190  S    
C206  O11   A    
C156  O67   A    
O37   Zn13  S    
C129  H148  S    
C56   H254  S    
C85   C86   S    
C166  O82   S    
C133  H161  S    
C168  O83   S    
C165  O81   S    
C216  C228  S    
C107  H98   S    
C186  C196  A    
C123  H140  S    
C49   H229  S    
C144  H187  S    
C78   C80   S    
C86   H45   S    
C59   H258  S    
C14   C135  S    
C142  H181  S    
C115  C116  S    
C85   O70   S    
C58   H252  S    
O23   Zn12  S    
C69   H279  S    
C120  H126  S    
C134  H169  S    
O36   Zn12  S    
C66   H275  S    
C172  C181  A    
C39   O55   S    
C219  O51   S    
C199  O5    A    
C105  H92   S    
C107  C108  S    
C64   H268  S    
C89   C91   S    
C75   H18   S    
C199  O31   A    
C44   H218  S    
C137  C188  S    
C61   H261  S    
C3    C101  S    
C103  H86   S    
C77   H25   S    
C211  O48   A    
C116  H115  S    
O22   Zn10  S    
C99   H80   S    
C207  O13   A    
C96   H70   S    
C139  H180  S    
C232  O60   S    
O45   Zn10  S    
C88   H52   S    
C48   H231  S    
C98   O76   S    
C103  O79   S    
C149  H197  S    
C95   H69   S    
O7    Zn3   S    
C31   H35   S    
C121  H134  S    
C71   H6    S    
C72   H10   S    
C80   H30   S    
C105  O80   S    
C45   H225  S    
C39   C40   S    
C57   C232  S    
C178  O44   A    
C165  C174  A    
C39   H207  S    
C111  H109  S    
C40   H208  S    
C196  C208  S    
C83   H38   S    
C100  O77   S    
O34   Zn6   S    
C125  H137  S    
C65   H273  S    
C7    O65   S    
C27   H226  S    
C74   H16   S    
C37   H179  S    
C83   C84   S    
C106  H94   S    
C36   H157  S    
C92   H60   S    
C122  H131  S    
C21   C155  T    
C93   H61   S    
C108  H100  S    
C185  C199  S    
C81   O68   S    
C70   O62   S    
C46   O71   S    
C37   H190  S    
C189  O2    A    
C190  C195  A    
O28   Zn15  S    
C15   C24   S    
C96   H71   S    
C81   H31   S    
C118  H121  S    
C30   H24   S    
C2    C5    S    
C76   O65   S    
C161  C170  A    
C180  C205  S    
C216  O28   A    
C129  H150  S    
C168  C176  A    
C161  O76   S    
C54   C55   S    
C127  H144  S    
C220  O52   S    
C84   H39   S    
C64   H269  S    
C35   O72   S    
O29   Zn12  S    
C100  H82   S    
C18   C167  S    
C31   H57   S    
C223  O54   S    
C146  C158  S    
C140  H176  S    
C97   H73   S    
C58   H250  S    
C87   O71   S    
C170  C179  A    
C55   H245  S    
C35   C230  S    
O84   Zn14  S    
C120  H128  S    
C69   H3    S    
C41   O57   S    
O19   Zn6   S    
C25   C189  S    
C117  C118  S    
C137  H173  S    
C130  H158  S    
C73   H12   S    
C131  H155  S    
C56   C58   S    
C132  C133  S    
C34   C36   S    
C61   C62   S    
C198  C210  S    
C8    C46   S    
C68   C150  S    
C63   C64   S    
C102  H85   S    
C27   H204  S    
C34   O53   S    
C124  C155  S    
C116  H117  S    
C111  H108  S    
C90   C230  S    
C99   H78   S    
C82   H36   S    
C40   H209  S    
C139  H178  S    
C57   C146  S    
C132  H162  S    
C114  H111  S    
C119  H129  S    
C3    C16   S    
C149  H199  S    
C148  C194  S    
C87   C88   S    
C218  O50   S    
C9    C45   S    
C121  H136  S    
C41   C42   S    
C51   H233  S    
C72   O63   S    
C3    C68   S    
C42   H213  S    
C191  C198  A    
C113  C154  S    
C45   H227  S    
C63   H267  S    
C32   H68   S    
C176  C185  A    
C43   H221  S    
C52   C53   S    
C217  C220  A    
O30   Zn13  S    
C26   C27   S    
C230  O58   S    
C135  C157  S    
C28   C29   S    
C125  H139  S    
C53   H240  S    
C208  O14   A    
C30   C31   S    
C47   H224  S    
C123  C125  S    
C193  C198  A    
C93   H63   S    
C200  O3    A    
C108  H102  S    
C94   H64   S    
C123  H141  S    
C31   H46   S    
C213  O22   A    
C167  O43   A    
C144  H186  S    
C46   C135  S    
C20   C112  S    
C60   H257  S    
C8    C79   S    
C160  C169  A    
O23   Zn5   S    
C70   C71   S    
C184  C201  S    
C160  C183  A    
C145  C193  S    
C110  H107  S    
C4    C8    S    
C15   C146  S    
C45   C47   S    
C36   H168  S    
C89   H54   S    
C127  H142  S    
C84   H41   S    
C128  C129  S    
C91   H56   S    
C64   H271  S    
C95   H67   S    
C75   H19   S    
O1    Zn16  S    
C145  C147  S    
O20   Zn7   S    
C206  O38   A    
C103  H87   S    
C77   H22   S    
C98   H76   S    
C109  O82   S    
C205  O10   A    
C147  H192  S    
O24   Zn11  S    
C133  H159  S    
C73   H14   S    
C61   O58   S    
C68   O73   S    
C131  H153  S    
C1    C19   S    
C85   H43   S    
C71   H7    S    
C57   O74   S    
C94   O74   S    
C214  O24   A    
C162  C185  A    
C60   H255  S    
C34   H124  S    
C102  H83   S    
O5    Zn16  S    
C136  H164  S    
C22   C211  S    
O34   Zn15  S    
C78   H26   S    
C65   O60   S    
C82   H34   S    
C97   H72   S    
C70   H4    S    
C192  C197  A    
C132  H163  S    
C14   C231  S    
C148  H200  S    
C38   H205  S    
C217  C227  A    
O15   Zn2   S    
C37   O54   S    
C26   H112  S    
C48   C49   S    
C128  H152  S    
O13   Zn8   S    
C78   O66   S    
C95   H66   S    
O12   Zn9   S    
C118  H120  S    
C41   H211  S    
C67   O61   S    
C134  H167  S    
C183  C202  S    
O47   Zn7   S    
C134  C187  S    
C10   C101  S    
C5    C9    S    
C126  H147  S    
C208  O16   A    
O6    Zn2   S    
C174  C183  A    
C6    C10   S    
C109  H104  S    
C119  C120  S    
C47   H222  S    
O14   Zn16  S    
O35   Zn11  S    
C51   H235  S    
C105  C106  S    
C123  C173  S    
C115  H118  S    
O12   Zn2   S    
C32   C33   S    
C160  O75   S    
C105  H93   S    
C214  O26   A    
C49   H228  S    
C50   H236  S    
C211  O4    A    
C11   C50   S    
C109  C110  S    
C144  H188  S    
C1    O45   A    
C142  H182  S    
C4    C222  S    
C220  C226  A    
C92   C93   S    
C33   H90   S    
C111  C114  S    
C215  O27   A    
C53   H241  S    
C94   C95   S    
C66   H276  S    
C29   H2    S    
C110  H105  S    
C204  O36   A    
C6    C150  S    
O11   Zn7   S    
O10   Zn6   S    
C53   H239  S    
C13   O70   S    
C111  O83   S    
C221  C229  A    
C103  C104  S    
C9    C35   S    
O78   Zn9   S    
C219  C227  A    
C75   H17   S    
C17   C156  S    
C62   H263  S    
C215  O29   A    
C86   H44   S    
C175  C184  A    
O21   Zn8   S    
C30   O51   S    
C91   H58   S    
C136  H165  S    
C30   H13   S    
C33   H113  S    
C116  H116  S    
O17   Zn4   S    
C141  C191  S    
C115  C169  S    
C2    C12   S    
C48   H232  S    
C81   C82   S    
C52   H243  S    
C7    C11   S    
C5    O63   S    
C20   C154  T    
C73   H11   S    
C213  C227  S    
C209  O17   A    
C49   H230  S    
C99   H77   S    
C224  O55   S    
C205  O37   A    
C4    O62   S    
O34   Zn13  S    
O33   Zn10  S    
C164  O80   S    
C67   H278  S    
C6    O64   S    
C28   H237  S    
C83   H37   S    
C32   O52   S    
O23   Zn7   S    
C148  H202  S    
C38   H203  S    
C16   C150  S    
C106  H95   S    
C23   C178  S    
O16   Zn3   S    
C122  H132  S    
C143  C192  S    
O12   Zn11  S    
O3    Zn12  S    
C80   H28   S    
C192  C193  A    
O32   Zn9   S    
C179  C206  S    
C24   C113  S    
C202  O7    A    
C33   H101  S    
C54   H247  S    
C166  C181  A    
C145  H195  S    
C138  H170  S    
C126  H145  S    
C28   H248  S    
C129  H149  S    
C56   H253  S    
C50   C51   S    
C63   O59   S    
O1    Zn1   S    
C122  H133  S    
C127  H143  S    
C74   C75   S    
C84   H40   S    
C104  H88   S    
C209  O15   A    
C76   C77   S    
C96   O75   S    
C26   O49   S    
C132  C186  S    
C223  C228  A    
O1    Zn10  S    
C134  C136  S    
C130  C176  S    
C204  O9    A    
C58   H251  S    
C177  C207  S    
C69   H280  S    
C67   C69   S    
C16   C59   S    
C104  H89   S    
C87   H49   S    
C29   H270  S    
C80   H29   S    
O39   Zn15  S    
C12   C124  S    
C101  C153  S    
C96   C97   S    
C121  C172  S    
O25   Zn1   S    
C121  C122  S    
C213  O25   A    
C86   H47   S    
C225  O57   S    
C76   H21   S    
C44   H217  S    
C92   O73   S    
C11   C57   S    
C61   H262  S    
C26   H1    S    
C14   C54   S    
O2    Zn15  S    
C171  C180  A    
C13   C16   S    
C181  C204  S    
C40   H210  S    
C21   C200  S    
C13   C101  S    
C88   H51   S    
C79   C151  S    
C149  H198  S    
C163  O79   S    
C29   H259  S    
C187  C195  A    
C215  C229  S    
C221  O53   S    
C72   H9    S    
C14   C222  S    
C117  H123  S    
C189  O46   A    
C107  O81   S    
C202  O33   A    
C210  O20   A    
O42   Zn3   S    
C216  O30   A    
C137  C138  S    
C12   C52   S    
C32   H79   S    
C147  H194  S    
C140  H177  S    
C55   H244  S    
C138  H172  S    
C15   C56   S    
C145  H196  S    
C125  H138  S    
C112  O56   A    
C38   H201  S    
C141  C142  S    
C6    C13   S    
C10   C48   S    
C74   H15   S    
C47   H223  S    
C218  C219  A    
C74   O64   S    
C92   H59   S    
C115  H119  S    
C93   H62   S    
C107  H97   S    
C108  H99   S    
C94   H65   S    
C214  C226  S    
C201  O32   A    
O44   Zn5   S    
O23   Zn14  S    
C201  O6    A    
C188  C196  A    
C81   H32   S    
C65   C66   S    
O48   Zn8   S    
C203  O8    A    
O4    Zn13  S    
C118  H122  S    
