data_mof_unit_52320.cif
_audit_creation_date              2012-12-11T15:17:35-0500
_audit_creation_method            fapswitch 2.2
_symmetry_space_group_name_H-M    P1
_symmetry_Int_Tables_number       1
_space_group_crystal_system       monoclinic
_cell_length_a                    15.752137
_cell_length_b                    15.752139
_cell_length_c                    34.523889
_cell_angle_alpha                 90.0
_cell_angle_beta                  90.0
_cell_angle_gamma                 120.000217
_cell_volume                      7418.71025155

loop_
_atom_site_label
_atom_site_type_symbol
_atom_type_description
_atom_site_fract_x
_atom_site_fract_y
_atom_site_fract_z
_atom_type_partial_charge
C1    C     C_R   0.578400 0.441404 0.554906 0.548009
C2    C     C_R   0.504280 0.997688 0.210573 0.348922
C3    C     C_R   0.069560 0.849466 0.952689 -0.105765
C4    C     C_R   0.014026 0.754699 0.967589 -0.113647
C5    C     C_R   0.009858 0.675194 0.947846 -0.066268
C6    C     C_R   0.309890 0.372101 0.913131 0.051435
C7    C     C_R   0.214347 0.331742 0.898238 -0.087166
C8    C     C_R   0.135114 0.256103 0.918007 -0.110729
C9    C     C_R   0.150532 0.220092 0.952688 -0.105764
C10   C     C_R   0.245299 0.259326 0.967589 -0.113647
C11   C     C_R   0.324804 0.334663 0.947845 -0.066268
C12   C     C_R   0.627899 0.937789 0.913131 0.051436
C13   C     C_R   0.493409 0.495719 0.210572 0.348923
C14   C     C_R   0.668258 0.882606 0.898238 -0.087166
C15   C     C_R   0.743897 0.879012 0.918007 -0.110729
C16   C     C_R   0.779907 0.930441 0.952688 -0.105765
C17   C     C_R   0.740674 0.985974 0.967589 -0.113647
C18   C     C_R   0.665337 0.990142 0.947845 -0.066269
C19   C     C_R   0.690109 0.062211 0.413131 0.051436
C20   C     C_R   0.675194 0.009857 0.447845 -0.066269
C21   C     C_R   0.754698 0.014024 0.467589 -0.113647
C22   C     C_R   0.849466 0.069559 0.452689 -0.105764
C23   C     C_R   0.864884 0.120989 0.418008 -0.110729
C24   C     C_R   0.002311 0.506591 0.210573 0.348922
C25   C     C_R   0.785653 0.117396 0.398238 -0.087165
C26   C     C_R   0.372101 0.309889 0.413131 0.051436
C27   C     C_R   0.334662 0.324805 0.447845 -0.066270
C28   C     C_R   0.259324 0.245301 0.467588 -0.113648
C29   C     C_R   0.220091 0.150533 0.452688 -0.105764
C30   C     C_R   0.256104 0.135114 0.418008 -0.110728
C31   C     C_R   0.331743 0.214346 0.398238 -0.087164
C32   C     C_R   0.937789 0.627899 0.413131 0.051436
C33   C     C_R   0.990143 0.665337 0.447845 -0.066269
C34   C     C_R   0.985976 0.740675 0.467589 -0.113647
C35   C     C_R   0.027627 0.439129 0.850833 -0.126887
C36   C     C_R   0.930441 0.779907 0.452689 -0.105764
C37   C     C_R   0.879011 0.743896 0.418008 -0.110728
C38   C     C_R   0.882604 0.668257 0.398238 -0.087165
C39   C     C_R   0.560870 0.588497 0.850833 -0.126886
C40   C     C_R   0.411503 0.972373 0.850833 -0.126887
C41   C     C_R   0.439130 0.027627 0.350833 -0.126887
C42   C     C_R   0.588498 0.560869 0.350833 -0.126887
C43   C     C_R   0.972372 0.411503 0.350833 -0.126886
C44   C     C_R   0.054699 0.450177 0.889511 -0.144793
C45   C     C_R   0.558596 0.136996 0.554906 0.548009
C46   C     C_R   0.549822 0.604522 0.889511 -0.144793
C47   C     C_R   0.395479 0.945301 0.889511 -0.144793
C48   C     C_R   0.450177 0.054699 0.389511 -0.144794
C49   C     C_R   0.604522 0.549822 0.389511 -0.144793
C50   C     C_R   0.945300 0.395479 0.389511 -0.144793
C51   C     C_R   0.056351 0.605418 0.891893 -0.023173
C52   C     C_R   0.394581 0.450932 0.891893 -0.023173
C53   C     C_R   0.549068 0.943649 0.891893 -0.023173
C54   C     C_R   0.605419 0.056351 0.391893 -0.023173
C55   C     C_R   0.450933 0.394580 0.391893 -0.023173
C56   C     C_R   0.863004 0.421600 0.554906 0.548009
C57   C     C_R   0.943648 0.549068 0.391893 -0.023173
C58   C     C_R   0.029861 0.593697 0.852568 -0.118841
C59   C     C_R   0.406302 0.436164 0.852568 -0.118841
C60   C     C_R   0.563836 0.970139 0.852568 -0.118841
C61   C     C_R   0.593698 0.029863 0.352568 -0.118841
C62   C     C_R   0.436165 0.406301 0.352568 -0.118841
C63   C     C_R   0.970137 0.563835 0.352568 -0.118841
C64   C     C_R   0.020422 0.513304 0.831435 0.024050
C65   C     C_R   0.486696 0.507117 0.831435 0.024050
C66   C     C_R   0.492883 0.979578 0.831435 0.024050
C67   C     C_R   0.441404 0.578400 0.054906 0.548009
C68   C     C_R   0.513305 0.020423 0.331435 0.024050
C69   C     C_R   0.507119 0.486694 0.331435 0.024050
C70   C     C_R   0.979576 0.492882 0.331435 0.024050
C71   C     C_R   0.076407 0.536058 0.909753 0.010665
C72   C     C_R   0.463942 0.540349 0.909753 0.010665
C73   C     C_R   0.459652 0.923593 0.909753 0.010665
C74   C     C_R   0.536058 0.076407 0.409753 0.010665
C75   C     C_R   0.540349 0.463941 0.409753 0.010665
C76   C     C_R   0.923593 0.459651 0.409753 0.010665
C77   C     C_R   0.577370 0.442627 0.445734 0.544554
C78   C     C_R   0.136996 0.558596 0.054906 0.548009
C79   C     C_R   0.557373 0.134743 0.445734 0.544554
C80   C     C_R   0.865257 0.422630 0.445734 0.544554
C81   C     C_R   0.442627 0.577370 0.945734 0.544554
C82   C     C_R   0.134743 0.557373 0.945734 0.544554
C83   C     C_R   0.422630 0.865257 0.945734 0.544554
C84   C     C_R   0.918762 0.456483 0.591177 0.021856
C85   C     C_R   0.543518 0.462280 0.591177 0.021856
C86   C     C_R   0.537720 0.081238 0.591177 0.021855
C87   C     C_R   0.456483 0.918763 0.091177 0.021856
C88   C     C_R   0.462280 0.543517 0.091177 0.021855
C89   C     C_R   0.421600 0.863004 0.054906 0.548008
C90   C     C_R   0.081237 0.537720 0.091177 0.021856
C91   C     C_R   0.952807 0.400003 0.609743 -0.131196
C92   C     C_R   0.599998 0.552804 0.609743 -0.131196
C93   C     C_R   0.447196 0.047194 0.609743 -0.131196
C94   C     C_R   0.400003 0.952807 0.109743 -0.131196
C95   C     C_R   0.552804 0.599997 0.109743 -0.131196
C96   C     C_R   0.047193 0.447195 0.109743 -0.131196
C97   C     C_R   0.984722 0.419689 0.647994 -0.117832
C98   C     C_R   0.580312 0.565033 0.647994 -0.117832
C99   C     C_R   0.434966 0.015278 0.647994 -0.117832
C100  C     C_R   0.997687 0.504279 0.710573 0.348922
C101  C     C_R   0.419689 0.984723 0.147994 -0.117832
C102  C     C_R   0.565034 0.580310 0.147994 -0.117832
C103  C     C_R   0.015276 0.434966 0.147994 -0.117832
C104  C     C_R   0.982959 0.496094 0.668314 0.035156
C105  C     C_R   0.503906 0.486865 0.668314 0.035156
C106  C     C_R   0.513134 0.017041 0.668314 0.035156
C107  C     C_R   0.496095 0.982961 0.168313 0.035156
C108  C     C_R   0.486866 0.503904 0.168313 0.035156
C109  C     C_R   0.017038 0.513134 0.168313 0.035156
C110  C     C_R   0.957588 0.558167 0.648563 -0.118374
C111  C     C_R   0.495721 0.493407 0.710573 0.348922
C112  C     C_R   0.441833 0.399421 0.648563 -0.118375
C113  C     C_R   0.600578 0.042411 0.648562 -0.118375
C114  C     C_R   0.558167 0.957589 0.148562 -0.118375
C115  C     C_R   0.399422 0.441832 0.148562 -0.118375
C116  C     C_R   0.042410 0.600577 0.148562 -0.118375
C117  C     C_R   0.925782 0.538538 0.610239 -0.132482
C118  C     C_R   0.461462 0.387244 0.610239 -0.132482
C119  C     C_R   0.612755 0.074217 0.610239 -0.132482
C120  C     C_R   0.538538 0.925783 0.110239 -0.132482
C121  C     C_R   0.387245 0.461462 0.110239 -0.132482
C122  C     C_R   0.506592 0.002313 0.710573 0.348922
C123  C     C_R   0.074216 0.612754 0.110239 -0.132482
C124  C     C_R   0.009043 0.508897 0.789010 0.350181
C125  C     C_R   0.491102 0.500145 0.789010 0.350181
C126  C     C_R   0.499855 0.990957 0.789010 0.350180
C127  C     C_R   0.508898 0.009044 0.289010 0.350181
C128  C     C_R   0.500147 0.491100 0.289009 0.350181
C129  C     C_R   0.990955 0.499854 0.289009 0.350181
C130  C     C_R   0.062210 0.690109 0.913131 0.051436
C131  C     C_R   0.117395 0.785652 0.898238 -0.087166
C132  C     C_R   0.120988 0.864884 0.918008 -0.110729
Cr1   Cr    Cr6+3 0.522350 0.263930 0.500020 1.029707
Cr2   Cr    Cr6+3 0.736070 0.258420 0.500020 1.029707
Cr3   Cr    Cr6+3 0.741580 0.477650 0.500020 1.029707
Cr4   Cr    Cr6+3 0.263930 0.522350 0.000020 1.029707
Cr5   Cr    Cr6+3 0.258420 0.736070 0.000020 1.029707
Cr6   Cr    Cr6+3 0.477650 0.741580 0.000020 1.029707
H1    H     H_    0.949245 0.336979 0.595544 0.128387
H2    H     H_    0.583856 0.900749 0.096446 0.127214
H3    H     H_    0.316893 0.416143 0.096446 0.127213
H4    H     H_    0.099250 0.683106 0.096446 0.127214
H5    H     H_    0.065172 0.393890 0.902784 0.136348
H6    H     H_    0.606110 0.671282 0.902784 0.136348
H7    H     H_    0.328718 0.934828 0.902784 0.136348
H8    H     H_    0.393889 0.065171 0.402784 0.136347
H9    H     H_    0.671282 0.606110 0.402784 0.136347
H10   H     H_    0.934828 0.328719 0.402784 0.136348
H11   H     H_    0.005654 0.371613 0.662201 0.138667
H12   H     H_    0.663022 0.612266 0.595544 0.128387
H13   H     H_    0.628388 0.634041 0.662202 0.138667
H14   H     H_    0.365959 0.994347 0.662202 0.138667
H15   H     H_    0.371614 0.005655 0.162201 0.138667
H16   H     H_    0.634042 0.628386 0.162201 0.138667
H17   H     H_    0.994344 0.365958 0.162201 0.138667
H18   H     H_    0.956805 0.618468 0.663285 0.138290
H19   H     H_    0.381532 0.338337 0.663285 0.138290
H20   H     H_    0.661662 0.043194 0.663285 0.138290
H21   H     H_    0.618469 0.956807 0.163285 0.138290
H22   H     H_    0.338338 0.381530 0.163284 0.138290
H23   H     H_    0.387734 0.050756 0.595544 0.128387
H24   H     H_    0.043192 0.661661 0.163284 0.138290
H25   H     H_    0.017368 0.374448 0.835691 0.138683
H26   H     H_    0.625552 0.642920 0.835692 0.138683
H27   H     H_    0.357080 0.982632 0.835692 0.138683
H28   H     H_    0.374448 0.017368 0.335691 0.138684
H29   H     H_    0.642922 0.625551 0.335691 0.138683
H30   H     H_    0.982631 0.357080 0.335691 0.138683
H31   H     H_    0.018882 0.648704 0.838274 0.134740
H32   H     H_    0.351295 0.370177 0.838274 0.134740
H33   H     H_    0.629822 0.981117 0.838274 0.134740
H34   H     H_    0.336979 0.949245 0.095544 0.128387
H35   H     H_    0.648706 0.018884 0.338273 0.134740
H36   H     H_    0.370179 0.351292 0.338273 0.134741
H37   H     H_    0.981115 0.629821 0.338273 0.134740
H38   H     H_    0.158113 0.798865 0.871501 0.107430
H39   H     H_    0.163765 0.938310 0.906452 0.105300
H40   H     H_    0.072539 0.910917 0.967958 0.101264
H41   H     H_    0.973914 0.742780 0.994382 0.098309
H42   H     H_    0.965874 0.602039 0.959566 0.096177
H43   H     H_    0.201134 0.359247 0.871501 0.107430
H44   H     H_    0.061689 0.225454 0.906451 0.105300
H45   H     H_    0.612266 0.663021 0.095544 0.128387
H46   H     H_    0.089080 0.161620 0.967957 0.101264
H47   H     H_    0.257217 0.231133 0.994382 0.098309
H48   H     H_    0.397959 0.363835 0.959566 0.096177
H49   H     H_    0.640752 0.841887 0.871501 0.107430
H50   H     H_    0.774545 0.836235 0.906451 0.105300
H51   H     H_    0.838380 0.927462 0.967957 0.101264
H52   H     H_    0.768867 0.026086 0.994381 0.098309
H53   H     H_    0.636166 0.034126 0.959566 0.096177
H54   H     H_    0.602038 0.965873 0.459566 0.096177
H55   H     H_    0.742778 0.973911 0.494381 0.098309
H56   H     H_    0.050755 0.387734 0.095544 0.128387
H57   H     H_    0.910917 0.072538 0.467958 0.101264
H58   H     H_    0.938310 0.163767 0.406452 0.105299
H59   H     H_    0.798866 0.158116 0.371502 0.107429
H60   H     H_    0.363833 0.397961 0.459565 0.096177
H61   H     H_    0.231129 0.257221 0.494380 0.098310
H62   H     H_    0.161618 0.089082 0.467957 0.101264
H63   H     H_    0.225456 0.061688 0.406452 0.105299
H64   H     H_    0.359251 0.201132 0.371502 0.107429
H65   H     H_    0.034128 0.636167 0.459565 0.096177
H66   H     H_    0.026090 0.768868 0.494381 0.098309
H67   H     H_    0.900749 0.583856 0.596446 0.127214
H68   H     H_    0.927463 0.838380 0.467958 0.101264
H69   H     H_    0.836233 0.774543 0.406452 0.105299
H70   H     H_    0.841884 0.640750 0.371502 0.107429
H71   H     H_    0.416143 0.316892 0.596446 0.127214
H72   H     H_    0.683107 0.099250 0.596446 0.127214
N1    N     N_R   0.013154 0.437453 0.768603 -0.225579
N2    N     N_R   0.434962 0.007212 0.230211 -0.226255
N3    N     N_R   0.572252 0.565037 0.230211 -0.226255
N4    N     N_R   0.992785 0.427748 0.230211 -0.226255
N5    N     N_R   0.993911 0.576107 0.730929 -0.225322
N6    N     N_R   0.423892 0.417804 0.730929 -0.225322
N7    N     N_R   0.582195 0.006088 0.730929 -0.225322
N8    N     N_R   0.576109 0.993914 0.230929 -0.225322
N9    N     N_R   0.417805 0.423890 0.230928 -0.225323
N10   N     N_R   0.006086 0.582195 0.230928 -0.225322
N11   N     N_R   0.000084 0.578727 0.769408 -0.226162
N12   N     N_R   0.562548 0.575700 0.768603 -0.225579
N13   N     N_R   0.421272 0.421357 0.769408 -0.226162
N14   N     N_R   0.578643 0.999915 0.769408 -0.226162
N15   N     N_R   0.578729 0.000087 0.269408 -0.226162
N16   N     N_R   0.421358 0.421270 0.269407 -0.226162
N17   N     N_R   0.999913 0.578642 0.269407 -0.226162
N18   N     N_R   0.424300 0.986847 0.768603 -0.225579
N19   N     N_R   0.437453 0.013154 0.268603 -0.225579
N20   N     N_R   0.575702 0.562545 0.268602 -0.225579
N21   N     N_R   0.986844 0.424298 0.268603 -0.225579
N22   N     N_R   0.007212 0.434961 0.730211 -0.226255
N23   N     N_R   0.565040 0.572250 0.730211 -0.226255
N24   N     N_R   0.427749 0.992789 0.730211 -0.226255
O1    O     O_R   0.498680 0.159540 0.541860 -0.522051
O2    O     O_R   0.358060 0.532760 0.040030 -0.507764
O3    O     O_R   0.174700 0.641940 0.040030 -0.507764
O4    O     O_R   0.467240 0.825300 0.040030 -0.507765
O5    O     O_R   0.498590 0.161190 0.456930 -0.515500
O6    O     O_R   0.838810 0.337400 0.456930 -0.515499
O7    O     O_R   0.662600 0.501410 0.456930 -0.515499
O8    O     O_R   0.161190 0.498590 0.956930 -0.515499
O9    O     O_R   0.337400 0.838810 0.956930 -0.515499
O10   O     O_R   0.501410 0.662600 0.956930 -0.515499
O11   O     O_R   0.532680 0.359580 0.461300 -0.488520
O12   O     O_R   0.840460 0.339140 0.541860 -0.522051
O13   O     O_R   0.640420 0.173100 0.461300 -0.488520
O14   O     O_R   0.826900 0.467320 0.461300 -0.488521
O15   O     O_R   0.359580 0.532680 0.961300 -0.488521
O16   O     O_R   0.173100 0.640420 0.961300 -0.488520
O17   O     O_R   0.467320 0.826900 0.961300 -0.488521
O18   O     O_3   0.666667 0.333333 0.499990 -0.243111
O19   O     O_3   0.333333 0.666667 0.999990 -0.243111
O20   O     O_R   0.660860 0.501320 0.541860 -0.522052
O21   O     O_R   0.159540 0.498680 0.041860 -0.522051
O22   O     O_R   0.339140 0.840460 0.041860 -0.522051
O23   O     O_R   0.501320 0.660860 0.041860 -0.522051
O24   O     O_R   0.532760 0.358060 0.540030 -0.507764
O25   O     O_R   0.641940 0.174700 0.540030 -0.507764
O26   O     O_R   0.825300 0.467240 0.540030 -0.507765

loop_
_geom_bond_atom_site_label_1
_geom_bond_atom_site_label_2
_ccdc_geom_bond_type
C101  C107  A    
C40   C47   A    
C112  C118  A    
C47   H7    S    
C100  N5    A    
C115  C121  A    
C122  N7    A    
C11   H48   S    
C37   H69   S    
C90   C123  A    
C131  H38   S    
Cr4   O21   S    
C19   C20   A    
C79   O5    A    
Cr3   O18   S    
C26   C55   S    
C108  C115  A    
Cr5   O16   S    
C92   C98   A    
C7    C8    A    
C107  C114  A    
N2    N19   A    
C43   H30   S    
C78   C90   S    
C49   H9    S    
Cr3   O26   S    
C37   C38   A    
C98   C105  A    
C38   H70   S    
C118  H71   S    
C77   O7    A    
C78   O21   A    
C57   C76   A    
C116  H24   S    
C28   C29   A    
C116  C123  A    
C3    H40   S    
C72   C81   S    
C117  H67   S    
C30   C31   A    
C56   C84   S    
C126  N14   A    
C50   H10   S    
C15   C16   A    
C62   H36   S    
C87   C94   A    
C83   O9    A    
C2    C107  S    
C100  C104  S    
C10   H47   S    
C82   O8    A    
C44   C71   A    
C17   C18   A    
Cr1   O1    S    
C13   N3    A    
C99   C106  A    
C80   O6    A    
C31   H64   S    
C109  C116  A    
C94   H34   S    
C113  C119  A    
C24   N4    A    
C85   C92   A    
C69   C128  S    
C34   H66   S    
Cr2   O25   S    
C89   O22   A    
C48   H8    S    
C23   H58   S    
C80   O14   A    
C54   C74   A    
C35   C64   A    
C120  H2    S    
C84   C91   A    
Cr2   O18   S    
C113  H20   S    
Cr6   O19   S    
C9    C10   A    
C93   C99   A    
N8    N15   A    
C46   C72   A    
C12   C53   S    
C95   C102  A    
C132  H39   S    
C71   C82   S    
C55   C75   A    
N7    N14   A    
C96   H56   S    
C105  C111  S    
Cr6   O23   S    
C60   C66   A    
C26   C31   A    
Cr3   O20   S    
C40   C66   A    
C21   C22   A    
C54   C61   A    
C58   C64   A    
C39   C65   A    
C106  C122  S    
C56   O26   A    
C27   H60   S    
C51   C71   A    
C32   C57   S    
C13   C108  S    
C125  N12   A    
N4    N21   A    
N5    N11   A    
C110  C117  A    
C53   C60   A    
C57   C63   A    
C41   C68   A    
C98   H13   S    
C125  N13   A    
C1    C85   S    
C18   H53   S    
C53   C73   A    
C67   O2    A    
C28   H61   S    
Cr1   O11   S    
N1    N22   A    
C7    H43   S    
C106  C113  A    
C3    C132  A    
C97   C104  A    
C121  H3    S    
Cr4   O19   S    
C100  N22   A    
C58   H31   S    
C61   H35   S    
C111  N6    A    
C94   C101  A    
Cr6   O17   S    
C112  H19   S    
Cr6   O4    S    
C6    C11   A    
C88   C121  A    
C8    C9    A    
C46   H6    S    
C42   C49   A    
C64   C124  S    
C56   O12   A    
C33   H65   S    
C127  N19   A    
C35   H25   S    
C66   C126  S    
N10   N17   A    
C65   C125  S    
C5    H42   S    
C29   C30   A    
C52   C72   A    
C86   C93   A    
C48   C74   A    
C52   C59   A    
C63   H37   S    
C68   C127  S    
C63   C70   A    
C101  H15   S    
C29   H62   S    
C41   H28   S    
C129  N17   A    
C49   C75   A    
C33   C34   A    
C67   C88   S    
C51   C58   A    
C36   H68   S    
C91   C97   A    
N12   N23   A    
C102  C108  A    
C35   C44   A    
C75   C77   S    
Cr1   O18   S    
C47   C73   A    
C40   H27   S    
C86   C119  A    
C110  H18   S    
C39   C46   A    
C91   H1    S    
C24   N10   A    
C19   C54   S    
C103  H17   S    
C5    C130  A    
C122  N24   A    
C105  C112  A    
C12   C14   A    
C93   H23   S    
C43   C70   A    
C32   C38   A    
C74   C79   S    
C87   C89   S    
C26   C27   A    
Cr4   O15   S    
C13   N9    A    
C76   C80   S    
C4    H41   S    
C3    C4    A    
C59   H32   S    
Cr2   O13   S    
C45   O25   A    
Cr6   O10   S    
C1    O20   A    
C81   O10   A    
C127  N15   A    
C1    O24   A    
C99   H14   S    
C8    H44   S    
C30   H63   S    
C102  H16   S    
C36   C37   A    
C119  H72   S    
C128  N20   A    
C83   O17   A    
C20   C21   A    
C22   C23   A    
C60   H33   S    
Cr2   O6    S    
C89   O4    A    
C82   O16   A    
N18   N24   A    
C126  N18   A    
C24   C109  S    
C45   O1    A    
C81   O15   A    
C4    C5    A    
C92   H12   S    
C51   C130  S    
C20   H54   S    
C43   C50   A    
C90   C96   A    
C6    C7    A    
C124  N1    A    
C17   H52   S    
C78   O3    A    
C15   H50   S    
C129  N21   A    
C2    N2    A    
Cr4   O8    S    
C115  H22   S    
C103  C109  A    
C6    C52   S    
C32   C33   A    
Cr1   O24   S    
C77   O11   A    
C45   C86   S    
N6    N13   A    
C87   C120  A    
C9    H46   S    
Cr3   O7    S    
C59   C65   A    
C104  C110  A    
C14   H49   S    
C61   C68   A    
C95   H45   S    
C16   C17   A    
C44   H5    S    
Cr4   O2    S    
C123  H4    S    
C111  N23   A    
C41   C48   A    
Cr2   O12   S    
C130  C131  A    
C34   C36   A    
C42   C69   A    
N9    N16   A    
Cr5   O3    S    
C85   C118  A    
C22   H57   S    
C114  C120  A    
C114  H21   S    
C88   C95   A    
Cr5   O22   S    
C25   H59   S    
C10   C11   A    
C84   C117  A    
C19   C25   A    
Cr5   O9    S    
C42   H29   S    
Cr3   O14   S    
C23   C25   A    
C55   C62   A    
C62   C69   A    
C128  N16   A    
C70   C129  S    
C96   C103  A    
C12   C18   A    
C27   C28   A    
C2    N8    A    
C97   H11   S    
C14   C15   A    
Cr1   O5    S    
C21   H55   S    
C39   H26   S    
C67   O23   A    
C16   H51   S    
C73   C83   S    
Cr5   O19   S    
N3    N20   A    
C131  C132  A    
C79   O13   A    
C124  N11   A    
C50   C76   A    
