data_mof_unit_6276.cif
_audit_creation_date              2013-03-05T16:48:44-0500
_audit_creation_method            fapswitch 2.2
_symmetry_space_group_name_H-M    P1
_symmetry_Int_Tables_number       1
_space_group_crystal_system       triclinic
_cell_length_a                    27.817659
_cell_length_b                    8.927425
_cell_length_c                    8.077303
_cell_angle_alpha                 90.537952
_cell_angle_beta                  88.954866
_cell_angle_gamma                 89.411506
_cell_volume                      2005.38644845

loop_
_atom_site_label
_atom_site_type_symbol
_atom_site_description
_atom_site_fract_x
_atom_site_fract_y
_atom_site_fract_z
_atom_type_partial_charge
O1    O     O_R   0.500000 0.285350 0.636850 -0.619583
O2    O     O_R   0.500000 0.714650 0.363150 -0.619557
O3    O     O_R   0.500000 0.714650 0.636850 -0.608165
O4    O     O_R   0.500000 0.285350 0.363150 -0.608341
C1    C     C_R   0.500044 0.217888 0.499501 0.929701
C2    C     C_R   0.499956 0.782112 0.500498 0.929795
O5    O     O_R   0.428760 0.500000 0.636860 -0.580588
O6    O     O_R   0.571240 0.500000 0.363140 -0.580374
O7    O     O_R   0.571240 0.500000 0.636860 -0.577844
O8    O     O_R   0.428760 0.500000 0.363140 -0.577655
C3    C     C_R   0.405520 0.502369 0.501797 1.022350
C4    C     C_R   0.594478 0.497799 0.498244 1.022550
Zn1   Zn    Zn3+2 0.500000 0.500000 0.682780 1.106196
Zn2   Zn    Zn3+2 0.500000 0.500000 0.317220 1.106239
C5    C     C_R   0.178097 0.366321 0.507010 0.741186
C6    C     C_R   0.822050 0.631102 0.496465 0.741271
C7    C     C_R   0.174421 0.624797 0.584571 0.751846
C8    C     C_R   0.825569 0.372342 0.420143 0.751578
O9    O     O_2   0.205441 0.242460 0.481438 -0.407576
O10   O     O_2   0.794819 0.755521 0.520013 -0.407264
O11   O     O_2   0.197483 0.755382 0.607089 -0.392675
O12   O     O_2   0.802391 0.241979 0.397557 -0.392644
N1    N     N_R   0.200112 0.499318 0.539401 -0.324137
N2    N     N_R   0.799940 0.498289 0.464048 -0.324185
C9    C     C_R   0.277931 0.548401 0.665529 0.651110
C10   C     C_R   0.722255 0.449973 0.336477 0.651253
C11   C     C_R   0.275291 0.467816 0.378632 0.648886
C12   C     C_R   0.724552 0.531627 0.623093 0.648634
C13   C     C_R   0.327807 0.555579 0.655118 0.263903
C14   C     C_R   0.672333 0.443949 0.345852 0.263682
C15   C     C_R   0.325342 0.463161 0.369250 0.268209
C16   C     C_R   0.674509 0.537222 0.631460 0.268298
C17   C     C_R   0.251541 0.506211 0.527530 -0.181164
C18   C     C_R   0.748486 0.492109 0.474878 -0.180894
C19   C     C_R   0.100658 0.490174 0.542577 -0.171199
C20   C     C_R   0.899404 0.506194 0.463663 -0.171076
C21   C     C_R   0.127620 0.359639 0.499878 -0.204027
C22   C     C_R   0.872497 0.637077 0.505488 -0.204069
C23   C     C_R   0.124241 0.618973 0.601433 -0.210316
C24   C     C_R   0.875791 0.377527 0.404560 -0.210497
C25   C     C_R   0.102966 0.227444 0.457328 0.345765
C26   C     C_R   0.897174 0.768945 0.549039 0.346087
C27   C     C_R   0.096861 0.734322 0.678994 0.361475
C28   C     C_R   0.903181 0.261699 0.327941 0.361453
C29   C     C_R   0.352469 0.507666 0.507991 -0.457675
C30   C     C_R   0.647527 0.492511 0.492441 -0.457433
C31   C     C_R   0.976686 0.374376 0.429579 -0.057936
C32   C     C_R   0.023335 0.621400 0.577971 -0.058071
C33   C     C_R   0.973545 0.630675 0.544116 -0.069164
C34   C     C_R   0.026493 0.365200 0.463326 -0.069027
C35   C     C_R   0.949980 0.503381 0.480486 -0.041292
C36   C     C_R   0.050054 0.492592 0.526665 -0.041693
C37   C     C_R   0.953128 0.265108 0.333530 0.672786
C38   C     C_R   0.046906 0.730530 0.674148 0.673304
C39   C     C_R   0.947030 0.766209 0.559820 0.677172
C40   C     C_R   0.053073 0.229789 0.447567 0.677560
C41   C     C_1   0.500016 0.065171 0.499289 -0.120914
C42   C     C_1   0.499984 0.934829 0.500711 -0.120767
N3    N     N_1   0.500000 0.500000 0.073640 0.028881
N4    N     N_1   0.500000 0.500000 0.926360 0.028942
Cl1   Cl    Cl    0.351595 0.393348 0.182862 -0.372562
Cl2   Cl    Cl    0.648095 0.608692 0.816893 -0.373354
Cl3   Cl    Cl    0.356833 0.632240 0.828994 -0.382240
Cl4   Cl    Cl    0.643409 0.368122 0.171356 -0.382149
F1    F     F_    0.249410 0.431281 0.243259 -0.524635
F2    F     F_    0.750263 0.568382 0.758797 -0.524813
F3    F     F_    0.254858 0.582701 0.810979 -0.518066
F4    F     F_    0.745523 0.414675 0.191655 -0.518412
Cl5   Cl    Cl    0.131631 0.053288 0.413317 -0.312608
Cl6   Cl    Cl    0.868574 0.943109 0.593626 -0.312500
Cl7   Cl    Cl    0.122657 0.875239 0.803535 -0.289550
Cl8   Cl    Cl    0.877444 0.120651 0.203416 -0.289571
F5    F     F_    0.978133 0.172243 0.228396 -0.533998
F6    F     F_    0.021926 0.822887 0.779913 -0.533884
F7    F     F_    0.969305 0.900338 0.569300 -0.511974
F8    F     F_    0.030855 0.095508 0.438996 -0.511997

loop_
_geom_bond_atom_site_label_1
_geom_bond_atom_site_label_2
_geom_bond_distance
_ccdc_geom_bond_type
O5    Zn1   2.022781 S    
C13   Cl3   1.768478 S    
C5    O9    1.347825 S    
C40   F8    1.356127 S    
C14   Cl4   1.768288 S    
C15   Cl1   1.766721 S    
C12   F2    1.359184 S    
C9    F3    1.359282 S    
O3    C2    1.260232 A    
Zn1   N4    1.967469 S    
C11   C17   1.399668 A    
C32   C38   1.414244 A    
Zn2   N3    1.967469 S    
C7    N1    1.365689 A    
O1    C1    1.257333 A    
C19   C21   1.415836 A    
C22   C26   1.413683 A    
C32   C36   1.417313 A    
C26   Cl6   1.770249 S    
O7    Zn1   2.009478 S    
C7    C23   1.401578 A    
C2    C42   1.363367 S    
C5    C21   1.408222 A    
C8    C24   1.401706 A    
C38   F6    1.358614 S    
C28   C37   1.391595 A    
C10   C18   1.396836 A    
N1    C17   1.434083 S    
N2    C18   1.434072 S    
C34   C36   1.414694 A    
O3    Zn1   1.955269 S    
O6    C4    1.278686 A    
C31   C37   1.414358 A    
C39   F7    1.356065 S    
C5    N1    1.366812 A    
C12   C18   1.399690 A    
N3    N4    1.189624 T    
C6    N2    1.366639 A    
C21   C25   1.413811 A    
O2    C2    1.257334 A    
O5    C3    1.278443 A    
C31   C34   1.418629 A    
C9    C13   1.390619 A    
C11   C15   1.393137 A    
C12   C16   1.392856 A    
C27   Cl7   1.769358 S    
C4    C30   1.475825 S    
O8    Zn2   2.009481 S    
C31   C35   1.417658 A    
C33   C35   1.414898 A    
C33   C39   1.414041 A    
C7    O11   1.348837 S    
C13   C29   1.421470 A    
C19   C23   1.412486 A    
C25   C40   1.391553 A    
C11   F1    1.359123 S    
C26   C39   1.391185 A    
C27   C38   1.391641 A    
C20   C24   1.412604 A    
C6    O10   1.348053 S    
C20   C35   1.415896 A    
C32   C33   1.418394 A    
C10   C14   1.391016 A    
C8    N2    1.365685 A    
C3    C29   1.475944 S    
O1    Zn1   1.948431 S    
C25   Cl5   1.770114 S    
O6    Zn2   2.022778 S    
C8    O12   1.348763 S    
C16   C30   1.418483 A    
C14   C30   1.421437 A    
C37   F5    1.358566 S    
O4    C1    1.260232 A    
C23   C27   1.409756 A    
C1    C41   1.363367 S    
C10   F4    1.359369 S    
C20   C22   1.415991 A    
C16   Cl2   1.767105 S    
C41   C42   1.163788 T    
C28   Cl8   1.769419 S    
O4    Zn2   1.955270 S    
O2    Zn2   1.948430 S    
O7    C4    1.282492 A    
C34   C40   1.414058 A    
O8    C3    1.282801 A    
C24   C28   1.409739 A    
C15   C29   1.418395 A    
C6    C22   1.408076 A    
C19   C36   1.415825 A    
C9    C17   1.396744 A    
