data_mof_unit_24427.cif
_audit_creation_date              2012-12-10T19:09:32-0500
_audit_creation_method            fapswitch 2.2
_symmetry_space_group_name_H-M    P1
_symmetry_Int_Tables_number       1
_space_group_crystal_system       triclinic
_cell_length_a                    15.09094
_cell_length_b                    15.040586
_cell_length_c                    9.773844
_cell_angle_alpha                 90.016201
_cell_angle_beta                  89.947581
_cell_angle_gamma                 89.917687
_cell_volume                      2218.43038601

loop_
_atom_site_label
_atom_site_type_symbol
_atom_type_description
_atom_site_fract_x
_atom_site_fract_y
_atom_site_fract_z
_atom_type_partial_charge
C1    C     C_R   0.119829 0.377791 0.500193 0.926640
C2    C     C_R   0.120137 0.621828 0.500053 0.928501
C3    C     C_R   0.619787 0.877776 0.499753 0.933653
C4    C     C_R   0.620158 0.121801 0.499905 0.932557
C5    C     C_3   0.934898 0.566519 0.081028 -0.390743
C6    C     C_3   0.929822 0.561195 0.919239 -0.474820
C7    C     C_3   0.432092 0.063685 0.081075 -0.448206
C8    C     C_3   0.436943 0.068428 0.919338 -0.395461
C9    C     C_R   0.878587 0.378935 0.499769 0.953135
C10   C     C_R   0.878163 0.620506 0.499673 0.941930
C11   C     C_R   0.378494 0.879035 0.500269 0.946268
C12   C     C_R   0.378186 0.120503 0.500419 0.934782
C13   C     C_3   0.848658 0.221457 0.557051 0.897076
C14   C     C_3   0.774911 0.294932 0.349631 0.955310
C15   C     C_3   0.772172 0.701492 0.349398 0.892907
C16   C     C_3   0.848790 0.778265 0.551847 0.906933
C17   C     C_3   0.274503 0.795218 0.650359 0.955063
C18   C     C_3   0.348649 0.721604 0.443023 0.906850
C19   C     C_3   0.348880 0.278149 0.447979 0.916537
C20   C     C_3   0.272261 0.201730 0.650842 0.890682
C21   C     C_3   0.203319 0.723429 0.648332 -0.438166
C22   C     C_3   0.275375 0.650066 0.444319 -0.503656
C23   C     C_3   0.275867 0.350014 0.450853 -0.498300
C24   C     C_3   0.200084 0.272937 0.648520 -0.431611
C25   C     C_3   0.775378 0.149917 0.555507 -0.482586
C26   C     C_3   0.703551 0.223319 0.351623 -0.437229
C27   C     C_3   0.699968 0.772663 0.351614 -0.442074
C28   C     C_3   0.775783 0.850155 0.548771 -0.483690
C29   C     C_3   0.731075 0.341036 0.589769 -0.534618
C30   C     C_3   0.731865 0.659472 0.592827 -0.552945
C31   C     C_3   0.231074 0.841101 0.410172 -0.534477
C32   C     C_3   0.231924 0.159283 0.407700 -0.551239
C33   C     C_3   0.810068 0.310410 0.498891 -0.095468
C34   C     C_3   0.809445 0.688632 0.498221 -0.031582
C35   C     C_3   0.309941 0.810556 0.501154 -0.095193
C36   C     C_3   0.309506 0.188620 0.501979 -0.033775
C37   C     C_3   0.188071 0.690008 0.500435 -0.118517
C38   C     C_3   0.187635 0.309283 0.501239 -0.103258
C39   C     C_3   0.688140 0.189922 0.499490 -0.129730
C40   C     C_3   0.687565 0.809288 0.498758 -0.106291
C41   C     C_3   0.158702 0.769536 0.410352 -0.343908
C42   C     C_3   0.160116 0.231494 0.406411 -0.340883
C43   C     C_3   0.658731 0.269452 0.589694 -0.348725
C44   C     C_3   0.660058 0.731709 0.594064 -0.347333
C45   C     C_3   0.969909 0.411904 0.081728 0.860957
C46   C     C_3   0.977960 0.409444 0.918848 0.832214
C47   C     C_3   0.084973 0.532855 0.917296 0.851693
C48   C     C_3   0.087534 0.526197 0.079750 0.724528
C49   C     C_3   0.474378 0.910343 0.081270 0.820670
C50   C     C_3   0.467492 0.912785 0.918134 0.832567
C51   C     C_3   0.588544 0.022990 0.918630 0.769145
C52   C     C_3   0.586370 0.029761 0.082699 0.752598
H1    H     H_    0.224639 0.667211 0.714873 0.255151
H2    H     H_    0.296283 0.592795 0.508944 0.192826
H3    H     H_    0.295848 0.405475 0.519709 0.199954
H4    H     H_    0.218970 0.327738 0.719394 0.245320
H5    H     H_    0.796366 0.092728 0.490660 0.192670
H6    H     H_    0.724827 0.167060 0.285031 0.258426
H7    H     H_    0.718843 0.827312 0.280465 0.240932
H8    H     H_    0.795798 0.905395 0.479506 0.200285
H9    H     H_    0.139994 0.749730 0.691147 0.226813
H10   H     H_    0.264575 0.623638 0.339179 0.213984
H11   H     H_    0.266939 0.379088 0.347031 0.192681
H12   H     H_    0.136216 0.245024 0.686261 0.224341
H13   H     H_    0.764446 0.123332 0.660545 0.237459
H14   H     H_    0.640317 0.249745 0.308862 0.225192
H15   H     H_    0.636090 0.744695 0.314142 0.221962
H16   H     H_    0.766784 0.879619 0.652444 0.215186
H17   H     H_    0.753006 0.353070 0.696824 0.290186
H18   H     H_    0.703266 0.404907 0.551385 0.223083
H19   H     H_    0.703059 0.595530 0.556827 0.231813
H20   H     H_    0.755465 0.648183 0.699299 0.239604
H21   H     H_    0.203233 0.905038 0.448373 0.223426
H22   H     H_    0.253137 0.852978 0.303107 0.292935
H23   H     H_    0.255519 0.147809 0.301194 0.241405
H24   H     H_    0.203123 0.095401 0.443987 0.231814
H25   H     H_    0.095835 0.798288 0.450327 0.248143
H26   H     H_    0.146356 0.747497 0.303378 0.279508
H27   H     H_    0.151167 0.255396 0.299730 0.236003
H28   H     H_    0.095973 0.202801 0.440937 0.259025
H29   H     H_    0.646365 0.247403 0.696688 0.277305
H30   H     H_    0.595864 0.298186 0.549887 0.247756
H31   H     H_    0.595907 0.702941 0.559868 0.259150
H32   H     H_    0.651086 0.755889 0.700699 0.231919
H33   H     H_    0.867776 0.556730 0.125052 0.273894
H34   H     H_    0.862446 0.539415 0.887801 0.240490
H35   H     H_    0.936993 0.629017 0.875534 0.287832
H36   H     H_    0.953874 0.634983 0.112189 0.295029
H37   H     H_    0.363978 0.044680 0.113152 0.238159
H38   H     H_    0.369433 0.060316 0.876109 0.274062
H39   H     H_    0.457495 0.136290 0.887491 0.291452
H40   H     H_    0.441805 0.131259 0.124539 0.286835
N1    N     N_3   0.998760 0.500000 0.138610 -0.236839
N2    N     N_3   0.998760 0.500000 0.861390 -0.210582
N3    N     N_3   0.498760 0.000000 0.138610 -0.197589
N4    N     N_3   0.498760 0.000000 0.861390 -0.231590
O1    O     O_R   0.092530 0.407440 0.616040 -0.554689
O2    O     O_R   0.092530 0.407440 0.383960 -0.617793
O3    O     O_R   0.092530 0.592560 0.383960 -0.581707
O4    O     O_R   0.092530 0.592560 0.616040 -0.559225
O5    O     O_R   0.592530 0.907440 0.616040 -0.571764
O6    O     O_R   0.592530 0.907440 0.383960 -0.557554
O7    O     O_R   0.592530 0.092560 0.383960 -0.557827
O8    O     O_R   0.592530 0.092560 0.616040 -0.545198
O9    O     O_R   0.907330 0.407420 0.616040 -0.545528
O10   O     O_R   0.907330 0.407420 0.383960 -0.494550
O11   O     O_R   0.907330 0.592580 0.383960 -0.562144
O12   O     O_R   0.907330 0.592580 0.616040 -0.624712
O13   O     O_R   0.407330 0.907420 0.616040 -0.495895
O14   O     O_R   0.407330 0.907420 0.383960 -0.544353
O15   O     O_R   0.407330 0.092580 0.383960 -0.625920
O16   O     O_R   0.407330 0.092580 0.616040 -0.566413
Zn1   Zn    Zn3+2 0.999890 0.500000 0.654960 1.079297
Zn2   Zn    Zn3+2 0.999890 0.500000 0.345040 1.085606
Zn3   Zn    Zn3+2 0.499890 0.000000 0.654960 1.120458
Zn4   Zn    Zn3+2 0.499890 0.000000 0.345040 1.081633
O17   O     O_3   0.878909 0.233795 0.691865 -0.668292
H41   H     H_    0.914635 0.180609 0.716105 0.370119
O18   O     O_3   0.739324 0.374522 0.296827 -0.734981
H42   H     H_    0.725447 0.363733 0.198935 0.397220
O19   O     O_3   0.736671 0.620886 0.300654 -0.768624
H43   H     H_    0.724952 0.628929 0.201464 0.353898
O20   O     O_3   0.880149 0.767943 0.686559 -0.782294
H44   H     H_    0.916302 0.821257 0.707963 0.363493
O21   O     O_3   0.238593 0.874813 0.702781 -0.732683
H45   H     H_    0.224190 0.864068 0.800535 0.398226
O22   O     O_3   0.379199 0.733963 0.308276 -0.669932
H46   H     H_    0.414965 0.680772 0.284059 0.368221
O23   O     O_3   0.380342 0.267583 0.313267 -0.780258
H47   H     H_    0.416537 0.320842 0.291657 0.362529
O24   O     O_3   0.236719 0.121219 0.699921 -0.766723
H48   H     H_    0.225034 0.129413 0.799131 0.356646
F1    F     F_    0.919273 0.193370 0.476326 -0.658098
F2    F     F_    0.843355 0.265806 0.265373 -0.535473
F3    F     F_    0.839217 0.729327 0.261420 -0.645607
F4    F     F_    0.918766 0.804487 0.468526 -0.659594
F5    F     F_    0.342786 0.766415 0.734964 -0.536226
F6    F     F_    0.419078 0.693524 0.523917 -0.659786
F7    F     F_    0.418788 0.304551 0.531126 -0.661853
F8    F     F_    0.339323 0.229661 0.738559 -0.642898
F9    F     F_    0.880802 0.401376 0.112140 -0.546186
F10   F     F_    0.895861 0.383434 0.869686 -0.549118
F11   F     F_    0.094637 0.621935 0.881254 -0.628750
F12   F     F_    0.110278 0.610257 0.128182 -0.616333
F13   F     F_    0.390777 0.888286 0.129413 -0.550419
F14   F     F_    0.378346 0.904512 0.886646 -0.542343
F15   F     F_    0.611949 0.106744 0.871617 -0.578801
F16   F     F_    0.598132 0.118840 0.117577 -0.616515
O25   O     O_3   0.011545 0.339887 0.147935 -0.636952
H49   H     H_    0.075103 0.338113 0.126352 0.313099
O26   O     O_3   0.037559 0.344499 0.870301 -0.700290
H50   H     H_    0.095585 0.351395 0.915199 0.311421
O27   O     O_3   0.155946 0.486740 0.856723 -0.764938
H51   H     H_    0.211021 0.519320 0.880393 0.377651
O28   O     O_3   0.154206 0.466363 0.120404 -0.840407
H52   H     H_    0.181746 0.489507 0.205267 0.379604
O29   O     O_3   0.530314 0.842742 0.131313 -0.693233
H53   H     H_    0.590048 0.848902 0.092007 0.278595
O30   O     O_3   0.507732 0.839957 0.851869 -0.629742
H54   H     H_    0.569762 0.833502 0.880230 0.278549
O31   O     O_3   0.653875 0.965703 0.864403 -0.761939
H55   H     H_    0.676126 0.923909 0.934136 0.291070
O32   O     O_3   0.655589 0.982941 0.146324 -0.808929
H56   H     H_    0.711494 0.014757 0.124722 0.370036

loop_
_geom_bond_atom_site_label_1
_geom_bond_atom_site_label_2
_ccdc_geom_bond_type
C16   C28   S    
C9    C33   S    
C42   H28   S    
O29   H53   S    
C29   C33   S    
C11   O13   A    
C10   O12   A    
O32   H56   S    
C8    N4    S    
C44   H31   S    
C49   O29   S    
C14   C33   S    
O31   H55   S    
C7    C8    S    
C46   F10   S    
C45   C46   S    
O10   Zn2   S    
C32   C36   S    
O9    Zn1   S    
C28   H16   S    
C16   O20   S    
C38   C42   S    
C19   C36   S    
O30   H54   S    
C41   H25   S    
C5    C6    S    
C26   C39   S    
O2    Zn2   S    
C15   F3    S    
C28   C40   S    
C9    O9    A    
C7    H37   S    
C4    O7    A    
C47   F11   S    
C48   F12   S    
C52   N3    S    
C18   F6    S    
C16   C34   S    
C5    H36   S    
C20   C24   S    
C6    N2    S    
C32   H24   S    
C24   C38   S    
O26   H50   S    
N4    Zn3   S    
O15   Zn4   S    
C12   C36   S    
C15   O19   S    
C18   C35   S    
C27   C40   S    
C15   C34   S    
C21   H9    S    
C52   F16   S    
C51   N4    S    
C5    H33   S    
C3    O5    A    
C23   H11   S    
C46   O26   S    
C2    O4    A    
C42   H27   S    
C24   H12   S    
C29   C43   S    
C11   O14   A    
C45   F9    S    
C30   C44   S    
C10   O11   A    
C25   H5    S    
O3    Zn2   S    
N2    Zn1   S    
C30   H19   S    
C29   H17   S    
C28   H8    S    
O28   H52   S    
C48   N1    S    
C30   C34   S    
C51   C52   S    
C26   H14   S    
O20   H44   S    
C25   H13   S    
C22   H2    S    
C1    O1    A    
C41   H26   S    
C31   H22   S    
C39   C43   S    
C14   F2    S    
C44   H32   S    
C9    O10   A    
C22   C37   S    
C14   C26   S    
C6    H35   S    
O12   Zn1   S    
C19   C23   S    
C17   O21   S    
O11   Zn2   S    
C13   C33   S    
C32   H23   S    
C18   O22   S    
C22   H10   S    
O8    Zn3   S    
C15   C27   S    
C47   C48   S    
C46   N2    S    
C4    C39   S    
C51   F15   S    
N3    Zn4   S    
C49   F13   S    
C10   C34   S    
C8    H39   S    
C49   N3    S    
C26   H6    S    
O19   H43   S    
C1    C38   S    
C3    O6    A    
C48   O28   S    
C45   N1    S    
C14   O18   S    
O21   H45   S    
O5    Zn3   S    
C31   C35   S    
C8    H38   S    
C20   O24   S    
O1    Zn1   S    
O22   H46   S    
C16   F4    S    
O14   Zn4   S    
C12   O16   A    
C7    N3    S    
C29   H18   S    
C19   O23   S    
C31   C41   S    
C3    C40   S    
C18   C22   S    
C13   F1    S    
O4    Zn1   S    
C30   H20   S    
C13   C25   S    
C1    O2    A    
C2    O3    A    
C5    N1    S    
O18   H42   S    
C23   H3    S    
C50   O30   S    
C24   H4    S    
C23   C38   S    
C47   O27   S    
C6    H34   S    
C20   F8    S    
C11   C35   S    
O7    Zn4   S    
O23   H47   S    
C27   H7    S    
O17   H41   S    
C25   C39   S    
C21   H1    S    
C2    C37   S    
C50   F14   S    
C43   H29   S    
C27   H15   S    
C4    O8    A    
C47   N2    S    
C51   O31   S    
C45   O25   S    
N1    Zn2   S    
O16   Zn3   S    
O6    Zn4   S    
C37   C41   S    
C17   C21   S    
C31   H21   S    
O13   Zn3   S    
C52   O32   S    
C20   C36   S    
C40   C44   S    
C21   C37   S    
C19   F7    S    
C49   C50   S    
C50   N4    S    
C7    H40   S    
C13   O17   S    
C43   H30   S    
C32   C42   S    
C17   F5    S    
C17   C35   S    
O27   H51   S    
O25   H49   S    
C12   O15   A    
O24   H48   S    
