data_mof_unit_24249.cif
_audit_creation_date              2012-12-10T17:16:43-0500
_audit_creation_method            fapswitch 2.2
_symmetry_space_group_name_H-M    P1
_symmetry_Int_Tables_number       1
_space_group_crystal_system       triclinic
_cell_length_a                    23.186386
_cell_length_b                    12.951607
_cell_length_c                    11.890016
_cell_angle_alpha                 102.422653
_cell_angle_beta                  92.6855
_cell_angle_gamma                 93.979656
_cell_volume                      3471.57612311

loop_
_atom_site_label
_atom_site_type_symbol
_atom_type_description
_atom_site_fract_x
_atom_site_fract_y
_atom_site_fract_z
_atom_type_partial_charge
C1    C     C_R   0.505675 0.299912 0.476801 0.847667
C2    C     C_R   0.496737 0.701337 0.524589 0.821761
C3    C     C_R   0.252635 0.610335 0.633355 0.393809
C4    C     C_R   0.750550 0.405123 0.590654 0.424476
C5    C     C_R   0.309984 0.613124 0.594651 -0.091913
C6    C     C_R   0.695683 0.399264 0.532050 0.020255
C7    C     C_R   0.326804 0.522848 0.513121 -0.135403
C8    C     C_R   0.674992 0.490844 0.503414 -0.137620
C9    C     C_R   0.281149 0.448628 0.454422 0.042179
C10   C     C_R   0.716122 0.577732 0.502006 -0.017728
C11   C     C_R   0.224592 0.481446 0.456735 0.348927
C12   C     C_R   0.776184 0.573840 0.535846 0.373280
C13   C     C_R   0.208168 0.547414 0.558251 0.066179
C14   C     C_R   0.792632 0.487860 0.585284 0.041688
C15   C     C_R   0.489062 0.816910 0.544061 -0.325090
C16   C     C_R   0.516021 0.186060 0.463403 -0.341479
C17   C     C_R   0.493913 0.006964 0.350212 -0.128673
C18   C     C_R   0.510499 0.996093 0.657144 -0.127930
C19   C     C_R   0.509412 0.113966 0.354654 0.401036
C20   C     C_R   0.500471 0.888753 0.653818 0.365921
C21   C     C_R   0.526747 0.144536 0.563417 0.366739
C22   C     C_R   0.474271 0.860441 0.447296 0.348964
C23   C     C_R   0.390234 0.503912 0.502315 0.858679
C24   C     C_R   0.610077 0.500121 0.499708 0.815715
C25   C     C_R   0.510671 0.036240 0.557333 -0.079805
C26   C     C_R   0.491498 0.967985 0.451215 -0.085071
C27   C     C_R   0.441145 0.400104 0.014127 -0.027428
C28   C     C_R   0.574535 0.530230 0.963763 0.013348
C29   C     C_R   0.447521 0.406998 0.137862 0.586461
C30   C     C_R   0.564354 0.548789 0.851174 0.614173
C31   C     C_R   0.528819 0.533663 0.152591 0.280141
C32   C     C_R   0.464981 0.491104 0.852493 0.228986
C33   C     C_R   0.526607 0.514054 0.028512 -0.121042
C34   C     C_R   0.475894 0.470939 0.965874 -0.095968
C35   C     C_R   0.881733 0.556500 0.704207 0.701051
C36   C     C_R   0.125334 0.436032 0.592129 0.669168
C37   C     C_R   0.882088 0.396204 0.563048 0.710659
C38   C     C_R   0.116058 0.621172 0.615313 0.716940
C39   C     C_R   0.942118 0.392084 0.589626 -0.149054
C40   C     C_R   0.059076 0.608540 0.652669 -0.158847
C41   C     C_R   0.972731 0.488528 0.644054 -0.062690
C42   C     C_R   0.032613 0.503465 0.633095 -0.071458
C43   C     C_R   0.943092 0.570974 0.707599 -0.085771
C44   C     C_R   0.064641 0.414793 0.595399 -0.042689
C45   C     C_R   0.972781 0.299431 0.558941 0.313397
C46   C     C_R   0.027309 0.693953 0.709363 0.342751
C47   C     C_R   0.034891 0.310366 0.563362 0.032032
C48   C     C_R   0.975089 0.668195 0.759473 0.050892
Cu1   Cu    Cu3+1 0.504210 0.507730 0.615930 1.075228
Cu2   Cu    Cu3+1 0.495790 0.492270 0.384070 1.087269
H1    H     H_    0.486976 0.953077 0.266641 0.229152
H2    H     H_    0.518357 0.048492 0.740932 0.248558
N1    N     N_R   0.853017 0.479130 0.619554 -0.419895
N2    N     N_R   0.148539 0.535764 0.590048 -0.420318
N3    N     N_R   0.510550 0.519360 0.790130 -0.242384
N4    N     N_R   0.489450 0.480640 0.209870 -0.239625
O1    O     O_R   0.502990 0.354470 0.582000 -0.537748
O2    O     O_R   0.497010 0.645530 0.418000 -0.555860
O3    O     O_R   0.495870 0.341410 0.386200 -0.478269
O4    O     O_R   0.504130 0.658590 0.613800 -0.502999
O5    O     O_R   0.421440 0.506500 0.597920 -0.627647
O6    O     O_R   0.578560 0.493500 0.402080 -0.620812
O7    O     O_R   0.414320 0.493440 0.402120 -0.463852
O8    O     O_R   0.585680 0.506560 0.597880 -0.485900
O9    O     O_2   0.850657 0.622488 0.776279 -0.491994
O10   O     O_2   0.161662 0.359407 0.592237 -0.564584
O11   O     O_2   0.853874 0.322113 0.477522 -0.451724
O12   O     O_2   0.139480 0.716285 0.605135 -0.410969
S1    S     S_3+6 0.932864 0.171142 0.528472 0.083299
O13   O     O_2   0.912981 0.142380 0.402747 -0.175976
O14   O     O_2   0.966627 0.083632 0.555365 -0.259993
O15   O     O_3   0.874816 0.175483 0.607627 -0.391984
H3    H     H_    0.890898 0.186155 0.688339 0.367595
S2    S     S_3+6 0.047438 0.829725 0.708151 0.080139
O16   O     O_2   0.054851 0.838889 0.585667 -0.166106
O17   O     O_2   0.001848 0.901265 0.754983 -0.270340
O18   O     O_3   0.110267 0.872113 0.786449 -0.433983
H4    H     H_    0.115798 0.820374 0.835586 0.355685
C49   C     C_3   0.407866 0.538137 0.837528 -0.263901
C50   C     C_3   0.357907 0.457972 0.785547 -0.746554
H5    H     H_    0.328428 0.491122 0.730445 0.262913
H6    H     H_    0.373785 0.385887 0.732004 0.236523
H7    H     H_    0.330983 0.442205 0.854995 0.270319
H8    H     H_    0.395805 0.584053 0.922329 0.226265
H9    H     H_    0.412670 0.597928 0.785202 0.253002
C51   C     C_3   0.573929 0.617820 0.216562 -0.372137
C52   C     C_3   0.571027 0.726887 0.185978 -0.638169
H10   H     H_    0.542559 0.724106 0.107498 0.287485
H11   H     H_    0.555494 0.784289 0.259323 0.247990
H12   H     H_    0.614984 0.758645 0.170779 0.241750
H13   H     H_    0.574884 0.629953 0.309918 0.241468
H14   H     H_    0.614984 0.588142 0.192322 0.185298
S3    S     S_3+6 0.619549 0.636273 0.812867 0.066371
O19   O     O_2   0.669147 0.574186 0.767831 -0.308597
O20   O     O_2   0.599647 0.695034 0.724807 -0.228479
O21   O     O_3   0.643592 0.727915 0.931615 -0.534246
H15   H     H_    0.679164 0.763642 0.909722 0.395074
S4    S     S_3+6 0.390815 0.330278 0.190219 0.031925
O22   O     O_2   0.400732 0.308928 0.307113 -0.294404
O23   O     O_2   0.338039 0.391190 0.188107 -0.310148
O24   O     O_3   0.375211 0.207721 0.109297 -0.514288
H16   H     H_    0.337831 0.182415 0.135172 0.373300
C53   C     C_3   0.417394 0.296006 0.929192 -0.247427
C54   C     C_3   0.351282 0.268675 0.910705 -0.679090
H17   H     H_    0.335568 0.265888 0.820735 0.202025
H18   H     H_    0.339849 0.186038 0.918394 0.275396
H19   H     H_    0.326797 0.324070 0.971102 0.294652
H20   H     H_    0.432846 0.294014 0.842170 0.221210
H21   H     H_    0.438183 0.229316 0.955211 0.270140
C55   C     C_3   0.628339 0.473611 0.986485 -0.360010
C56   C     C_3   0.685244 0.543246 0.021861 -0.677052
H22   H     H_    0.710455 0.548086 0.946310 0.315287
H23   H     H_    0.678165 0.624299 0.068686 0.263557
H24   H     H_    0.712930 0.506449 0.078447 0.219763
H25   H     H_    0.620395 0.427594 0.054035 0.198723
H26   H     H_    0.634752 0.412545 0.908030 0.272567
C57   C     C_3   0.067725 0.212270 0.522899 -0.301443
C58   C     C_3   0.088943 0.165609 0.624144 -0.580193
H27   H     H_    0.123723 0.218457 0.678950 0.261828
H28   H     H_    0.053397 0.153998 0.680516 0.275705
H29   H     H_    0.106233 0.087847 0.590473 0.266524
H30   H     H_    0.041280 0.151047 0.458227 0.246309
H31   H     H_    0.104152 0.227905 0.471128 0.262492
C59   C     C_3   0.956407 0.737298 0.870585 -0.305220
C60   C     C_3   0.006165 0.773856 0.963079 -0.744651
H32   H     H_    0.033481 0.707642 0.968253 0.256750
H33   H     H_    0.033266 0.841748 0.945933 0.282629
H34   H     H_    0.988239 0.801042 0.048498 0.267936
H35   H     H_    0.934153 0.805748 0.853096 0.266912
H36   H     H_    0.925461 0.690363 0.911889 0.247507
S5    S     S_3+6 0.239231 0.672082 0.778408 0.008669
O25   O     O_2   0.226163 0.785045 0.784852 -0.247911
O26   O     O_2   0.188826 0.614009 0.819445 -0.293599
O27   O     O_3   0.297103 0.671189 0.868586 -0.561256
H37   H     H_    0.286446 0.709701 0.945128 0.396766
S6    S     S_3+6 0.762563 0.316468 0.683539 0.069652
O28   O     O_2   0.761678 0.204749 0.614107 -0.203138
O29   O     O_2   0.818816 0.345413 0.755203 -0.304605
O30   O     O_3   0.708816 0.322923 0.773743 -0.486866
H38   H     H_    0.720881 0.282559 0.831562 0.376804
C61   C     C_3   0.351430 0.711018 0.638961 -0.295687
C62   C     C_3   0.330299 0.808084 0.600565 -0.629827
H39   H     H_    0.316701 0.788724 0.507251 0.284573
H40   H     H_    0.293051 0.837769 0.648916 0.283291
H41   H     H_    0.365666 0.872867 0.617076 0.235938
H42   H     H_    0.358104 0.729320 0.733883 0.275761
H43   H     H_    0.394296 0.698895 0.605375 0.200052
C63   C     C_3   0.664995 0.291494 0.478042 -0.313368
C64   C     C_3   0.694348 0.239269 0.370453 -0.678891
H44   H     H_    0.693442 0.289773 0.305856 0.251533
H45   H     H_    0.740009 0.226794 0.392582 0.294712
H46   H     H_    0.671014 0.160987 0.331572 0.279473
H47   H     H_    0.664222 0.237665 0.538655 0.298961
H48   H     H_    0.619572 0.298904 0.451504 0.202017
C65   C     C_3   0.285712 0.329497 0.417628 -0.283690
C66   C     C_3   0.317800 0.281813 0.506959 -0.806501
H49   H     H_    0.364494 0.308447 0.517349 0.251665
H50   H     H_    0.297852 0.302772 0.591078 0.257057
H51   H     H_    0.314092 0.194019 0.478273 0.263742
H52   H     H_    0.241779 0.287496 0.406043 0.231509
H53   H     H_    0.302379 0.306916 0.332479 0.279784
C67   C     C_3   0.697622 0.663511 0.444273 -0.273211
C68   C     C_3   0.710567 0.632432 0.317175 -0.777928
H54   H     H_    0.756658 0.621531 0.303016 0.300763
H55   H     H_    0.688552 0.553040 0.279342 0.224031
H56   H     H_    0.696913 0.693896 0.271848 0.247295
H57   H     H_    0.650751 0.673416 0.450705 0.164713
H58   H     H_    0.718837 0.742205 0.487466 0.271621
S7    S     S_3+6 0.175449 0.440705 0.333540 0.043552
O31   O     O_2   0.129416 0.517333 0.337295 -0.219972
O32   O     O_2   0.208213 0.439704 0.227141 -0.238089
O33   O     O_3   0.143398 0.318928 0.326854 -0.558917
H59   H     H_    0.156545 0.273303 0.256336 0.371271
S8    S     S_3+6 0.831212 0.676855 0.522965 0.044826
O34   O     O_2   0.886615 0.627760 0.490173 -0.293693
O35   O     O_2   0.816565 0.740894 0.435935 -0.246784
O36   O     O_3   0.842821 0.763560 0.650670 -0.463620
H60   H     H_    0.880715 0.802456 0.646504 0.399633
S9    S     S_3+6 0.420990 0.792742 0.337421 -0.004991
O37   O     O_2   0.448215 0.752153 0.226199 -0.303547
O38   O     O_2   0.388994 0.701288 0.372853 -0.289442
O39   O     O_3   0.373073 0.879099 0.315004 -0.528298
H61   H     H_    0.345102 0.838096 0.253277 0.389320
S10   S     S_3+6 0.567489 0.219619 0.691392 -0.025433
O40   O     O_2   0.597291 0.321859 0.676871 -0.266311
O41   O     O_2   0.527746 0.244304 0.787858 -0.371730
O42   O     O_3   0.618380 0.144355 0.728656 -0.498566
H62   H     H_    0.622840 0.163857 0.814035 0.377838
S11   S     S_3+6 0.499448 0.861665 0.794721 0.028730
O43   O     O_2   0.472235 0.754998 0.799893 -0.316774
O44   O     O_2   0.560447 0.875223 0.847213 -0.214735
O45   O     O_3   0.461563 0.953113 0.875670 -0.530333
H63   H     H_    0.469199 0.945493 0.956049 0.404142
S12   S     S_3+6 0.532203 0.145253 0.224595 0.006659
O46   O     O_2   0.480215 0.147507 0.145785 -0.232525
O47   O     O_2   0.568253 0.249226 0.244481 -0.317312
O48   O     O_3   0.572117 0.048569 0.159807 -0.540279
H64   H     H_    0.578013 0.062751 0.082359 0.394313

loop_
_geom_bond_atom_site_label_1
_geom_bond_atom_site_label_2
_ccdc_geom_bond_type
C21   S10   S    
S12   O47   D    
C52   H10   S    
C16   C21   A    
C35   N1    A    
S7    O32   D    
S7    O31   D    
C68   H54   S    
C46   S2    S    
S5    O27   S    
C17   H1    S    
C54   H18   S    
C18   H2    S    
C39   C41   A    
O18   H4    S    
C65   H53   S    
C40   C46   A    
O24   H16   S    
Cu1   O4    S    
S2    O17   D    
C29   S4    S    
C3    S5    S    
C17   C26   A    
C12   S8    S    
C66   H49   S    
C68   H55   S    
C67   C68   S    
C30   S3    S    
C51   H13   S    
C64   H45   S    
C49   H8    S    
C8    C10   A    
C2    O4    A    
C23   O7    A    
S12   O48   S    
C27   C29   A    
C35   O9    S    
S4    O22   D    
Cu1   O1    S    
S10   O40   D    
S11   O44   D    
C41   C42   A    
S1    O14   D    
C58   H27   S    
S3    O19   D    
O39   H61   S    
C61   C62   S    
C15   C22   A    
C56   H22   S    
S11   O45   S    
S2    O18   S    
C60   H34   S    
C31   C33   A    
C53   H20   S    
C31   N4    A    
C35   C43   A    
C43   C48   A    
C32   N3    A    
C18   C20   A    
C3    C13   A    
C44   C47   A    
C4    S6    S    
S9    O39   S    
C37   N1    A    
C40   C42   A    
S12   O46   D    
S3    O20   D    
C31   C51   S    
Cu2   O7    S    
C41   C43   A    
C62   H41   S    
S1    O13   D    
C18   C25   A    
C42   C44   A    
S6    O30   S    
C54   H17   S    
C58   H28   S    
C45   C47   A    
C27   C34   A    
C15   C20   A    
C46   C48   A    
C65   C66   S    
Cu1   O5    S    
S2    O16   D    
C45   S1    S    
Cu2   O2    S    
C22   S9    S    
C68   H56   S    
C63   C64   S    
C50   H6    S    
C64   H46   S    
C20   S11   S    
C5    C7    A    
C51   C52   S    
O15   H3    S    
C6    C8    A    
C28   C55   S    
C25   C26   A    
Cu1   N3    S    
Cu2   N4    S    
C55   C56   S    
C58   H29   S    
C32   C34   A    
S1    O15   S    
C57   H30   S    
C1    O1    A    
C6    C63   S    
C5    C61   S    
O48   H64   S    
C38   N2    A    
C47   C57   S    
O21   H15   S    
C3    C5    A    
C33   C34   A    
C59   H36   S    
C56   H23   S    
C1    C16   S    
C60   H33   S    
C2    C15   S    
C9    C11   A    
S8    O36   S    
C10   C12   A    
C61   H42   S    
C67   H58   S    
C4    C6    A    
C1    O3    A    
C38   O12   S    
C28   C33   A    
Cu1   Cu2   S    
S3    O21   S    
S4    O23   D    
C52   H11   S    
C60   H32   S    
Cu2   O6    S    
S7    O33   S    
C62   H40   S    
C49   C50   S    
C36   C44   A    
C63   H47   S    
Cu2   O3    S    
C17   C19   A    
S5    O25   D    
C55   H26   S    
C49   H9    S    
O33   H59   S    
S6    O29   D    
C50   H7    S    
C13   N2    S    
C63   H48   S    
C21   C25   A    
C24   O6    A    
C65   H52   S    
C66   H51   S    
C12   C14   A    
C50   H5    S    
S5    O26   D    
C48   C59   S    
O30   H38   S    
C2    O2    A    
C11   S7    S    
O27   H37   S    
C29   N4    A    
S9    O37   D    
S4    O24   S    
C30   N3    A    
S10   O42   S    
C39   C45   A    
C53   H21   S    
O45   H63   S    
C66   H50   S    
C57   H31   S    
C28   C30   A    
C37   C39   A    
C51   H14   S    
C57   C58   S    
C32   C49   S    
C38   C40   A    
C11   C13   A    
C16   C19   A    
C7    C23   S    
C37   O11   S    
C27   C53   S    
C8    C24   S    
S10   O41   D    
C59   H35   S    
C24   O8    A    
C56   H24   S    
C36   O10   S    
C4    C14   A    
S11   O43   D    
S8    O35   D    
C36   N2    A    
C61   H43   S    
C67   H57   S    
C7    C9    A    
C23   O5    A    
C14   N1    S    
C9    C65   S    
C19   S12   S    
C10   C67   S    
O36   H60   S    
C22   C26   A    
C52   H12   S    
C53   C54   S    
Cu1   O8    S    
C62   H39   S    
S6    O28   D    
O42   H62   S    
C64   H44   S    
C55   H25   S    
C54   H19   S    
C59   C60   S    
S9    O38   D    
S8    O34   D    
