data_mof_unit_7794.cif
_audit_creation_date              2012-12-11T14:38:14-0500
_audit_creation_method            fapswitch 2.2
_symmetry_space_group_name_H-M    P1
_symmetry_Int_Tables_number       1
_space_group_crystal_system       triclinic
_cell_length_a                    19.486335
_cell_length_b                    11.205437
_cell_length_c                    19.661782
_cell_angle_alpha                 90.035885
_cell_angle_beta                  96.435451
_cell_angle_gamma                 90.174423
_cell_volume                      4266.13278024

loop_
_atom_site_label
_atom_site_type_symbol
_atom_type_description
_atom_site_fract_x
_atom_site_fract_y
_atom_site_fract_z
_atom_type_partial_charge
C1    C     C_R   0.724160 0.955640 0.360954 0.543429
C2    C     C_R   0.275807 0.955593 0.639095 0.545585
C3    C     C_R   0.224160 0.455640 0.360954 0.543429
C4    C     C_R   0.775807 0.455593 0.639095 0.545585
C5    C     C_3   0.673935 0.430476 0.461198 0.027167
C6    C     C_3   0.326085 0.431198 0.538832 0.026130
C7    C     C_3   0.173935 0.930476 0.461198 0.027167
C8    C     C_3   0.826085 0.931199 0.538832 0.026131
C9    C     C_3   0.822428 0.485636 0.528641 0.034175
C10   C     C_3   0.177598 0.485114 0.471525 0.034067
C11   C     C_3   0.322428 0.985636 0.528641 0.034175
C12   C     C_3   0.677598 0.985114 0.471525 0.034067
C13   C     C_3   0.762405 0.294137 0.554023 -0.244289
C14   C     C_3   0.237433 0.294227 0.445813 -0.243820
C15   C     C_3   0.262405 0.794137 0.554023 -0.244289
C16   C     C_3   0.737433 0.794227 0.445813 -0.243820
C17   C     C_3   0.762551 0.427840 0.566494 0.024857
C18   C     C_3   0.237409 0.427939 0.433542 0.025555
C19   C     C_3   0.262551 0.927840 0.566494 0.024857
C20   C     C_3   0.737409 0.927939 0.433542 0.025555
C21   C     C_3   0.743638 0.390347 0.435379 0.032128
C22   C     C_3   0.256394 0.390344 0.564615 0.029440
C23   C     C_3   0.243638 0.890347 0.435379 0.032128
C24   C     C_3   0.756394 0.890344 0.564615 0.029440
C25   C     C_3   0.800185 0.485210 0.451163 -0.228292
C26   C     C_3   0.199869 0.484663 0.548996 -0.227205
C27   C     C_3   0.300185 0.985210 0.451163 -0.228292
C28   C     C_3   0.699869 0.984663 0.548996 -0.227205
C29   C     C_3   0.766678 0.276332 0.477229 -0.235958
C30   C     C_3   0.233291 0.276173 0.522612 -0.236622
C31   C     C_3   0.266678 0.776332 0.477229 -0.235958
C32   C     C_3   0.733291 0.776173 0.522612 -0.236622
C33   C     C_3   0.428059 0.230610 0.969307 -0.221709
C34   C     C_3   0.445073 0.230190 0.047130 -0.244319
C35   C     C_3   0.928059 0.730614 0.969308 -0.221710
C36   C     C_3   0.945074 0.730196 0.047130 -0.244320
C37   C     C_3   0.496017 0.041422 0.959884 -0.233712
C38   C     C_3   0.572168 0.241275 0.030419 -0.220864
C39   C     C_3   0.996013 0.541422 0.959885 -0.233712
C40   C     C_3   0.072169 0.741271 0.030419 -0.220863
C41   C     C_3   0.555157 0.240436 0.952463 -0.245621
C42   C     C_3   0.513510 0.041490 0.038192 -0.232908
C43   C     C_3   0.055157 0.740431 0.952463 -0.245621
C44   C     C_3   0.013506 0.541490 0.038192 -0.232908
C45   C     C_R   0.536139 0.180627 0.338501 0.535150
C46   C     C_R   0.463897 0.180749 0.661525 0.536909
C47   C     C_R   0.036140 0.680627 0.338501 0.535150
C48   C     C_R   0.963897 0.680749 0.661525 0.536909
C49   C     C_3   0.487023 0.171929 0.933489 0.053837
C50   C     C_3   0.516076 0.171989 0.065637 0.051025
C51   C     C_3   0.987022 0.671929 0.933489 0.053837
C52   C     C_3   0.016075 0.671989 0.065637 0.051024
C53   C     C_1   0.761999 0.428378 0.904593 -0.011050
C54   C     C_1   0.242667 0.414213 0.099254 -0.011821
C55   C     C_1   0.261999 0.928378 0.904593 -0.011049
C56   C     C_1   0.742667 0.914213 0.099253 -0.011821
C57   C     C_1   0.748333 0.406753 0.034735 -0.051972
C58   C     C_1   0.263672 0.364981 0.973047 -0.050902
C59   C     C_1   0.248333 0.906753 0.034735 -0.051972
C60   C     C_1   0.763672 0.864982 0.973047 -0.050902
C61   C     C_1   0.754068 0.416917 0.964112 -0.050128
C62   C     C_1   0.254252 0.389431 0.041922 -0.046311
C63   C     C_1   0.254068 0.916917 0.964112 -0.050128
C64   C     C_1   0.754252 0.889431 0.041922 -0.046311
C65   C     C_1   0.743815 0.391906 0.094733 -0.013754
C66   C     C_1   0.269975 0.343549 0.913907 -0.020278
C67   C     C_1   0.243815 0.891906 0.094733 -0.013754
C68   C     C_1   0.769975 0.843550 0.913907 -0.020278
C69   C     C_R   0.737567 0.357621 0.362773 0.556215
C70   C     C_R   0.262474 0.357642 0.637197 0.565123
C71   C     C_R   0.237567 0.857621 0.362773 0.556215
C72   C     C_R   0.762474 0.857641 0.637197 0.565123
C73   C     C_R   0.722854 0.952862 0.163898 0.538276
C74   C     C_R   0.277693 0.954606 0.836768 0.535064
C75   C     C_R   0.222854 0.452862 0.163898 0.538276
C76   C     C_R   0.777693 0.454606 0.836768 0.535064
C77   C     C_R   0.535470 0.179115 0.139724 0.531995
C78   C     C_R   0.466293 0.179104 0.859575 0.524937
C79   C     C_R   0.035469 0.679115 0.139724 0.531994
C80   C     C_R   0.966293 0.679104 0.859576 0.524937
C81   C     C_R   0.736147 0.357836 0.163647 0.542842
C82   C     C_R   0.276941 0.312740 0.844057 0.544125
C83   C     C_R   0.236147 0.857836 0.163647 0.542842
C84   C     C_R   0.776941 0.812740 0.844057 0.544124
C85   C     C_1   0.485747 0.174965 0.594481 0.028481
C86   C     C_1   0.514442 0.174750 0.405607 0.027480
C87   C     C_1   0.985747 0.674965 0.594481 0.028481
C88   C     C_1   0.014442 0.674750 0.405607 0.027480
C89   C     C_1   0.504265 0.173263 0.464897 0.001307
C90   C     C_1   0.496012 0.173382 0.535215 0.001643
C91   C     C_1   0.004265 0.673263 0.464897 0.001307
C92   C     C_1   0.996012 0.673382 0.535215 0.001643
C93   C     C_3   0.688954 0.470074 0.536192 -0.227916
C94   C     C_3   0.311058 0.470745 0.463878 -0.227636
C95   C     C_3   0.188954 0.970074 0.536192 -0.227916
C96   C     C_3   0.811058 0.970746 0.463878 -0.227636
Cr1   Cr    Cr6+3 0.765780 0.160710 0.267420 1.045354
Cr2   Cr    Cr6+3 0.234220 0.160710 0.732580 1.042175
Cr3   Cr    Cr6+3 0.265780 0.660710 0.267420 1.045354
Cr4   Cr    Cr6+3 0.734220 0.660710 0.732580 1.042175
Cr5   Cr    Cr6+3 0.612200 0.009560 0.248850 1.070280
Cr6   Cr    Cr6+3 0.387800 0.009560 0.751150 1.068796
Cr7   Cr    Cr6+3 0.112200 0.509560 0.248850 1.070280
Cr8   Cr    Cr6+3 0.887800 0.509560 0.751150 1.068797
Cr9   Cr    Cr6+3 0.616030 0.323720 0.248510 1.069461
Cr10  Cr    Cr6+3 0.383970 0.323720 0.751490 1.070797
Cr11  Cr    Cr6+3 0.116030 0.823720 0.248510 1.069461
Cr12  Cr    Cr6+3 0.883970 0.823720 0.751490 1.070797
H1    H     H_    0.683726 0.566323 0.540737 0.167941
H2    H     H_    0.316387 0.567033 0.459453 0.167778
H3    H     H_    0.183726 0.066323 0.540737 0.167941
H4    H     H_    0.816387 0.067033 0.459453 0.167778
H5    H     H_    0.820794 0.255110 0.469358 0.216379
H6    H     H_    0.179190 0.254331 0.530524 0.216325
H7    H     H_    0.320795 0.755110 0.469358 0.216379
H8    H     H_    0.679190 0.754331 0.530524 0.216325
H9    H     H_    0.845331 0.468845 0.422447 0.175788
H10   H     H_    0.154721 0.467736 0.577685 0.177669
H11   H     H_    0.345331 0.968845 0.422447 0.175788
H12   H     H_    0.654721 0.967736 0.577685 0.177669
H13   H     H_    0.378872 0.181011 0.955438 0.104920
H14   H     H_    0.445114 0.323559 0.066558 0.144490
H15   H     H_    0.878871 0.681016 0.955440 0.104920
H16   H     H_    0.945119 0.823566 0.066556 0.144492
H17   H     H_    0.419747 0.324663 0.952208 0.147464
H18   H     H_    0.404648 0.179938 0.071064 0.119431
H19   H     H_    0.919748 0.824666 0.952207 0.147465
H20   H     H_    0.904648 0.679952 0.071066 0.119432
H21   H     H_    0.447580 0.989443 0.946540 0.150461
H22   H     H_    0.575844 0.335778 0.048014 0.151219
H23   H     H_    0.947576 0.489446 0.946541 0.150460
H24   H     H_    0.075847 0.835774 0.048014 0.151217
H25   H     H_    0.473998 0.989016 0.062149 0.132924
H26   H     H_    0.550771 0.334047 0.933569 0.146493
H27   H     H_    0.973993 0.489020 0.062149 0.132923
H28   H     H_    0.050773 0.834043 0.933569 0.146492
H29   H     H_    0.597772 0.197332 0.928297 0.121721
H30   H     H_    0.564327 0.997172 0.051355 0.148407
H31   H     H_    0.097771 0.697324 0.928297 0.121722
H32   H     H_    0.064322 0.497168 0.051356 0.148408
H33   H     H_    0.623788 0.200081 0.044303 0.116932
H34   H     H_    0.537871 0.996470 0.935484 0.132674
H35   H     H_    0.123788 0.700073 0.044303 0.116932
H36   H     H_    0.037867 0.496466 0.935485 0.132675
H37   H     H_    0.648787 0.431590 0.565943 0.134316
H38   H     H_    0.351174 0.432621 0.434064 0.134067
H39   H     H_    0.148787 0.931590 0.565943 0.134316
H40   H     H_    0.851173 0.932621 0.434064 0.134067
H41   H     H_    0.639018 0.351313 0.459302 0.142941
H42   H     H_    0.360987 0.352394 0.540630 0.142706
H43   H     H_    0.139018 0.851313 0.459302 0.142941
H44   H     H_    0.860987 0.852394 0.540630 0.142706
H45   H     H_    0.337272 0.075644 0.546939 0.111542
H46   H     H_    0.662772 0.075016 0.453423 0.111957
H47   H     H_    0.837272 0.575644 0.546939 0.111542
H48   H     H_    0.162772 0.575016 0.453423 0.111957
H49   H     H_    0.278512 0.071309 0.434056 0.113579
H50   H     H_    0.721572 0.070913 0.566285 0.114401
H51   H     H_    0.778512 0.571309 0.434056 0.113579
H52   H     H_    0.221572 0.570913 0.566285 0.114401
H53   H     H_    0.805807 0.250289 0.584848 0.233418
H54   H     H_    0.193924 0.250152 0.414981 0.233080
H55   H     H_    0.305807 0.750289 0.584848 0.233418
H56   H     H_    0.693924 0.750152 0.414981 0.233080
H57   H     H_    0.713728 0.256301 0.569297 0.092159
H58   H     H_    0.286010 0.256804 0.430342 0.091318
H59   H     H_    0.213728 0.756301 0.569297 0.092159
H60   H     H_    0.786010 0.756804 0.430342 0.091318
H61   H     H_    0.734622 0.202081 0.458241 0.087846
H62   H     H_    0.265428 0.202236 0.541381 0.087275
H63   H     H_    0.234622 0.702081 0.458241 0.087846
H64   H     H_    0.765428 0.702236 0.541381 0.087275
O1    O     O_R   0.783100 0.287550 0.345460 -0.523589
O2    O     O_R   0.216900 0.287550 0.654540 -0.519532
O3    O     O_R   0.283100 0.787550 0.345460 -0.523589
O4    O     O_R   0.716900 0.787550 0.654540 -0.519532
O5    O     O_R   0.554710 0.081900 0.170950 -0.511619
O6    O     O_R   0.445290 0.081900 0.829050 -0.512110
O7    O     O_R   0.054710 0.581900 0.170950 -0.511618
O8    O     O_R   0.945290 0.581900 0.829050 -0.512110
O9    O     O_R   0.545650 0.284910 0.163740 -0.522411
O10   O     O_R   0.454350 0.284910 0.836260 -0.528501
O11   O     O_R   0.045650 0.784910 0.163740 -0.522411
O12   O     O_R   0.954350 0.784910 0.836260 -0.528501
O13   O     O_R   0.677950 0.374280 0.185410 -0.496144
O14   O     O_R   0.322050 0.374280 0.814590 -0.484783
O15   O     O_R   0.177950 0.874280 0.185410 -0.496144
O16   O     O_R   0.822050 0.874280 0.814590 -0.484783
O17   O     O_3   0.664670 0.164660 0.254930 -0.284840
O18   O     O_3   0.335330 0.164660 0.745070 -0.304135
O19   O     O_3   0.164670 0.664660 0.254930 -0.284840
O20   O     O_3   0.835330 0.664660 0.745070 -0.304135
O21   O     O_R   0.760020 0.037400 0.337700 -0.523329
O22   O     O_R   0.239980 0.037400 0.662300 -0.522606
O23   O     O_R   0.260020 0.537400 0.337700 -0.523329
O24   O     O_R   0.739980 0.537400 0.662300 -0.522606
O25   O     O_R   0.666600 0.921990 0.332020 -0.459407
O26   O     O_R   0.333400 0.921990 0.667980 -0.456637
O27   O     O_R   0.166600 0.421990 0.332020 -0.459407
O28   O     O_R   0.833400 0.421990 0.667980 -0.456637
O29   O     O_R   0.557260 0.082670 0.312540 -0.466264
O30   O     O_R   0.442740 0.082670 0.687460 -0.463504
O31   O     O_R   0.057260 0.582670 0.312540 -0.466264
O32   O     O_R   0.942740 0.582670 0.687460 -0.463504
O33   O     O_R   0.548410 0.285740 0.316480 -0.485589
O34   O     O_R   0.451590 0.285740 0.683520 -0.486518
O35   O     O_R   0.048410 0.785740 0.316480 -0.485590
O36   O     O_R   0.951590 0.785740 0.683520 -0.486518
O37   O     O_R   0.680500 0.375040 0.327000 -0.454180
O38   O     O_R   0.319500 0.375040 0.673000 -0.449638
O39   O     O_R   0.180500 0.875040 0.327000 -0.454180
O40   O     O_R   0.819500 0.875040 0.673000 -0.449638
O41   O     O_R   0.780350 0.286720 0.192720 -0.503033
O42   O     O_R   0.219650 0.286720 0.807280 -0.493789
O43   O     O_R   0.280350 0.786720 0.192720 -0.503033
O44   O     O_R   0.719650 0.786720 0.807280 -0.493789
O45   O     O_R   0.757470 0.036630 0.196110 -0.495671
O46   O     O_R   0.242530 0.036630 0.803890 -0.510499
O47   O     O_R   0.257470 0.536630 0.196110 -0.495671
O48   O     O_R   0.742530 0.536630 0.803890 -0.510499
O49   O     O_R   0.663840 0.921160 0.179280 -0.509782
O50   O     O_R   0.336160 0.921160 0.820720 -0.505564
O51   O     O_R   0.163840 0.421160 0.179280 -0.509782
O52   O     O_R   0.836160 0.421160 0.820720 -0.505564
Br1   Br    Br    0.912143 0.403699 0.546666 -0.434188
Br2   Br    Br    0.087775 0.402633 0.453354 -0.434293
Br3   Br    Br    0.412143 0.903699 0.546666 -0.434188
Br4   Br    Br    0.587774 0.902633 0.453354 -0.434293
Br5   Br    Br    0.619085 0.551077 0.408370 -0.483894
Br6   Br    Br    0.380924 0.552261 0.591870 -0.480290
Br7   Br    Br    0.119085 0.051077 0.408370 -0.483894
Br8   Br    Br    0.880923 0.052261 0.591870 -0.480290

loop_
_geom_bond_atom_site_label_1
_geom_bond_atom_site_label_2
_ccdc_geom_bond_type
C94   H38   S    
C39   C51   S    
C79   O11   A    
C58   C62   S    
C5    H41   S    
C9    H47   S    
Cr11  O15   S    
C42   H30   S    
C14   C18   S    
C1    O21   A    
C35   C36   S    
C8    C96   S    
Cr12  O36   S    
C83   O15   A    
Cr3   O43   S    
Cr7   O19   S    
C9    C25   S    
C7    Br7   S    
C16   H56   S    
C67   C83   S    
C96   H4    S    
C11   C19   S    
C28   H50   S    
C31   H63   S    
C48   O36   A    
C82   O14   A    
C42   H25   S    
Cr8   O32   S    
C13   C29   S    
C16   C20   S    
C8    H44   S    
C10   C18   S    
C75   O47   A    
C72   O40   A    
Cr5   O17   S    
C74   O46   A    
Cr6   O26   S    
C11   Br3   S    
Cr2   O2    S    
Cr5   O25   S    
C30   H62   S    
C12   Br4   S    
Cr11  O39   S    
C33   C49   S    
C6    C22   S    
Cr3   O23   S    
Cr9   O37   S    
C49   C78   S    
Cr2   O22   S    
C3    C18   S    
C46   O34   A    
C48   O32   A    
Cr1   O21   S    
C37   C42   S    
C51   C80   S    
Cr10  O10   S    
C21   C25   S    
C7    C95   S    
Cr7   O51   S    
C43   C51   S    
C82   O42   A    
C55   C74   S    
C13   H57   S    
C58   C66   T    
C40   C43   S    
C81   O41   A    
C57   C61   S    
C71   O3    A    
C78   O6    A    
C6    C94   S    
Cr8   O20   S    
C55   C63   T    
Cr11  O11   S    
C25   H51   S    
C3    O27   A    
C56   C64   T    
C93   H37   S    
C73   O49   A    
C23   C27   S    
C14   H58   S    
C52   C79   S    
C41   H29   S    
C36   C52   S    
Cr2   O18   S    
C46   C85   S    
C59   C67   T    
C5    C93   S    
C44   C52   S    
C44   H27   S    
Cr1   O17   S    
C32   H64   S    
C20   C96   S    
C75   O51   A    
C34   H14   S    
C45   O29   A    
Cr1   O41   S    
C87   C92   T    
C33   H13   S    
C39   H36   S    
Cr8   O28   S    
Cr6   O6    S    
C15   H59   S    
Cr4   O20   S    
C69   O1    A    
C14   C30   S    
C31   H7    S    
C41   H26   S    
Cr12  O40   S    
Cr9   O9    S    
Cr7   O31   S    
Cr4   O24   S    
C96   H40   S    
C34   C50   S    
Cr1   O1    S    
C37   H34   S    
Cr12  O12   S    
C73   O45   A    
C68   C84   S    
Cr9   O17   S    
C95   H39   S    
Cr10  O14   S    
C38   C41   S    
C28   H12   S    
C10   H48   S    
C77   O9    A    
C81   O13   A    
C27   H49   S    
Cr2   O42   S    
C54   C62   T    
C40   C52   S    
C21   C29   S    
C15   C31   S    
C94   H2    S    
C3    O23   A    
C21   C69   S    
C2    O22   A    
C23   C31   S    
C14   H54   S    
C15   C19   S    
C24   C32   S    
Cr4   O4    S    
C5    Br5   S    
C23   C71   S    
C66   C82   S    
C9    Br1   S    
C37   C49   S    
Cr8   O52   S    
C27   H11   S    
C65   C81   S    
C88   C91   T    
C11   C27   S    
C34   H18   S    
C57   C65   T    
C12   C20   S    
C33   H17   S    
C33   C34   S    
C48   C87   S    
C47   O31   A    
Cr7   O27   S    
C32   H8    S    
C35   H19   S    
C70   O2    A    
C60   C68   T    
Cr12  O20   S    
C42   C50   S    
C7    H43   S    
C4    C17   S    
C9    C17   S    
Cr3   O47   S    
C71   O39   A    
C6    Br6   S    
C35   C51   S    
C18   C94   S    
C38   H33   S    
Cr1   O45   S    
C59   C63   S    
C84   O16   A    
C53   C76   S    
C17   C93   S    
Cr10  O18   S    
C53   C61   T    
C13   H53   S    
C50   C77   S    
C38   H22   S    
C36   H20   S    
C19   C95   S    
C24   C72   S    
C12   C28   S    
C30   H6    S    
Cr5   O49   S    
C4    O24   A    
C29   H5    S    
Cr4   O44   S    
C1    C20   S    
C45   O33   A    
C56   C73   S    
C22   C30   S    
C36   H16   S    
C2    C19   S    
C2    O26   A    
Cr11  O35   S    
Cr12  O16   S    
C1    O25   A    
C24   C28   S    
C12   H46   S    
C86   C89   T    
C25   H9    S    
Cr10  O34   S    
C83   O43   A    
C85   C90   T    
Cr9   O33   S    
C39   C44   S    
C38   C50   S    
C13   C17   S    
C43   H31   S    
C16   C32   S    
C41   C49   S    
C26   H10   S    
C74   O50   A    
Cr9   O13   S    
C47   O35   A    
C60   C64   S    
C29   H61   S    
C47   C88   S    
Cr2   O46   S    
C45   C86   S    
Cr6   O30   S    
C80   O8    A    
C95   H3    S    
Cr3   O19   S    
C8    Br8   S    
C10   C26   S    
Cr8   O8    S    
C26   H52   S    
C39   H23   S    
C16   H60   S    
C7    C23   S    
Cr6   O50   S    
C35   H15   S    
Cr6   O18   S    
C37   H21   S    
C69   O37   A    
Cr7   O7    S    
C80   O12   A    
C40   H24   S    
C43   H28   S    
C72   O4    A    
C77   O5    A    
Cr3   O3    S    
Cr5   O5    S    
C11   H45   S    
C54   C75   S    
C6    H42   S    
C76   O52   A    
C4    O28   A    
C79   O7    A    
C5    C21   S    
C8    C24   S    
Cr4   O48   S    
C44   H32   S    
C22   C26   S    
C40   H35   S    
Cr11  O19   S    
C10   Br2   S    
C76   O48   A    
Cr5   O29   S    
C70   O38   A    
C78   O10   A    
C89   C90   S    
C22   C70   S    
C15   H55   S    
C91   C92   S    
C84   O44   A    
C93   H1    S    
C46   O30   A    
Cr10  O38   S    
