data_mof_unit_12946.cif
_audit_creation_date              2012-12-11T15:49:53-0500
_audit_creation_method            fapswitch 2.2
_symmetry_space_group_name_H-M    P1
_symmetry_Int_Tables_number       1
_space_group_crystal_system       triclinic
_cell_length_a                    8.247044
_cell_length_b                    18.984799
_cell_length_c                    27.021128
_cell_angle_alpha                 94.993072
_cell_angle_beta                  92.678438
_cell_angle_gamma                 85.549473
_cell_volume                      4198.48900374

loop_
_atom_site_label
_atom_site_type_symbol
_atom_type_description
_atom_site_fract_x
_atom_site_fract_y
_atom_site_fract_z
_atom_type_partial_charge
Ba1   Ba    Ba6+2 0.854000 0.466860 0.523710 1.659211
Ba2   Ba    Ba6+2 0.335820 0.533080 0.476290 1.642516
C1    C     C_3   0.765018 0.219766 0.690373 -0.347313
C2    C     C_R   0.924457 0.571443 0.177588 0.574244
C3    C     C_2   0.762853 0.550165 0.272031 -0.083599
C4    C     C_3   0.204396 0.284830 0.656209 0.364349
C5    C     C_3   0.744751 0.572151 0.326566 -0.049944
C6    C     C_1   0.981979 0.490131 0.343167 0.033972
C7    C     C_2   0.020702 0.485723 0.295380 -0.105248
C8    C     C_2   0.903472 0.515502 0.256383 0.197715
C9    C     C_R   0.017066 0.503838 0.101744 -0.079787
C10   C     C_R   0.033161 0.442483 0.127985 -0.036119
C11   C     C_R   0.085769 0.377889 0.102559 -0.060359
C12   C     C_3   0.673769 0.284839 0.670556 0.340304
C13   C     C_R   0.963013 0.568667 0.126987 -0.024330
C14   C     C_2   0.851267 0.527637 0.360275 -0.290825
C15   C     C_2   0.340266 0.473787 0.639348 -0.254484
C16   C     C_3   0.213658 0.246537 0.703488 -0.328485
C17   C     C_R   0.130993 0.430319 0.972477 0.019908
C18   C     C_R   0.085192 0.560341 0.973901 0.020292
C19   C     C_R   0.125965 0.493657 0.947667 0.049962
C20   C     C_R   0.163828 0.365085 0.943938 -0.101394
C21   C     C_R   0.195046 0.362325 0.893544 -0.063006
C22   C     C_R   0.196183 0.424404 0.869078 -0.028030
C23   C     C_3   0.517809 0.630747 0.625625 0.291385
C24   C     C_R   0.161912 0.490253 0.896032 -0.080170
C25   C     C_R   0.163220 0.552639 0.871316 -0.034399
C26   C     C_R   0.201784 0.548427 0.820437 0.592466
C27   C     C_R   0.230042 0.421653 0.818055 0.590020
C28   C     C_3   0.189361 0.317512 0.418138 0.316596
C29   C     C_2   0.414458 0.440973 0.726272 -0.093350
C30   C     C_3   0.439853 0.424119 0.671222 -0.103882
C31   C     C_1   0.208398 0.510222 0.656343 0.030767
C32   C     C_2   0.167852 0.514054 0.703741 -0.085204
C33   C     C_2   0.277823 0.479174 0.741947 0.220888
C34   C     C_3   0.514970 0.646819 0.681702 -0.347049
C35   C     C_R   0.101694 0.434061 0.024512 0.019891
C36   C     C_R   0.054030 0.500399 0.050177 0.049754
C37   C     C_R   0.042294 0.563361 0.024803 0.020126
C38   C     C_R   0.119015 0.373636 0.052164 -0.099780
C39   C     C_R   0.947276 0.629835 0.101114 -0.061044
C40   C     C_3   0.200531 0.237692 0.405363 -0.386030
C41   C     C_R   0.089671 0.621970 0.948078 -0.099735
C42   C     C_R   0.127900 0.618082 0.898141 -0.059708
C43   C     C_R   0.986095 0.627407 0.051391 -0.102218
C44   C     C_R   0.397736 0.298715 0.521939 -0.283502
C45   C     C_3   0.068114 0.685524 0.339138 0.336757
C46   C     C_R   0.537793 0.276284 0.496550 0.080103
C47   C     C_R   0.591685 0.204288 0.492343 -0.115244
C48   C     C_R   0.503204 0.154255 0.512959 -0.011471
C49   C     C_R   0.355113 0.177240 0.535465 -0.140973
C50   C     C_R   0.302494 0.249453 0.539370 -0.004552
C51   C     C_R   0.579927 0.036511 0.549799 0.077284
C52   C     C_3   0.007545 0.682358 0.580719 0.315030
C53   C     C_R   0.625934 0.963585 0.542319 -0.078464
C54   C     C_R   0.660482 0.931381 0.494800 0.042730
C55   C     C_R   0.648502 0.973097 0.454320 -0.080374
C56   C     C_3   0.086441 0.705821 0.286580 -0.309320
C57   C     C_R   0.598104 0.045236 0.460929 -0.101703
C58   C     C_R   0.561262 0.077811 0.508295 0.066074
C59   C     C_R   0.846235 0.827649 0.461817 -0.133334
C60   C     C_R   0.891609 0.754542 0.457819 0.014594
C61   C     C_R   0.659608 0.733602 0.504564 0.038453
C62   C     C_R   0.614574 0.806274 0.509517 -0.118981
C63   C     C_R   0.706305 0.854051 0.487705 -0.007496
C64   C     C_3   0.997377 0.762260 0.593113 -0.386587
C65   C     C_R   0.793730 0.707942 0.477193 -0.284714
C66   C     C_3   0.671190 0.382148 0.376009 0.297582
C67   C     C_3   0.527879 0.723599 0.361212 0.361364
C68   C     C_3   0.668052 0.365403 0.319917 -0.356760
C69   C     C_3   0.558337 0.067830 0.602526 -0.420395
C70   C     C_3   0.486693 0.795996 0.341922 -0.365542
C71   C     C_R   0.996118 0.446883 0.179066 0.597200
H1    H     H_    0.635583 0.271626 0.630958 0.003369
H2    H     H_    0.794767 0.395505 0.388983 0.010097
H3    H     H_    0.582904 0.428173 0.384762 0.080503
H4    H     H_    0.866234 0.199839 0.666181 0.156403
H5    H     H_    0.760899 0.321595 0.309818 0.134920
H6    H     H_    0.694606 0.412775 0.301371 0.072464
H7    H     H_    0.545767 0.349473 0.306498 0.131921
H8    H     H_    0.565144 0.297300 0.693353 -0.033406
H9    H     H_    0.680716 0.177038 0.691045 0.057931
H10   H     H_    0.394182 0.618008 0.611626 0.014092
H11   H     H_    0.605130 0.584106 0.617561 0.080928
H12   H     H_    0.277954 0.223741 0.372892 0.128294
H13   H     H_    0.425130 0.692120 0.691073 0.132470
H14   H     H_    0.480166 0.599774 0.699277 0.081130
H15   H     H_    0.637492 0.660225 0.696701 0.132557
H16   H     H_    0.813518 0.232838 0.728825 0.118066
H17   H     H_    0.321359 0.261623 0.726979 0.121171
H18   H     H_    0.145435 0.635793 0.344041 0.092772
H19   H     H_    0.938708 0.676577 0.343723 -0.051549
H20   H     H_    0.200149 0.732530 0.283817 0.144804
H21   H     H_    0.092969 0.657258 0.260709 0.123926
H22   H     H_    0.981466 0.742118 0.275487 0.119006
H23   H     H_    0.254695 0.209882 0.437173 0.059250
H24   H     H_    0.662512 0.713372 0.361151 -0.066206
H25   H     H_    0.487329 0.725528 0.399998 0.075590
H26   H     H_    0.553930 0.836422 0.364925 0.065831
H27   H     H_    0.354404 0.811041 0.344035 0.150190
H28   H     H_    0.177290 0.342442 0.665952 0.051906
H29   H     H_    0.522432 0.795128 0.302740 0.119522
H30   H     H_    0.138439 0.461404 0.284390 0.124751
H31   H     H_    0.101284 0.329775 0.121626 0.121405
H32   H     H_    0.497077 0.415206 0.752738 0.095779
H33   H     H_    0.219163 0.310735 0.873711 0.117056
H34   H     H_    0.077059 0.219445 0.396298 0.126836
H35   H     H_    0.163310 0.314568 0.959179 0.067950
H36   H     H_    0.161122 0.321913 0.036177 0.068567
H37   H     H_    0.672521 0.571033 0.245540 0.115521
H38   H     H_    0.904488 0.680516 0.119354 0.120898
H39   H     H_    0.067215 0.674712 0.965628 0.068581
H40   H     H_    0.325208 0.275316 0.639228 -0.113882
H41   H     H_    0.129581 0.667131 0.880508 0.121354
H42   H     H_    0.054090 0.542093 0.715093 0.114893
H43   H     H_    0.967160 0.676922 0.034612 0.068753
H44   H     H_    0.836120 0.538560 0.399943 0.083264
H45   H     H_    0.884904 0.665314 0.570337 -0.001051
H46   H     H_    0.367147 0.470966 0.600267 0.076990
H47   H     H_    0.510220 0.825562 0.531030 0.074894
H48   H     H_    0.638708 0.932007 0.574024 0.066984
H49   H     H_    0.701159 0.187244 0.472625 0.083743
H50   H     H_    0.674080 0.949425 0.417316 0.068923
H51   H     H_    0.102392 0.260914 0.724788 0.149035
H52   H     H_    0.585347 0.075653 0.428677 0.068753
H53   H     H_    0.922985 0.863801 0.446935 0.078598
H54   H     H_    0.280576 0.139255 0.549219 0.080458
H55   H     H_    0.829525 0.651722 0.474428 0.062613
H56   H     H_    0.088524 0.669078 0.549094 0.070592
H57   H     H_    0.356138 0.354335 0.524775 0.063874
H58   H     H_    0.225494 0.188281 0.694113 0.093901
H59   H     H_    0.312993 0.334877 0.426522 0.003345
H60   H     H_    0.113278 0.330116 0.451029 0.057693
H61   H     H_    0.663094 0.049209 0.626578 0.118007
H62   H     H_    0.553733 0.126517 0.606074 0.117402
H63   H     H_    0.444823 0.050503 0.616603 0.115915
H64   H     H_    0.910528 0.777278 0.623109 0.127973
H65   H     H_    0.955352 0.790008 0.559979 0.063511
H66   H     H_    0.119325 0.779562 0.605637 0.126595
N1    N     N_R   0.942476 0.511053 0.203640 -0.422053
N2    N     N_R   0.235617 0.483298 0.794247 -0.422724
O1    O     O_2   0.913240 0.537010 0.617740 -0.450710
O2    O     O_2   0.228712 0.750159 0.464801 -0.482210
O3    O     O_3   0.117508 0.740401 0.373246 -0.603501
O4    O     O_3   0.145240 0.536960 0.557560 -0.495030
O5    O     O_3   0.557280 0.416300 0.475860 -0.491905
O6    O     O_2   0.376710 0.670070 0.522470 -0.455326
O7    O     O_3   0.565230 0.690160 0.604029 -0.642351
O8    O     O_2   0.415471 0.534280 0.321925 -0.498302
O9    O     O_3   0.448317 0.671546 0.330893 -0.595256
O10   O     O_2   0.009062 0.393253 0.201305 -0.596433
O11   O     O_2   0.253297 0.364036 0.794691 -0.625751
O12   O     O_3   0.630364 0.322377 0.398196 -0.637517
O13   O     O_2   0.875145 0.628184 0.198466 -0.622299
O14   O     O_2   0.207141 0.602857 0.799714 -0.598057
O15   O     O_3   0.669960 0.410470 0.588880 -0.463981
O16   O     O_2   0.745243 0.481100 0.675691 -0.483704
O17   O     O_3   0.068211 0.649844 0.622866 -0.629193
O18   O     O_3   0.773353 0.342221 0.674982 -0.558218
O19   O     O_2   0.812980 0.329910 0.477500 -0.458359
O20   O     O_3   0.078660 0.374870 0.564770 -0.476190
O21   O     O_2   0.964667 0.249547 0.533327 -0.476646
O22   O     O_3   0.078992 0.258788 0.624554 -0.581431
O23   O     O_2   0.276450 0.462960 0.382230 -0.463177
O24   O     O_3   0.044470 0.462980 0.442430 -0.494143
O25   O     O_3   0.519740 0.589470 0.411120 -0.475638
O26   O     O_3   0.120397 0.350126 0.377003 -0.624159
O27   O     O_3   0.632420 0.583650 0.524140 -0.478762
O28   O     O_3   0.111040 0.625070 0.435230 -0.493043
P1    P     P_3+3 0.082480 0.557670 0.610090 0.994583
P2    P     P_3+3 0.635220 0.340300 0.462910 0.987526
P3    P     P_3+3 0.105754 0.282382 0.564643 0.976357
P4    P     P_3+3 0.107220 0.442270 0.389900 0.993129
P5    P     P_3+3 0.087436 0.717708 0.433282 0.943717
P6    P     P_3+3 0.657559 0.415676 0.653670 0.975232
P7    P     P_3+3 0.560737 0.671616 0.539402 0.948521
P8    P     P_3+3 0.531035 0.588601 0.346815 0.941947

loop_
_geom_bond_atom_site_label_1
_geom_bond_atom_site_label_2
_ccdc_geom_bond_type
C2    O13   D    
C53   C54   A    
C53   H48   S    
O15   P6    S    
C68   H5    S    
C45   H19   S    
Ba1   O4    S    
C19   C24   A    
C4    O22   S    
C50   P3    S    
C69   H61   S    
C70   H27   S    
Ba1   O5    S    
C61   P7    S    
C34   H15   S    
Ba2   O4    S    
C24   C25   A    
O7    P7    S    
C8    N1    S    
C60   C65   A    
C23   H11   S    
C40   H23   S    
C67   O9    S    
C12   H1    S    
C17   C19   A    
C56   H20   S    
C22   C24   A    
C28   O26   S    
Ba1   Ba2   S    
C35   C38   A    
Ba2   P4    S    
C69   H62   S    
C36   C37   A    
C28   H59   S    
C55   C57   A    
C2    N1    Am   
C3    H37   S    
O24   P4    S    
C54   C63   S    
C60   P5    S    
C44   C50   A    
Ba1   P1    S    
C54   C55   A    
C5    P8    S    
C32   C33   S    
C4    H28   S    
C22   C27   A    
C11   C38   A    
Ba1   O1    S    
C17   C35   A    
O20   P3    S    
C9    C13   A    
C25   C42   A    
C64   H66   S    
C6    C7    D    
C26   O14   D    
C21   C22   A    
O28   P5    S    
C59   H53   S    
C7    C8    S    
Ba2   O25   S    
C37   C43   A    
Ba1   O15   S    
C67   H25   S    
Ba1   O20   S    
C57   C58   A    
C6    C14   D    
O18   P6    S    
O5    P2    S    
C71   O10   D    
C29   H32   S    
C16   H58   S    
C15   C31   D    
C31   P1    S    
C12   H8    S    
C51   C58   A    
C48   C49   A    
C44   C46   A    
C51   C53   A    
C34   H14   S    
C4    C16   S    
C30   P6    S    
C61   C65   A    
C68   H7    S    
C49   C50   A    
C16   H17   S    
C17   C20   A    
C13   C39   A    
C66   O12   S    
Ba2   O23   S    
C69   H63   S    
C3    C5    S    
C18   C37   A    
C6    P4    S    
O17   P1    S    
Ba2   O28   S    
Ba1   O27   S    
C34   H13   S    
C32   H42   S    
C21   H33   S    
C45   O3    S    
Ba1   P2    S    
C66   H2    S    
C67   C70   S    
C56   H22   S    
C4    H40   S    
C35   C36   A    
C55   H50   S    
C46   P2    S    
C29   C30   S    
C64   H65   S    
Ba1   O24   S    
C7    H30   S    
C28   H60   S    
C27   N2    Am   
O12   P2    S    
C1    H9    S    
O8    P8    D    
C31   C32   D    
O23   P4    D    
C40   H12   S    
C18   C19   A    
C11   H31   S    
O22   P3    S    
Ba2   O24   S    
C1    C12   S    
C33   N2    S    
O9    P8    S    
C46   C47   A    
O16   P6    D    
O25   P8    S    
C52   H45   S    
C41   C42   A    
C29   C33   D    
C66   H3    S    
C41   H39   S    
C51   C69   S    
Ba2   O27   S    
C67   H24   S    
C18   C41   A    
C40   H34   S    
O27   P7    S    
C52   H56   S    
O4    P1    S    
C5    C14   S    
C68   H6    S    
O6    P7    D    
C45   H18   S    
Ba1   O19   S    
C28   C40   S    
C44   H57   S    
C9    C10   A    
C38   H36   S    
C52   C64   S    
C71   N1    Am   
Ba2   O5    S    
C62   H47   S    
O26   P4    S    
C12   O18   S    
C1    H16   S    
C48   C58   S    
C62   C63   A    
C2    C13   A    
Ba2   O6    S    
C49   H54   S    
C3    C8    D    
C57   H52   S    
C45   C56   S    
C43   H43   S    
C65   H55   S    
C64   H64   S    
C70   H29   S    
C20   H35   S    
C47   H49   S    
O19   P2    D    
C23   O7    S    
C52   O17   S    
C56   H21   S    
C59   C60   A    
C15   H46   S    
C23   C34   S    
C42   H41   S    
C61   C62   A    
C59   C63   A    
O21   P3    D    
C10   C11   A    
C66   C68   S    
C47   C48   A    
C39   H38   S    
O3    P5    S    
C25   C26   A    
C23   H10   S    
C15   C30   S    
C39   C43   A    
C20   C21   A    
C14   H44   S    
C9    C36   A    
C26   N2    Am   
O2    P5    D    
C10   C71   A    
O1    P1    D    
C16   H51   S    
C27   O11   D    
C70   H26   S    
C1    H4    S    
