data_mof_unit_15651.cif
_audit_creation_date              2012-12-10T16:50:12-0500
_audit_creation_method            fapswitch 2.2
_symmetry_space_group_name_H-M    P1
_symmetry_Int_Tables_number       1
_space_group_crystal_system       triclinic
_cell_length_a                    23.558595
_cell_length_b                    8.843921
_cell_length_c                    7.413517
_cell_angle_alpha                 103.018423
_cell_angle_beta                  93.962964
_cell_angle_gamma                 93.384286
_cell_volume                      1496.88191704

loop_
_atom_site_label
_atom_site_type_symbol
_atom_type_description
_atom_site_fract_x
_atom_site_fract_y
_atom_site_fract_z
_atom_type_partial_charge
C1    C     C_R   0.498378 0.199888 0.453503 0.805667
C2    C     C_R   0.502154 0.800178 0.546456 0.790487
C3    C     C_R   0.235663 0.564206 0.406997 -0.195524
C4    C     C_R   0.759133 0.467629 0.332990 -0.171510
C5    C     C_R   0.294830 0.579243 0.403269 0.037572
C6    C     C_R   0.699588 0.456045 0.324998 0.026352
C7    C     C_R   0.328798 0.497589 0.508602 -0.173953
C8    C     C_R   0.672527 0.504873 0.492324 -0.193717
C9    C     C_R   0.302830 0.409279 0.620991 0.486170
C10   C     C_R   0.706948 0.561053 0.661551 0.487964
C11   C     C_R   0.243311 0.400022 0.629988 0.082557
C12   C     C_R   0.766892 0.566010 0.668632 0.076493
C13   C     C_R   0.209660 0.477132 0.518675 0.254088
C14   C     C_R   0.792941 0.519671 0.500360 0.255573
C15   C     C_2   0.497833 0.033174 0.427021 0.271321
C16   C     C_2   0.503105 0.966982 0.572920 0.288328
C17   C     C_R   0.391122 0.500935 0.502725 0.858254
C18   C     C_R   0.609339 0.500597 0.496955 0.828565
C19   C     C_R   0.888419 0.648222 0.550602 0.542742
C20   C     C_R   0.114091 0.349410 0.455246 0.528324
C21   C     C_R   0.876170 0.373476 0.444645 0.520960
C22   C     C_R   0.127708 0.620132 0.602256 0.524689
C23   C     C_R   0.935843 0.362579 0.459854 -0.027374
C24   C     C_R   0.068071 0.633579 0.599364 -0.048431
C25   C     C_R   0.971833 0.500873 0.517183 -0.046159
C26   C     C_R   0.031793 0.496106 0.526623 -0.048644
C27   C     C_R   0.947830 0.642945 0.574046 -0.046272
C28   C     C_R   0.055110 0.352650 0.463365 -0.023419
C29   C     C_R   0.960714 0.218651 0.439290 0.122353
C30   C     C_R   0.042749 0.775682 0.669345 0.151534
C31   C     C_R   0.019500 0.214568 0.421880 -0.225173
C32   C     C_R   0.983222 0.774914 0.660588 -0.232892
Cu1   Cu    Cu3+1 0.506340 0.517380 0.684380 1.077813
Cu2   Cu    Cu3+1 0.493660 0.482620 0.315620 1.031612
H1    H     H_    0.038201 0.103394 0.396111 0.167476
H2    H     H_    0.964429 0.878145 0.727901 0.180737
H3    H     H_    0.208963 0.626472 0.328224 0.164365
H4    H     H_    0.780131 0.429252 0.207532 0.173297
H5    H     H_    0.455021 0.379242 0.948231 0.279070
H6    H     H_    0.544935 0.620880 0.051788 0.253021
N1    N     N_R   0.853860 0.514237 0.497362 -0.433006
N2    N     N_R   0.149024 0.480860 0.527953 -0.434222
N3    N     N_2   0.484110 0.456420 0.038520 -0.186838
N4    N     N_2   0.515890 0.543580 0.961480 -0.188663
O1    O     O_R   0.504120 0.286130 0.619770 -0.557127
O2    O     O_R   0.495880 0.713870 0.380230 -0.562777
O3    O     O_R   0.493410 0.256770 0.308360 -0.533706
O4    O     O_R   0.506590 0.743230 0.691640 -0.525366
O5    O     O_R   0.423230 0.514630 0.655730 -0.547490
O6    O     O_R   0.576770 0.485370 0.344270 -0.617168
O7    O     O_R   0.412530 0.485280 0.344320 -0.592900
O8    O     O_R   0.587470 0.514720 0.655680 -0.521007
O9    O     O_2   0.865084 0.785584 0.576612 -0.582170
O10   O     O_2   0.136414 0.216315 0.374275 -0.586101
O11   O     O_2   0.840518 0.245305 0.377010 -0.549234
O12   O     O_2   0.164782 0.743354 0.678885 -0.552034
C33   C     C_3   0.930102 0.081723 0.491524 -0.302490
C34   C     C_3   0.915589 0.131566 0.695192 -0.753612
H7    H     H_    0.955044 0.175232 0.787854 0.220460
H8    H     H_    0.885571 0.223859 0.712604 0.254919
H9    H     H_    0.894274 0.036490 0.744878 0.278875
H10   H     H_    0.891687 0.034091 0.396809 0.269230
H11   H     H_    0.957920 0.984131 0.476707 0.178616
C35   C     C_3   0.075624 0.931861 0.752277 -0.380136
C36   C     C_3   0.095688 0.947572 0.956503 -0.691689
H12   H     H_    0.058265 0.949645 0.040146 0.227497
H13   H     H_    0.120934 0.849646 0.976068 0.271405
H14   H     H_    0.122611 0.058278 0.008374 0.264975
H15   H     H_    0.111248 0.953924 0.669242 0.246870
H16   H     H_    0.048028 0.028606 0.745611 0.179298
C37   C     C_3   0.319722 0.691521 0.296411 -0.366825
C38   C     C_3   0.347344 0.839932 0.427972 -0.702536
H17   H     H_    0.381678 0.813230 0.523223 0.223330
H18   H     H_    0.366053 0.918360 0.346212 0.253566
H19   H     H_    0.314798 0.901517 0.511932 0.265860
H20   H     H_    0.350557 0.636108 0.200853 0.247924
H21   H     H_    0.285787 0.726864 0.206038 0.199755
C39   C     C_3   0.668086 0.386127 0.135718 -0.321706
C40   C     C_3   0.642660 0.220603 0.122943 -0.682402
H22   H     H_    0.612925 0.216687 0.231614 0.250652
H23   H     H_    0.618912 0.175066 0.984742 0.275380
H24   H     H_    0.677341 0.143668 0.139247 0.247478
H25   H     H_    0.635358 0.461844 0.099942 0.250202
H26   H     H_    0.697647 0.379088 0.023901 0.216286
F1    F     F_    0.335907 0.332162 0.722393 -0.678794
F2    F     F_    0.682061 0.613515 0.821698 -0.684162
C41   C     C_3   0.217160 0.311657 0.761684 -0.321026
C42   C     C_3   0.196255 0.421403 0.929318 -0.825272
H27   H     H_    0.230611 0.512243 0.994623 0.258518
H28   H     H_    0.158168 0.477709 0.888612 0.253489
H29   H     H_    0.184272 0.354613 0.032966 0.254501
H30   H     H_    0.181557 0.227872 0.689550 0.223862
H31   H     H_    0.248734 0.240259 0.814657 0.257388
C43   C     C_3   0.801430 0.622801 0.856529 -0.321098
C44   C     C_3   0.837337 0.499283 0.910789 -0.873367
H32   H     H_    0.811723 0.385953 0.886769 0.261998
H33   H     H_    0.875709 0.485739 0.832578 0.250734
H34   H     H_    0.852821 0.536941 0.060101 0.245454
H35   H     H_    0.829300 0.728445 0.858425 0.232151
H36   H     H_    0.773182 0.659100 0.969789 0.253226
F3    F     F_    0.491748 0.946912 0.248636 -0.635647
F4    F     F_    0.509213 0.053240 0.751306 -0.637642

loop_
_geom_bond_atom_site_label_1
_geom_bond_atom_site_label_2
_ccdc_geom_bond_type
C41   C42   S    
C30   C35   S    
C38   H18   S    
Cu1   O1    S    
C44   H32   S    
C17   O7    A    
C44   H34   S    
C18   O8    A    
C33   H10   S    
C2    O2    A    
Cu1   O8    S    
Cu2   O7    S    
C6    C8    A    
C23   C29   A    
C22   C24   A    
C24   C26   A    
C37   H20   S    
C8    C10   A    
C6    C39   S    
C34   H8    S    
C15   C16   D    
C9    F1    S    
C39   H25   S    
C11   C41   S    
C36   H13   S    
Cu2   O2    S    
C35   H16   S    
C2    C16   S    
C3    C13   A    
C19   O9    S    
C34   H9    S    
C41   H30   S    
C12   C43   S    
C38   H19   S    
C13   N2    S    
C25   C26   A    
C33   H11   S    
Cu2   O6    S    
C20   O10   S    
C17   O5    A    
C5    C7    A    
C39   C40   S    
C1    O3    A    
H5    N3    S    
C20   C28   A    
C2    O4    A    
C34   H7    S    
C8    C18   S    
N3    N4    D    
C42   H29   S    
C43   H36   S    
C36   H14   S    
Cu1   Cu2   S    
C35   H15   S    
C15   F3    S    
C9    C11   A    
C10   C12   A    
C14   N1    S    
C1    C15   S    
C16   F4    S    
C42   H28   S    
C21   C23   A    
C21   N1    A    
C4    C6    A    
C32   H2    S    
C37   H21   S    
C19   C27   A    
C18   O6    A    
C40   H23   S    
C7    C9    A    
C10   F2    S    
C21   O11   S    
C27   C32   A    
Cu1   N4    S    
C28   C31   A    
Cu2   N3    S    
C29   C33   S    
C38   H17   S    
C3    C5    A    
C7    C17   S    
C40   H24   S    
C20   N2    A    
C44   H33   S    
C25   C27   A    
C26   C28   A    
C22   O12   S    
C35   C36   S    
C12   C14   A    
C37   C38   S    
C29   C31   A    
C30   C32   A    
C11   C13   A    
C1    O1    A    
C33   C34   S    
C22   N2    A    
C43   H35   S    
C41   H31   S    
C31   H1    S    
C23   C25   A    
C4    C14   A    
C43   C44   S    
C24   C30   A    
C40   H22   S    
C39   H26   S    
H6    N4    S    
C42   H27   S    
C3    H3    S    
C5    C37   S    
C36   H12   S    
Cu1   O4    S    
Cu2   O3    S    
C4    H4    S    
Cu1   O5    S    
C19   N1    A    
