data_mof_unit_54257.cif
_audit_creation_date              2012-12-10T19:05:53-0500
_audit_creation_method            fapswitch 2.2
_symmetry_space_group_name_H-M    P1
_symmetry_Int_Tables_number       1
_space_group_crystal_system       triclinic
_cell_length_a                    19.329954
_cell_length_b                    10.849175
_cell_length_c                    9.550785
_cell_angle_alpha                 90.744054
_cell_angle_beta                  90.443658
_cell_angle_gamma                 90.661362
_cell_volume                      2002.56912685

loop_
_atom_site_label
_atom_site_type_symbol
_atom_type_description
_atom_site_fract_x
_atom_site_fract_y
_atom_site_fract_z
_atom_type_partial_charge
C1    C     C_R   0.498486 0.262455 0.499068 0.812186
C2    C     C_R   0.291368 0.495404 0.498340 -0.032751
C3    C     C_R   0.929432 0.485969 0.496462 0.435751
C4    C     C_R   0.069726 0.485844 0.495621 0.408915
C5    C     C_R   0.816344 0.417664 0.595286 -0.254223
C6    C     C_R   0.743748 0.421293 0.599652 0.430134
C7    C     C_R   0.708095 0.493627 0.501697 -0.109351
C8    C     C_R   0.745042 0.562282 0.403452 -0.269459
C9    C     C_R   0.816963 0.560022 0.401907 -0.154038
C10   C     C_R   0.853276 0.488070 0.498042 0.002899
C11   C     C_R   0.482526 0.066050 0.621406 0.127849
C12   C     C_R   0.367423 0.498897 0.499531 0.787033
C13   C     C_R   0.491269 0.129558 0.496826 -0.093091
C14   C     C_R   0.490832 0.062683 0.369906 -0.230200
C15   C     C_R   0.490992 0.934166 0.371137 -0.209145
C16   C     C_R   0.492266 0.871243 0.499283 -0.093839
C17   C     C_R   0.483038 0.939044 0.622982 0.133926
C18   C     C_3   0.522853 0.938824 0.757628 -0.493144
C19   C     C_3   0.521891 0.078268 0.755660 -0.455127
C20   C     C_R   0.557083 0.538462 0.075109 0.176669
C21   C     C_R   0.447861 0.443599 0.072669 0.524322
C22   C     C_R   0.447407 0.447004 0.923151 -0.183910
C23   C     C_R   0.498901 0.737883 0.500459 0.788885
C24   C     C_R   0.557210 0.537803 0.928017 0.241209
C25   C     C_3   0.591576 0.660919 0.924524 -0.492312
C26   C     C_3   0.591493 0.661781 0.083408 -0.475082
C27   C     C_R   0.632356 0.497848 0.500493 0.832907
C28   C     C_R   0.254960 0.473484 0.622345 -0.189520
C29   C     C_R   0.182890 0.469172 0.621159 -0.153224
C30   C     C_R   0.145919 0.487796 0.496198 0.060401
C31   C     C_R   0.182383 0.509625 0.372165 -0.169773
C32   C     C_R   0.254479 0.512826 0.373097 -0.171328
Cu1   Cu    Cu3+1 0.500000 0.499980 0.640670 0.951674
Cu2   Cu    Cu3+1 0.500000 0.500020 0.359330 0.973346
H1    H     H_    0.491733 0.900568 0.844621 0.195557
H2    H     H_    0.574025 0.120629 0.742106 0.223017
H3    H     H_    0.404096 0.408066 0.865031 0.159693
H4    H     H_    0.156195 0.452494 0.718484 0.153103
H5    H     H_    0.155276 0.523711 0.274125 0.154989
H6    H     H_    0.281233 0.529745 0.275883 0.183179
H7    H     H_    0.844090 0.615206 0.325737 0.162439
N1    N     N_R   0.033695 0.530038 0.384944 -0.239529
N2    N     N_R   0.964895 0.530350 0.385488 -0.239470
N3    N     N_R   0.965455 0.441192 0.606835 -0.239528
N4    N     N_R   0.034261 0.441363 0.606542 -0.240336
N5    N     N_R   0.500440 0.500930 0.147930 -0.226117
N6    N     N_R   0.500440 0.500890 0.852020 -0.207978
O1    O     O_R   0.500000 0.319640 0.618810 -0.575581
O2    O     O_R   0.500010 0.319680 0.381230 -0.580637
O3    O     O_R   0.400140 0.499970 0.618830 -0.594832
O4    O     O_R   0.400150 0.500010 0.381250 -0.526080
O5    O     O_R   0.499990 0.680320 0.618770 -0.576693
O6    O     O_R   0.500000 0.680360 0.381190 -0.589736
O7    O     O_R   0.599850 0.499990 0.618750 -0.552448
O8    O     O_R   0.599860 0.500030 0.381170 -0.586440
H8    H     H_    0.282100 0.459062 0.720310 0.145074
H9    H     H_    0.493704 0.885022 0.272037 0.157973
H10   H     H_    0.575778 0.901303 0.745140 0.201026
H11   H     H_    0.490334 0.119467 0.840644 0.186810
O9    O     O_3   0.392144 0.393528 0.142910 -0.562914
C33   C     C_3   0.381769 0.267433 0.107697 0.051647
H12   H     H_    0.385143 0.213792 0.205644 0.176315
H13   H     H_    0.420679 0.227856 0.034519 0.097191
C34   C     C_3   0.309438 0.248257 0.046391 -0.821633
H14   H     H_    0.303762 0.300032 0.947605 0.230951
H15   H     H_    0.300189 0.148727 0.023908 0.214371
H16   H     H_    0.270150 0.280888 0.122190 0.259030
H17   H     H_    0.644211 0.657661 0.878946 0.185790
H18   H     H_    0.557056 0.730133 0.879439 0.211529
H19   H     H_    0.644277 0.657311 0.129523 0.189240
H20   H     H_    0.557860 0.733915 0.129148 0.206397
H21   H     H_    0.843780 0.357126 0.665108 0.157167
O10   O     O_3   0.706994 0.341863 0.684882 -0.581500
C35   C     C_3   0.719694 0.372301 0.827071 0.088430
H22   H     H_    0.708651 0.471154 0.848734 0.135025
H23   H     H_    0.774068 0.352830 0.857532 0.140751
C36   C     C_3   0.672633 0.294045 0.917961 -0.781051
H24   H     H_    0.685646 0.195105 0.905297 0.243319
H25   H     H_    0.679402 0.321498 0.029706 0.202161
H26   H     H_    0.617741 0.306808 0.887076 0.245907
H27   H     H_    0.718174 0.619079 0.328783 0.153043
H28   H     H_    0.494249 0.108895 0.270352 0.152791

loop_
_geom_bond_atom_site_label_1
_geom_bond_atom_site_label_2
_ccdc_geom_bond_type
O10   C35   S    
C2    C12   S    
C28   H8    S    
C27   O7    A    
C7    C8    A    
C36   H24   S    
Cu1   O5    S    
C11   C19   S    
Cu2   O4    S    
C35   H23   S    
C28   C29   A    
C5    H21   S    
C19   H2    S    
C5    C6    A    
C27   O8    A    
C15   C16   A    
C7    C27   S    
C2    C32   A    
C18   C19   S    
C33   H13   S    
C18   H10   S    
C20   C24   A    
C8    C9    A    
C35   C36   S    
C29   H4    S    
C23   O6    A    
Cu2   N5    S    
C18   H1    S    
C22   N6    A    
Cu2   O8    S    
C13   C14   A    
C26   H20   S    
C15   H9    S    
C25   H17   S    
Cu1   Cu2   S    
C4    N4    A    
C36   H25   S    
C3    N3    A    
C35   H22   S    
C8    H27   S    
C34   H16   S    
C24   C25   S    
C21   O9    S    
C16   C17   A    
C19   H11   S    
C25   C26   S    
C22   H3    S    
O9    C33   S    
C34   H15   S    
C33   C34   S    
C29   C30   A    
C31   C32   A    
C3    N2    A    
C17   C18   S    
C16   C23   S    
C26   H19   S    
C25   H18   S    
N1    N2    A    
C14   H28   S    
C12   O4    A    
N3    N4    A    
C6    O10   S    
C21   N5    A    
C9    C10   A    
C36   H26   S    
Cu1   O7    S    
C11   C17   A    
Cu2   O2    S    
C24   N6    A    
C20   C26   S    
C12   O3    A    
C1    O1    A    
C6    C7    A    
C9    H7    S    
C34   H14   S    
Cu1   O3    S    
C5    C10   A    
C3    C10   S    
C11   C13   A    
C23   O5    A    
C30   C31   A    
C4    N1    A    
Cu1   N6    S    
C31   H5    S    
C32   H6    S    
C33   H12   S    
C20   N5    A    
C1    C13   S    
Cu2   O6    S    
Cu1   O1    S    
C14   C15   A    
C2    C28   A    
C21   C22   A    
C1    O2    A    
C4    C30   S    
