data_mof_unit_16002.cif
_audit_creation_date              2012-10-26T19:57:21-0400
_audit_creation_method            fapswitch 2.2
_symmetry_space_group_name_H-M    P1
_symmetry_Int_Tables_number       1
_space_group_crystal_system       triclinic
_cell_length_a                    12.960213
_cell_length_b                    10.914816
_cell_length_c                    9.736865
_cell_angle_alpha                 89.703383
_cell_angle_beta                  95.963492
_cell_angle_gamma                 90.347933
_cell_volume                      1369.8673264

loop_
_atom_site_label
_atom_site_type_symbol
_atom_type_description
_atom_site_fract_x
_atom_site_fract_y
_atom_site_fract_z
_atom_type_partial_charge
C1    C     C_R   0.497850 0.265506 0.499745 0.617533
C2    C     C_2   0.499925 0.133188 0.498088 -0.079492
C3    C     C_2   0.416350 0.502569 0.910878 -0.028961
C4    C     C_R   0.301033 0.505205 0.474050 0.553614
C5    C     C_2   0.418440 0.479703 0.063944 0.028396
C6    C     C_R   0.495938 0.734895 0.498720 0.537364
C7    C     C_R   0.698935 0.496918 0.525782 0.588791
C8    C     C_R   0.811631 0.488134 0.540359 0.024635
C9    C     C_R   0.188487 0.517043 0.458210 0.014579
C10   C     C_R   0.027594 0.601971 0.348314 0.029323
C11   C     C_R   0.136852 0.597017 0.359923 0.000956
C12   C     C_R   0.025591 0.457235 0.542533 -0.004123
C13   C     C_R   0.133052 0.445911 0.544183 -0.134027
C14   C     C_3   0.821726 0.694021 0.424944 -0.386859
C15   C     C_3   0.582623 0.578302 0.115817 -0.206391
C16   C     C_3   0.970523 0.649551 0.214865 -0.392226
C17   C     C_3   0.025530 0.291197 0.728495 -0.354069
C18   C     C_3   0.198173 0.679149 0.271461 -0.372334
C19   C     C_3   0.472955 0.889562 0.237366 -0.322483
C20   C     C_R   0.973334 0.544017 0.451090 0.045105
C21   C     C_R   0.868684 0.570291 0.466110 -0.052581
C22   C     C_R   0.860981 0.393666 0.620624 0.221064
C23   C     C_R   0.969632 0.383062 0.629881 0.012661
C24   C     C_2   0.466179 0.937550 0.381749 -0.011940
C25   C     C_2   0.479248 0.866944 0.496921 -0.128768
C26   C     C_2   0.446282 0.069040 0.396555 0.209258
Cl1   Cl    Cl    0.785098 0.286625 0.705085 -0.629037
Cl2   Cl    Cl    0.350646 0.138331 0.277852 -0.608726
Cu1   Cu    Cu3+1 0.500020 0.500020 0.638640 0.987841
Cu2   Cu    Cu3+1 0.499980 0.499980 0.361360 0.969843
H1    H     H_    0.553720 0.088771 0.575419 0.087742
H2    H     H_    0.610870 0.636027 0.204375 0.159227
H3    H     H_    0.649667 0.522781 0.091090 0.113956
H4    H     H_    0.557555 0.645334 0.032973 0.100835
H5    H     H_    0.012503 0.624043 0.125460 0.139210
H6    H     H_    0.892848 0.606454 0.193744 0.142375
H7    H     H_    0.963614 0.750778 0.217429 0.130827
H8    H     H_    0.974452 0.242175 0.794857 0.204646
H9    H     H_    0.063853 0.221212 0.669112 0.140505
H10   H     H_    0.084640 0.339418 0.799735 0.117010
H11   H     H_    0.151146 0.755203 0.222580 0.136493
H12   H     H_    0.341908 0.520203 0.853054 0.138652
H13   H     H_    0.263457 0.723254 0.336276 0.146282
H14   H     H_    0.228789 0.624690 0.188881 0.137793
H15   H     H_    0.464909 0.964144 0.159194 0.178881
H16   H     H_    0.550199 0.848119 0.230495 0.121992
H17   H     H_    0.410246 0.821699 0.209357 0.151482
H18   H     H_    0.562762 0.457315 0.897990 0.244276
H19   H     H_    0.347240 0.447190 0.101382 0.147930
H20   H     H_    0.176012 0.382194 0.613487 0.127232
H21   H     H_    0.471061 0.907524 0.596877 0.095769
H22   H     H_    0.882517 0.765439 0.420279 0.145416
H23   H     H_    0.773260 0.688250 0.324579 0.126609
H24   H     H_    0.772278 0.726310 0.503943 0.132928
N1    N     N_2   0.498860 0.498660 0.846770 -0.351306
N2    N     N_2   0.498840 0.498630 0.152900 -0.232804
O1    O     O_R   0.500020 0.321960 0.617050 -0.473525
O2    O     O_R   0.499980 0.321920 0.382890 -0.429249
O3    O     O_R   0.349010 0.500000 0.598060 -0.517145
O4    O     O_R   0.348980 0.499950 0.363910 -0.496556
O5    O     O_R   0.500020 0.678080 0.617110 -0.492313
O6    O     O_R   0.499980 0.678040 0.382950 -0.529579
O7    O     O_R   0.651020 0.500050 0.636090 -0.458430
O8    O     O_R   0.650990 0.500000 0.401940 -0.516110

loop_
_geom_bond_atom_site_label_1
_geom_bond_atom_site_label_2
_ccdc_geom_bond_type
H18   N1    S    
C8    C22   A    
C25   H21   S    
C11   C18   S    
Cu1   Cu2   S    
Cu2   O8    S    
Cu1   N1    S    
C15   H4    S    
C26   Cl2   S    
C16   H7    S    
C17   H8    S    
C5    H19   S    
C15   N2    S    
C4    O4    A    
Cu1   O7    S    
C8    C21   A    
C4    C9    S    
C19   H16   S    
C7    C8    S    
C2    C26   D    
Cu1   O5    S    
C10   C16   S    
C18   H13   S    
C12   C13   A    
C9    C11   A    
C12   C23   A    
C7    O7    A    
C14   H23   S    
C17   C23   S    
C6    O6    A    
C3    N1    D    
C12   C20   A    
Cu2   O2    S    
C6    O5    A    
C14   H22   S    
C14   H24   S    
Cu1   O1    S    
C19   C24   S    
C1    O1    A    
C22   Cl1   S    
Cu2   O6    S    
C16   H5    S    
C24   C26   S    
C19   H17   S    
C7    O8    A    
C6    C25   S    
C10   C11   A    
C14   C21   S    
C13   H20   S    
C18   H14   S    
C15   H2    S    
C3    H12   S    
C24   C25   D    
C4    O3    A    
C1    C2    S    
C17   H9    S    
C18   H11   S    
C9    C13   A    
C22   C23   A    
C5    N2    D    
C20   C21   A    
C1    O2    A    
Cu2   N2    S    
C15   H3    S    
C16   H6    S    
C19   H15   S    
Cu1   O3    S    
C10   C20   A    
C2    H1    S    
C3    C5    S    
C17   H10   S    
Cu2   O4    S    
