data_mof_unit_46992.cif
_audit_creation_date              2012-12-10T19:09:06-0500
_audit_creation_method            fapswitch 2.2
_symmetry_space_group_name_H-M    P1
_symmetry_Int_Tables_number       1
_space_group_crystal_system       triclinic
_cell_length_a                    17.719649
_cell_length_b                    10.79003
_cell_length_c                    9.557814
_cell_angle_alpha                 89.884689
_cell_angle_beta                  89.894897
_cell_angle_gamma                 90.220035
_cell_volume                      1827.39117313

loop_
_atom_site_label
_atom_site_type_symbol
_atom_type_description
_atom_site_fract_x
_atom_site_fract_y
_atom_site_fract_z
_atom_type_partial_charge
C1    C     C_R   0.504037 0.262557 0.500075 0.811674
C2    C     C_R   0.885102 0.497045 0.486341 0.118257
C3    C     C_1   0.965866 0.494596 0.485703 -0.065821
C4    C     C_1   0.033514 0.493913 0.485786 -0.055934
C5    C     C_R   0.150122 0.553483 0.600007 -0.188293
C6    C     C_R   0.229290 0.560122 0.608149 0.135345
C7    C     C_R   0.272329 0.502950 0.500401 -0.132427
C8    C     C_R   0.235525 0.445195 0.387854 -0.251598
C9    C     C_R   0.156882 0.440425 0.380246 0.190380
C10   C     C_R   0.114338 0.494993 0.487909 0.061868
C11   C     C_R   0.478758 0.063928 0.612218 0.088842
C12   C     C_R   0.355572 0.502230 0.500422 0.790550
C13   C     C_R   0.512733 0.129108 0.502646 -0.122993
C14   C     C_R   0.557341 0.062602 0.404172 0.142637
C15   C     C_R   0.553136 0.932416 0.404625 -0.262967
C16   C     C_R   0.507707 0.870383 0.502634 -0.122896
C17   C     C_R   0.476643 0.936872 0.612765 0.115587
C18   C     C_3   0.398656 0.933148 0.672038 -0.481434
C19   C     C_3   0.401107 0.073902 0.672076 -0.461322
C20   C     C_R   0.500375 0.608867 0.073612 0.238258
C21   C     C_R   0.489618 0.393478 0.074339 -0.090849
C22   C     C_R   0.489268 0.393541 0.925969 -0.094607
C23   C     C_R   0.500717 0.737489 0.500140 0.795237
C24   C     C_R   0.504016 0.608644 0.927093 0.201643
C25   C     C_3   0.563643 0.709288 0.927193 -0.096570
C26   C     C_3   0.555304 0.712400 0.086413 -0.556133
C27   C     C_R   0.644355 0.500898 0.499539 0.782516
C28   C     C_R   0.847294 0.470818 0.611691 -0.202801
C29   C     C_R   0.768773 0.472765 0.616945 -0.209613
C30   C     C_R   0.727201 0.501128 0.496574 -0.064512
C31   C     C_R   0.765228 0.527777 0.370927 -0.229625
C32   C     C_R   0.844098 0.526466 0.364420 0.190268
Cu1   Cu    Cu3+1 0.500000 0.499980 0.640670 0.925538
Cu2   Cu    Cu3+1 0.500000 0.500020 0.359330 0.932571
H1    H     H_    0.878655 0.448503 0.705635 0.140364
H2    H     H_    0.585238 0.879478 0.329224 0.146986
H3    H     H_    0.360401 0.116782 0.598109 0.191791
H4    H     H_    0.401397 0.114173 0.779024 0.190378
H5    H     H_    0.481554 0.306691 0.128567 0.135411
H6    H     H_    0.481340 0.306748 0.871936 0.146159
H7    H     H_    0.542860 0.796166 0.877699 0.173780
H8    H     H_    0.740698 0.450860 0.714646 0.152732
H9    H     H_    0.527312 0.798302 0.123387 0.180600
H10   H     H_    0.733536 0.549658 0.277230 0.146692
H11   H     H_    0.115051 0.593982 0.680439 0.156399
H12   H     H_    0.268382 0.402454 0.305315 0.159237
N1    N     N_R   0.500470 0.500930 0.147930 -0.174612
N2    N     N_R   0.500480 0.500890 0.852020 -0.189013
O1    O     O_R   0.500000 0.319640 0.618810 -0.584725
O2    O     O_R   0.500010 0.319680 0.381230 -0.591792
O3    O     O_R   0.391250 0.499990 0.618840 -0.586726
O4    O     O_R   0.391260 0.500020 0.381250 -0.568541
O5    O     O_R   0.499990 0.680320 0.618770 -0.582932
O6    O     O_R   0.500000 0.680360 0.381190 -0.577400
O7    O     O_R   0.608740 0.499980 0.618750 -0.580477
O8    O     O_R   0.608750 0.500010 0.381160 -0.578014
H13   H     H_    0.356688 0.894314 0.597519 0.192810
H14   H     H_    0.397274 0.892205 0.778861 0.193006
C33   C     C_3   0.644032 0.670122 0.881227 -0.296976
C34   C     C_3   0.673214 0.749352 0.759903 -0.823577
H15   H     H_    0.637016 0.738936 0.666503 0.264696
H16   H     H_    0.674669 0.848582 0.790568 0.237705
H17   H     H_    0.731365 0.720395 0.731993 0.237039
H18   H     H_    0.685027 0.682311 0.968037 0.181638
H19   H     H_    0.645802 0.570622 0.853334 0.224156
H20   H     H_    0.605677 0.685354 0.148462 0.203937
C35   C     C_3   0.882485 0.555347 0.226606 -0.421597
C36   C     C_3   0.898182 0.436712 0.145285 -0.834341
H21   H     H_    0.844429 0.387692 0.121854 0.247178
H22   H     H_    0.926699 0.459920 0.045010 0.238501
H23   H     H_    0.935282 0.374328 0.206604 0.259101
H24   H     H_    0.846183 0.616470 0.161678 0.191360
H25   H     H_    0.935971 0.606968 0.243992 0.203645
C37   C     C_3   0.268045 0.628393 0.728181 -0.360617
C38   C     C_3   0.217651 0.711759 0.817508 -0.895550
H26   H     H_    0.187138 0.779204 0.750539 0.259040
H27   H     H_    0.176891 0.655372 0.879188 0.250656
H28   H     H_    0.253234 0.764480 0.892375 0.246571
H29   H     H_    0.294873 0.559434 0.798591 0.222112
H30   H     H_    0.312943 0.688969 0.683879 0.202524
C39   C     C_3   0.120323 0.378013 0.255904 -0.405120
C40   C     C_3   0.105631 0.471543 0.139304 -0.831369
H31   H     H_    0.067754 0.546181 0.176849 0.257889
H32   H     H_    0.159652 0.513337 0.103106 0.251697
H33   H     H_    0.078372 0.424205 0.049475 0.239392
H34   H     H_    0.157511 0.303660 0.214813 0.192591
H35   H     H_    0.066619 0.332165 0.286881 0.201491
C41   C     C_3   0.610830 0.124816 0.301654 -0.406895
C42   C     C_3   0.678987 0.179901 0.377013 -0.788431
H36   H     H_    0.715471 0.229919 0.300831 0.240133
H37   H     H_    0.660956 0.245858 0.459117 0.238894
H38   H     H_    0.712427 0.104927 0.426670 0.243734
H39   H     H_    0.632197 0.056801 0.223954 0.189699
H40   H     H_    0.581855 0.196885 0.239696 0.216206

loop_
_geom_bond_atom_site_label_1
_geom_bond_atom_site_label_2
_ccdc_geom_bond_type
Cu1   O7    S    
C22   N2    A    
Cu2   O8    S    
C29   H8    S    
C39   C40   S    
C7    C8    A    
C11   C19   S    
C33   H18   S    
C34   H17   S    
C5    C6    A    
C34   H16   S    
C28   C29   A    
C18   C19   S    
C30   C31   A    
C27   O7    A    
Cu1   O1    S    
C15   C16   A    
C2    C32   A    
C35   H24   S    
C19   H3    S    
C18   H14   S    
C20   C24   A    
C28   H1    S    
C8    C9    A    
C23   O5    A    
C35   H25   S    
C42   H37   S    
C1    O2    A    
C39   H34   S    
C33   C34   S    
C37   H30   S    
C13   C14   A    
C27   C30   S    
C12   O4    A    
C26   H9    S    
C6    C37   S    
Cu1   O5    S    
C7    C12   S    
C41   H40   S    
Cu2   O2    S    
C31   H10   S    
C35   C36   S    
C26   H20   S    
C24   C25   S    
C37   C38   S    
C25   H7    S    
C27   O8    A    
C36   H21   S    
C25   C26   S    
C5    H11   S    
C34   H15   S    
C24   N2    A    
C38   H26   S    
C29   C30   A    
C19   H4    S    
C18   H13   S    
C31   C32   A    
C21   H5    S    
C22   H6    S    
C17   C18   S    
C42   H38   S    
C38   H27   S    
C39   H35   S    
C32   C35   S    
Cu2   O6    S    
C16   C23   S    
C40   H32   S    
C37   H29   S    
C1    C13   S    
C4    C10   S    
C3    C4    T    
C15   H2    S    
C12   O3    A    
C23   O6    A    
C9    C10   A    
C41   H39   S    
C11   C17   A    
C6    C7    A    
Cu1   O3    S    
C40   H33   S    
Cu2   O4    S    
C2    C3    S    
C14   C41   S    
C5    C10   A    
C33   H19   S    
C11   C13   A    
C16   C17   A    
C20   C26   S    
C36   H23   S    
Cu1   Cu2   S    
C38   H28   S    
C8    H12   S    
C20   N1    A    
C41   C42   S    
C36   H22   S    
C40   H31   S    
Cu1   N2    S    
C14   C15   A    
C2    C28   A    
Cu2   N1    S    
C25   C33   S    
C42   H36   S    
C21   C22   A    
C1    O1    A    
C9    C39   S    
C21   N1    A    
