data_mof_unit_35863.cif
_audit_creation_date              2012-10-26T19:56:48-0400
_audit_creation_method            fapswitch 2.2
_symmetry_space_group_name_H-M    P1
_symmetry_Int_Tables_number       1
_space_group_crystal_system       triclinic
_cell_length_a                    15.703554
_cell_length_b                    15.483175
_cell_length_c                    9.913159
_cell_angle_alpha                 89.980542
_cell_angle_beta                  59.401417
_cell_angle_gamma                 89.929846
_cell_volume                      2074.67014801

loop_
_atom_site_label
_atom_site_type_symbol
_atom_type_description
_atom_site_fract_x
_atom_site_fract_y
_atom_site_fract_z
_atom_type_partial_charge
C1    C     C_R   0.371928 0.118473 0.562630 0.551037
C2    C     C_2   0.489139 0.008901 0.083413 0.358553
C3    C     C_2   0.012315 0.497005 0.914303 0.358303
C4    C     C_2   0.988898 0.508740 0.083791 0.357732
C5    C     C_2   0.292225 0.820149 0.601620 0.215716
C6    C     C_2   0.711099 0.176934 0.396485 0.218333
C7    C     C_2   0.707309 0.819349 0.398262 0.209182
C8    C     C_2   0.300739 0.187995 0.599090 0.216768
C9    C     C_2   0.794566 0.317654 0.600842 0.211728
C10   C     C_2   0.203256 0.684319 0.398747 0.216951
C11   C     C_2   0.198393 0.311248 0.402979 0.217453
C12   C     C_R   0.629376 0.882726 0.436996 0.547707
C13   C     C_2   0.797616 0.684892 0.599482 0.219124
C14   C     C_2   0.289661 0.779512 0.484809 -0.135881
C15   C     C_2   0.708102 0.223901 0.511915 -0.121966
C16   C     C_2   0.720850 0.789994 0.512855 -0.128395
C17   C     C_2   0.272628 0.206433 0.495864 -0.135689
C18   C     C_2   0.789951 0.280047 0.483268 -0.133246
C19   C     C_2   0.208660 0.721988 0.515368 -0.142678
C20   C     C_2   0.209138 0.280155 0.519373 -0.122230
C21   C     C_2   0.797726 0.727326 0.481923 -0.127841
C22   C     C_3   0.831590 0.105936 0.175980 0.003057
C23   C     C_R   0.630040 0.116495 0.436595 0.535705
C24   C     C_3   0.938764 0.119246 0.048807 -0.398368
C25   C     C_3   0.152185 0.868920 0.817127 -0.033421
C26   C     C_3   0.067960 0.843016 0.978496 -0.364978
C27   C     C_3   0.199871 0.203980 0.864201 -0.028043
C28   C     C_3   0.147682 0.274108 0.987308 -0.343062
C29   C     C_3   0.731073 0.728600 0.201891 -0.023380
C30   C     C_3   0.801892 0.704142 0.031863 -0.328092
C31   C     C_3   0.236151 0.759592 0.180418 -0.030608
C32   C     C_3   0.315557 0.780982 0.012899 -0.347119
C33   C     C_3   0.754945 0.245764 0.825647 -0.025567
C34   C     C_R   0.370912 0.882573 0.562866 0.532918
C35   C     C_3   0.671529 0.226140 0.991284 -0.351389
C36   C     C_3   0.652088 0.645073 0.813583 -0.024526
C37   C     C_3   0.568909 0.676103 0.972090 -0.361669
C38   C     C_3   0.336136 0.317302 0.160231 -0.019080
C39   C     C_3   0.400546 0.264178 0.013347 -0.366661
C40   C     C_3   0.325283 0.974147 0.247168 -0.111943
C41   C     C_3   0.673803 0.030946 0.753815 -0.102134
C42   C     C_3   0.825241 0.469966 0.242688 -0.109983
C43   C     C_3   0.172865 0.547525 0.771639 -0.097042
C44   C     C_R   0.871947 0.618347 0.562383 0.544463
C45   C     C_R   0.127866 0.381278 0.437712 0.554074
C46   C     C_R   0.127753 0.618667 0.437544 0.545326
C47   C     C_R   0.871716 0.381736 0.562543 0.540228
C48   C     C_2   0.511234 0.992274 0.916056 0.360458
Cu1   Cu    Cu3+1 0.522650 1.000000 0.349410 0.949783
Cu2   Cu    Cu3+1 0.477350 1.000000 0.650590 0.942995
Cu3   Cu    Cu3+1 0.022650 0.500000 0.349410 0.961666
Cu4   Cu    Cu3+1 0.977350 0.500000 0.650590 0.961404
H1    H     H_    0.622250 0.971355 0.042774 0.199498
H2    H     H_    0.848806 0.290266 0.362910 0.157287
H3    H     H_    0.852634 0.712574 0.360859 0.181271
H4    H     H_    0.170960 0.310204 0.634464 0.189612
H5    H     H_    0.792243 0.076904 0.120494 0.160975
H6    H     H_    0.830567 0.059675 0.263266 0.117693
H7    H     H_    0.981206 0.143684 0.102281 0.143779
H8    H     H_    0.971573 0.056989 0.989160 0.086620
H9    H     H_    0.943578 0.166523 0.960851 0.153359
H10   H     H_    0.120292 0.880828 0.740697 0.114353
H11   H     H_    0.185535 0.929755 0.828963 0.135066
H12   H     H_    0.376799 0.026843 0.958100 0.189947
H13   H     H_    0.096170 0.833776 0.059931 0.137057
H14   H     H_    0.010552 0.894368 0.025859 0.114368
H15   H     H_    0.033888 0.781837 0.970474 0.168226
H16   H     H_    0.232269 0.156526 0.909746 0.159264
H17   H     H_    0.143365 0.170986 0.846055 0.102925
H18   H     H_    0.105201 0.316844 0.952655 0.157143
H19   H     H_    0.096004 0.244642 0.102745 0.115830
H20   H     H_    0.202454 0.313573 0.999231 0.189623
H21   H     H_    0.658991 0.747412 0.214136 0.140182
H22   H     H_    0.720166 0.670840 0.276142 0.135062
H23   H     H_    0.122762 0.472493 0.042030 0.188078
H24   H     H_    0.874681 0.685059 0.015888 0.159996
H25   H     H_    0.771195 0.649060 0.998599 0.129667
H26   H     H_    0.812402 0.759796 0.954167 0.188634
H27   H     H_    0.213499 0.820527 0.249855 0.096629
H28   H     H_    0.171267 0.732653 0.178024 0.159998
H29   H     H_    0.334476 0.722504 0.938092 0.172474
H30   H     H_    0.288054 0.831925 0.965830 0.158100
H31   H     H_    0.383234 0.804932 0.009311 0.142385
H32   H     H_    0.817931 0.272873 0.833310 0.162850
H33   H     H_    0.778965 0.184149 0.758410 0.099195
H34   H     H_    0.873377 0.518268 0.961501 0.184152
H35   H     H_    0.605923 0.201221 0.989291 0.145392
H36   H     H_    0.696287 0.176676 0.044906 0.145969
H37   H     H_    0.650285 0.285665 0.063838 0.165799
H38   H     H_    0.677749 0.580770 0.829081 0.149957
H39   H     H_    0.621288 0.638383 0.734499 0.119463
H40   H     H_    0.544406 0.741612 0.960580 0.171987
H41   H     H_    0.505151 0.631149 0.016748 0.128606
H42   H     H_    0.594639 0.678557 0.057515 0.138818
H43   H     H_    0.378822 0.327091 0.220955 0.134778
H44   H     H_    0.321248 0.381176 0.124818 0.147010
H45   H     H_    0.645385 0.218944 0.630658 0.150334
H46   H     H_    0.362224 0.254182 0.946545 0.181326
H47   H     H_    0.471408 0.298359 0.937359 0.123013
H48   H     H_    0.416953 0.200306 0.045936 0.178350
H49   H     H_    0.356214 0.907964 0.210098 0.104923
H50   H     H_    0.272045 0.986829 0.207323 0.086555
H51   H     H_    0.282227 0.975612 0.377129 0.138673
H52   H     H_    0.723158 0.022718 0.802395 0.082993
H53   H     H_    0.640336 0.096678 0.783511 0.106865
H54   H     H_    0.721495 0.027228 0.624451 0.143834
H55   H     H_    0.856220 0.405796 0.188457 0.112039
H56   H     H_    0.347594 0.790121 0.364089 0.152646
H57   H     H_    0.767327 0.488388 0.215481 0.087521
H58   H     H_    0.786892 0.463143 0.371848 0.157304
H59   H     H_    0.225766 0.529603 0.809757 0.106884
H60   H     H_    0.135254 0.609212 0.829693 0.114548
H61   H     H_    0.218255 0.559311 0.643807 0.156934
H62   H     H_    0.297318 0.166970 0.391888 0.197044
H63   H     H_    0.671282 0.809707 0.633434 0.200209
H64   H     H_    0.151383 0.710482 0.636164 0.148924
N1    N     N_2   0.443290 1.000000 0.876860 -0.338671
N2    N     N_2   0.556710 1.000000 0.123140 -0.335712
N3    N     N_2   0.943290 0.500000 0.876860 -0.331348
N4    N     N_2   0.056710 0.500000 0.123140 -0.331014
O1    O     O_R   0.422430 0.089640 0.419570 -0.461673
O2    O     O_R   0.615830 0.910350 0.326090 -0.490721
O3    O     O_R   0.615830 0.089650 0.326090 -0.498420
O4    O     O_R   0.384170 0.910350 0.673910 -0.488945
O5    O     O_R   0.884170 0.589650 0.673910 -0.494871
O6    O     O_R   0.115830 0.410350 0.326090 -0.492784
O7    O     O_R   0.115830 0.589650 0.326090 -0.482958
O8    O     O_R   0.884170 0.410350 0.673910 -0.487245
O9    O     O_3   0.789153 0.186891 0.243061 -0.588283
O10   O     O_3   0.223185 0.801945 0.756867 -0.582478
O11   O     O_3   0.275489 0.242331 0.725421 -0.565523
O12   O     O_R   0.577570 0.910360 0.580430 -0.469268
O13   O     O_3   0.772012 0.797608 0.243003 -0.574212
O14   O     O_3   0.274331 0.699431 0.243272 -0.572187
O15   O     O_3   0.720756 0.305097 0.755562 -0.574621
O16   O     O_3   0.730348 0.705378 0.754472 -0.573429
O17   O     O_3   0.246251 0.273210 0.255717 -0.573829
O18   O     O_3   0.396940 0.040493 0.193648 -0.568391
O19   O     O_3   0.604297 0.962886 0.804500 -0.556076
O20   O     O_3   0.895522 0.537338 0.196108 -0.566463
O21   O     O_3   0.108276 0.477667 0.797214 -0.559081
O22   O     O_R   0.577570 0.089640 0.580430 -0.515875
O23   O     O_R   0.422430 0.910360 0.419570 -0.525697
O24   O     O_R   0.922430 0.589640 0.419570 -0.471449
O25   O     O_R   0.077570 0.410360 0.580430 -0.473410
O26   O     O_R   0.077570 0.589640 0.580430 -0.511516
O27   O     O_R   0.922430 0.410360 0.419570 -0.522750
O28   O     O_R   0.384170 0.089650 0.673910 -0.506771

loop_
_geom_bond_atom_site_label_1
_geom_bond_atom_site_label_2
_ccdc_geom_bond_type
C15   C18   S    
C29   O13   S    
Cu4   O25   S    
Cu2   N1    S    
C27   O11   S    
C3    O21   S    
C20   H4    S    
C22   H5    S    
C2    N2    D    
C47   O8    A    
Cu3   O24   S    
C32   H29   S    
C16   C21   S    
C41   H53   S    
C45   O25   A    
C26   H15   S    
Cu4   O5    S    
C36   C37   S    
C42   H57   S    
C7    O13   S    
C31   O14   S    
C38   C39   S    
C29   H21   S    
C6    C23   S    
Cu2   O28   S    
C1    C8    S    
C17   C20   S    
C25   H11   S    
C37   H41   S    
C33   H33   S    
C27   H16   S    
C6    C15   D    
C30   H25   S    
C35   H35   S    
C31   C32   S    
C40   O18   S    
C38   H43   S    
C10   C46   S    
C34   O4    A    
C23   O22   A    
H34   N3    S    
C42   H55   S    
C45   O6    A    
C27   H17   S    
C44   O24   A    
C14   H56   S    
C40   H49   S    
C26   H13   S    
C28   H20   S    
C43   H59   S    
C15   H45   S    
C6    O9    S    
C25   O10   S    
C36   O16   S    
C17   H62   S    
Cu4   O8    S    
C7    C12   S    
C11   C20   D    
C47   O27   A    
C34   O23   A    
C41   H54   S    
C42   O20   S    
Cu3   Cu4   S    
C26   H14   S    
C46   O7    A    
C31   H28   S    
Cu2   O4    S    
C21   H3    S    
H1    N2    S    
C39   H46   S    
C23   O3    A    
C29   H22   S    
C2    C48   S    
C25   C26   S    
H12   N1    S    
C2    O18   S    
C29   C30   S    
C4    O20   S    
C30   H24   S    
C35   H36   S    
C33   O15   S    
C39   H47   S    
Cu1   N2    S    
Cu3   O27   S    
C10   C19   D    
C24   H8    S    
Cu1   O1    S    
C5    C34   S    
C8    O11   S    
Cu3   N4    S    
C13   C21   D    
Cu2   O12   S    
C5    C14   D    
C3    N3    D    
C24   H9    S    
C35   H37   S    
C36   H39   S    
C7    C16   D    
C9    C47   S    
C22   O9    S    
C13   O16   S    
C22   C24   S    
C43   O21   S    
C28   H19   S    
C43   H60   S    
C3    C4    S    
C16   H63   S    
C9    O15   S    
C36   H38   S    
C32   H31   S    
C5    O10   S    
Cu4   O26   S    
C12   O12   A    
C37   H40   S    
Cu3   O6    S    
C14   C19   S    
C28   H18   S    
H23   N4    S    
C10   O14   S    
C22   H6    S    
C44   O5    A    
C31   H27   S    
C48   N1    D    
C32   H30   S    
C8    C17   D    
C41   H52   S    
Cu3   O7    S    
C42   H58   S    
C48   O19   S    
C43   H61   S    
C40   H51   S    
C39   H48   S    
C46   O26   A    
C19   H64   S    
C24   H7    S    
Cu1   O2    S    
Cu1   O23   S    
C33   C35   S    
C38   O17   S    
C37   H42   S    
C25   H10   S    
C11   O17   S    
C33   H32   S    
C1    O1    A    
C41   O19   S    
C11   C45   S    
C18   H2    S    
C40   H50   S    
C30   H26   S    
Cu4   N3    S    
C9    C18   D    
C12   O2    A    
Cu1   Cu2   S    
C38   H44   S    
C27   C28   S    
C4    N4    D    
C1    O28   A    
C13   C44   S    
Cu2   O22   S    
Cu1   O3    S    
