data_mof_unit_14341.cif
_audit_creation_date              2012-12-10T18:03:59-0500
_audit_creation_method            fapswitch 2.2
_symmetry_space_group_name_H-M    P1
_symmetry_Int_Tables_number       1
_space_group_crystal_system       triclinic
_cell_length_a                    10.835707
_cell_length_b                    9.561703
_cell_length_c                    10.859298
_cell_angle_alpha                 90.191186
_cell_angle_beta                  92.038335
_cell_angle_gamma                 91.342216
_cell_volume                      1124.07789749

loop_
_atom_site_label
_atom_site_type_symbol
_atom_type_description
_atom_site_fract_x
_atom_site_fract_y
_atom_site_fract_z
_atom_type_partial_charge
C1    C     C_R   0.263026 0.498118 0.511669 0.862994
C2    C     C_R   0.738128 0.501198 0.502002 0.873899
C3    C     C_R   0.428786 0.069675 0.415133 0.249142
C4    C     C_R   0.572684 0.074498 0.583309 0.246264
C5    C     C_R   0.429773 0.921986 0.415813 -0.020121
C6    C     C_R   0.569263 0.926902 0.584569 -0.022809
C7    C     C_R   0.501466 0.499892 0.262804 0.827400
C8    C     C_R   0.500638 0.500142 0.737272 0.824252
C9    C     C_R   0.501521 0.621456 0.062465 0.120439
C10   C     C_R   0.501414 0.621638 0.938409 0.135006
C11   C     C_R   0.504377 0.498706 0.130245 -0.095174
C12   C     C_R   0.502787 0.498986 0.869967 -0.087281
C13   C     C_R   0.509562 0.371717 0.064348 -0.160160
C14   C     C_R   0.506960 0.371709 0.935310 -0.167610
C15   C     C_3   0.496046 0.776888 0.929934 -0.426831
C16   C     C_3   0.495771 0.776670 0.071768 -0.441603
C17   C     C_R   0.059650 0.374966 0.488823 0.159261
C18   C     C_R   0.935361 0.389736 0.459023 0.123862
C19   C     C_R   0.872777 0.501834 0.510989 -0.211078
C20   C     C_R   0.129552 0.493008 0.529327 -0.235445
C21   C     C_R   0.939467 0.601935 0.585099 0.132217
C22   C     C_R   0.069259 0.604612 0.585507 0.139521
Cu1   Cu    Cu3+1 0.500000 0.640660 0.500000 0.995716
Cu2   Cu    Cu3+1 0.500000 0.359340 0.500000 1.035253
H1    H     H_    0.515179 0.272521 0.111524 0.194068
H2    H     H_    0.507818 0.272224 0.887678 0.191066
H3    H     H_    0.581438 0.824198 0.892369 0.217305
H4    H     H_    0.407385 0.811286 0.109406 0.211753
H5    H     H_    0.408021 0.812085 0.886034 0.229149
H6    H     H_    0.580848 0.824152 0.116156 0.219670
H7    H     H_    0.373757 0.862846 0.348625 0.151845
H8    H     H_    0.622934 0.872023 0.653225 0.166981
N1    N     N_R   0.500000 0.852070 0.500000 -0.191754
N2    N     N_R   0.500000 0.147940 0.500000 -0.197812
O1    O     O_R   0.319640 0.618740 0.499990 -0.561902
O2    O     O_R   0.680360 0.618740 0.500010 -0.565266
O3    O     O_R   0.319620 0.381170 0.499990 -0.545605
O4    O     O_R   0.680380 0.381170 0.500010 -0.542453
O5    O     O_R   0.499990 0.618810 0.319660 -0.592622
O6    O     O_R   0.500010 0.618810 0.680340 -0.581213
O7    O     O_R   0.499960 0.381240 0.319650 -0.563723
O8    O     O_R   0.500040 0.381240 0.680350 -0.576553
I1    I     I_    0.113762 0.168457 0.538142 -0.180743
I2    I     I_    0.851450 0.242667 0.329770 -0.237413
I3    I     I_    0.848439 0.731803 0.712679 -0.274556
I4    I     I_    0.172275 0.763192 0.689000 -0.248952
I5    I     I_    0.313459 0.152654 0.272261 -0.302592
I6    I     I_    0.703717 0.166644 0.710862 -0.275794

loop_
_geom_bond_atom_site_label_1
_geom_bond_atom_site_label_2
_ccdc_geom_bond_type
C16   H4    S    
C8    O8    A    
Cu2   O4    S    
Cu1   Cu2   S    
C17   I1    S    
C18   I2    S    
C11   C13   A    
C9    C10   A    
C2    O4    A    
Cu1   O1    S    
C6    N1    A    
C1    O3    A    
C8    C12   S    
Cu2   O3    S    
C21   C22   A    
C14   H2    S    
C7    C11   S    
Cu2   O7    S    
C9    C11   A    
C13   H1    S    
C10   C12   A    
C22   I4    S    
Cu1   O5    S    
C3    I5    S    
C19   C21   A    
C9    C16   S    
C12   C14   A    
C15   H5    S    
C21   I3    S    
C10   C15   S    
C7    O7    A    
C4    N2    A    
C4    C6    A    
C16   H6    S    
C15   C16   S    
Cu1   O2    S    
C17   C20   A    
Cu2   O8    S    
C1    O1    A    
C17   C18   A    
C6    H8    S    
C4    I6    S    
C2    O2    A    
C7    O5    A    
C18   C19   A    
C1    C20   S    
C8    O6    A    
C3    N2    A    
C5    H7    S    
C2    C19   S    
C13   C14   A    
C15   H3    S    
Cu2   N2    S    
Cu1   N1    S    
Cu1   O6    S    
C20   C22   A    
C3    C5    A    
C5    N1    A    
