data_mof_unit_60176.cif
_audit_creation_date              2013-03-05T15:41:55-0500
_audit_creation_method            fapswitch 2.2
_symmetry_space_group_name_H-M    P1
_symmetry_Int_Tables_number       1
_space_group_crystal_system       triclinic
_cell_length_a                    21.716362
_cell_length_b                    21.720422
_cell_length_c                    47.123249
_cell_angle_alpha                 89.51616
_cell_angle_beta                  90.032371
_cell_angle_gamma                 89.962693
_cell_volume                      22226.6959883

loop_
_atom_site_label
_atom_site_type_symbol
_atom_site_description
_atom_site_fract_x
_atom_site_fract_y
_atom_site_fract_z
_atom_type_partial_charge
O1    O     O_R   0.999970 0.909590 0.023670 -0.625040
O2    O     O_R   0.090410 0.999970 0.023670 -0.630284
O3    O     O_R   0.000030 0.090410 0.023670 -0.621986
O4    O     O_R   0.909590 0.000030 0.023670 -0.616923
O5    O     O_R   0.499970 0.409590 0.523670 -0.625031
O6    O     O_R   0.590410 0.499970 0.523670 -0.630282
O7    O     O_R   0.500030 0.590410 0.523670 -0.621979
O8    O     O_R   0.409590 0.500030 0.523670 -0.616918
O9    O     O_R   1.000000 0.909590 0.976330 -0.619277
O10   O     O_R   0.090410 0.000000 0.976330 -0.614523
O11   O     O_R   1.000000 0.090410 0.976330 -0.621548
O12   O     O_R   0.909590 0.000000 0.976330 -0.626752
O13   O     O_R   0.500000 0.409590 0.476330 -0.619275
O14   O     O_R   0.590410 0.500000 0.476330 -0.614515
O15   O     O_R   0.500000 0.590410 0.476330 -0.621547
O16   O     O_R   0.409590 0.500000 0.476330 -0.626748
C1    C     C_R   0.997485 0.880947 0.000182 0.967938
C2    C     C_R   0.119063 0.997471 0.000094 0.968448
C3    C     C_R   0.002478 0.119056 0.999817 0.966833
C4    C     C_R   0.880933 0.002482 0.999906 0.966869
C5    C     C_R   0.497485 0.380947 0.500182 0.967925
C6    C     C_R   0.619063 0.497473 0.500094 0.968442
C7    C     C_R   0.502478 0.619056 0.499817 0.966832
C8    C     C_R   0.380933 0.502482 0.499906 0.966862
Zn1   Zn    Zn3+2 1.000000 1.000000 0.031610 0.953657
Zn2   Zn    Zn3+2 0.500000 0.500000 0.531610 0.953690
Zn3   Zn    Zn3+2 1.000000 0.000000 0.968400 0.966432
Zn4   Zn    Zn3+2 0.500000 0.500000 0.468400 0.966456
C9    C     C_2   0.716428 0.040532 0.019277 0.520284
C10   C     C_2   0.958770 0.716835 0.981047 0.529108
C11   C     C_2   0.283642 0.959846 0.980623 0.527831
C12   C     C_2   0.041526 0.283110 0.018876 0.520381
C13   C     C_2   0.216428 0.540532 0.519277 0.520288
C14   C     C_2   0.458769 0.216835 0.481047 0.529124
C15   C     C_2   0.783639 0.459830 0.480630 0.527837
C16   C     C_2   0.541532 0.783109 0.518873 0.520461
C17   C     C_2   0.685035 0.997780 0.004809 -0.421944
C18   C     C_2   0.001922 0.685151 0.995448 -0.418758
C19   C     C_2   0.314940 0.002171 0.995401 -0.419440
C20   C     C_2   0.998044 0.314865 0.004725 -0.421180
C21   C     C_2   0.185035 0.497779 0.504809 -0.421934
C22   C     C_2   0.501922 0.185151 0.495447 -0.418730
C23   C     C_2   0.814940 0.502170 0.495397 -0.419491
C24   C     C_2   0.498045 0.814865 0.504726 -0.421224
H1    H     H_    0.707982 0.956994 0.996750 0.126420
H2    H     H_    0.042822 0.707926 0.003546 0.123173
H3    H     H_    0.291956 0.042642 0.003760 0.122951
H4    H     H_    0.956905 0.292113 0.996869 0.126527
H5    H     H_    0.207982 0.456995 0.496750 0.126412
H6    H     H_    0.542823 0.207926 0.503545 0.123139
H7    H     H_    0.791958 0.542652 0.503747 0.122969
H8    H     H_    0.456903 0.792113 0.496873 0.126521
C25   C     C_2   0.783812 0.032109 0.021446 -0.313084
C26   C     C_2   0.967120 0.784209 0.978860 -0.315142
C27   C     C_2   0.216237 0.968203 0.978485 -0.309747
C28   C     C_2   0.033128 0.215751 0.021085 -0.320618
C29   C     C_2   0.283812 0.532109 0.521446 -0.313084
C30   C     C_2   0.467119 0.284209 0.478860 -0.315152
C31   C     C_2   0.716236 0.468189 0.478489 -0.309750
C32   C     C_2   0.533134 0.715750 0.521083 -0.320629
C33   C     C_2   0.815234 0.011538 0.999038 -0.392494
C34   C     C_2   0.988290 0.815292 0.001212 -0.394588
C35   C     C_2   0.184746 0.988289 0.000967 -0.396820
C36   C     C_2   0.011579 0.184724 0.998793 -0.389594
C37   C     C_2   0.315234 0.511538 0.499038 -0.392485
C38   C     C_2   0.488290 0.315292 0.501212 -0.394582
C39   C     C_2   0.684746 0.488295 0.500968 -0.396839
C40   C     C_2   0.511577 0.684724 0.498792 -0.389614
H9    H     H_    0.807324 0.043515 0.041053 0.178182
H10   H     H_    0.955293 0.807988 0.959235 0.179647
H11   H     H_    0.192772 0.957296 0.958804 0.180170
H12   H     H_    0.045341 0.191931 0.040649 0.176988
H13   H     H_    0.307324 0.543515 0.541053 0.178185
H14   H     H_    0.455292 0.307988 0.459235 0.179648
H15   H     H_    0.692770 0.457262 0.458811 0.180185
H16   H     H_    0.545354 0.691931 0.540646 0.177006
H17   H     H_    0.792562 0.004939 0.978712 0.160857
H18   H     H_    0.995305 0.792396 0.021567 0.158508
H19   H     H_    0.207347 0.994445 0.021341 0.156244
H20   H     H_    0.004217 0.207679 0.978477 0.162963
H21   H     H_    0.292562 0.504939 0.478712 0.160865
H22   H     H_    0.495305 0.292396 0.521567 0.158523
H23   H     H_    0.707347 0.494468 0.521341 0.156243
H24   H     H_    0.504209 0.707679 0.478477 0.162965
O17   O     O_R   0.500030 0.051130 0.958080 -0.630717
O18   O     O_R   0.948870 0.500030 0.958080 -0.618412
O19   O     O_R   0.499970 0.948870 0.958080 -0.616701
O20   O     O_R   0.051130 0.499970 0.958080 -0.631860
O21   O     O_R   0.000030 0.551130 0.458080 -0.630779
O22   O     O_R   0.448870 0.000030 0.458080 -0.618408
O23   O     O_R   0.999970 0.448870 0.458080 -0.616738
O24   O     O_R   0.551130 0.999970 0.458080 -0.631858
C41   C     C_R   0.499799 0.000224 0.944489 0.903928
C42   C     C_R   0.999978 0.500185 0.944473 0.901451
C43   C     C_R   0.999801 0.500224 0.444488 0.903970
C44   C     C_R   0.499978 0.000185 0.444473 0.901460
O25   O     O_R   0.590470 0.051110 0.000000 -0.570619
O26   O     O_R   0.948890 0.590470 0.000000 -0.572318
O27   O     O_R   0.409530 0.948890 0.000000 -0.571631
O28   O     O_R   0.051110 0.409530 0.000000 -0.571023
O29   O     O_R   0.090470 0.551110 0.500000 -0.570590
O30   O     O_R   0.448890 0.090470 0.500000 -0.572279
O31   O     O_R   0.909530 0.448890 0.500000 -0.571592
O32   O     O_R   0.551110 0.909530 0.500000 -0.570994
O33   O     O_R   0.590450 0.948970 0.000000 -0.639531
O34   O     O_R   0.051030 0.590450 0.000000 -0.633935
O35   O     O_R   0.409550 0.051030 0.000000 -0.631104
O36   O     O_R   0.948970 0.409550 0.000000 -0.634916
O37   O     O_R   0.090450 0.448970 0.500000 -0.639553
O38   O     O_R   0.551030 0.090450 0.500000 -0.634004
O39   O     O_R   0.909550 0.551030 0.500000 -0.631127
O40   O     O_R   0.448970 0.909550 0.500000 -0.634969
C45   C     C_R   0.619148 0.999793 0.001304 0.966438
C46   C     C_R   0.000135 0.619184 0.998793 0.970267
C47   C     C_R   0.380841 0.000203 0.998792 0.975620
C48   C     C_R   0.999863 0.380823 0.001287 0.970678
C49   C     C_R   0.119148 0.499793 0.501304 0.966464
C50   C     C_R   0.500135 0.119184 0.498793 0.970259
C51   C     C_R   0.880841 0.500203 0.498791 0.975624
C52   C     C_R   0.499863 0.880823 0.501288 0.970680
Zn5   Zn    Zn3+2 0.500010 0.068250 0.000000 0.998675
Zn6   Zn    Zn3+2 0.931750 0.500010 0.000000 0.995317
Zn7   Zn    Zn3+2 0.499990 0.931750 0.000000 0.976595
Zn8   Zn    Zn3+2 0.068250 0.499990 0.000000 0.996592
Zn9   Zn    Zn3+2 0.000010 0.568250 0.500000 0.998638
Zn10  Zn    Zn3+2 0.431750 0.000010 0.500000 0.995298
Zn11  Zn    Zn3+2 0.999990 0.431750 0.500000 0.976563
Zn12  Zn    Zn3+2 0.568250 0.999990 0.500000 0.996550
O41   O     O_R   0.499980 0.051120 0.041920 -0.583739
O42   O     O_R   0.948880 0.499980 0.041920 -0.609919
O43   O     O_R   0.500020 0.948880 0.041920 -0.642852
O44   O     O_R   0.051120 0.500020 0.041920 -0.593852
O45   O     O_R   0.999980 0.551120 0.541920 -0.583737
O46   O     O_R   0.448880 0.999980 0.541920 -0.609854
O47   O     O_R   0.000020 0.448880 0.541920 -0.642856
O48   O     O_R   0.551120 0.000020 0.541920 -0.593798
C53   C     C_R   0.500482 0.999758 0.055402 0.882865
C54   C     C_R   0.000025 0.499877 0.055424 0.897582
C55   C     C_R   0.000482 0.499758 0.555402 0.882873
C56   C     C_R   0.500025 0.999877 0.555426 0.897427
C57   C     C_R   0.051910 0.482565 0.190617 0.508977
C58   C     C_R   0.512524 0.054665 0.190072 0.512705
C59   C     C_R   0.947082 0.516343 0.190222 0.508894
C60   C     C_R   0.489191 0.947082 0.190590 0.507845
C61   C     C_R   0.551763 0.982138 0.690624 0.508997
C62   C     C_R   0.012527 0.554664 0.690072 0.512706
C63   C     C_R   0.447210 0.016761 0.690224 0.508905
C64   C     C_R   0.989187 0.447082 0.690590 0.507844
N1    N     N_R   0.999600 0.499302 0.176241 -0.347431
N2    N     N_R   0.500979 0.000781 0.176159 -0.348027
N3    N     N_R   0.499591 0.999298 0.676246 -0.347463
N4    N     N_R   0.000979 0.500781 0.676159 -0.348025
C65   C     C_R   0.945667 0.516681 0.219933 -0.019943
C66   C     C_R   0.488971 0.946084 0.220309 -0.018530
C67   C     C_R   0.052938 0.483000 0.220329 -0.019790
C68   C     C_R   0.512176 0.056051 0.219784 -0.020930
C69   C     C_R   0.445796 0.017114 0.719934 -0.019960
C70   C     C_R   0.988967 0.446085 0.720309 -0.018526
C71   C     C_R   0.552787 0.982550 0.720336 -0.019806
C72   C     C_R   0.012180 0.556050 0.719784 -0.020925
C73   C     C_R   0.999213 0.500056 0.235041 -0.022345
C74   C     C_R   0.500418 0.001166 0.234959 -0.022358
C75   C     C_R   0.499201 0.000045 0.735046 -0.022339
C76   C     C_R   0.000418 0.501166 0.734959 -0.022357
C77   C     C_R   0.892259 0.533383 0.234812 -0.158675
C78   C     C_R   0.477437 0.891572 0.235642 -0.158521
C79   C     C_R   0.106167 0.466736 0.235597 -0.159608
C80   C     C_R   0.523383 0.110760 0.234602 -0.159478
C81   C     C_R   0.392527 0.034258 0.734810 -0.158681
C82   C     C_R   0.977428 0.391574 0.735642 -0.158527
C83   C     C_R   0.605877 0.965840 0.735607 -0.159617
C84   C     C_R   0.023391 0.610758 0.734602 -0.159483
C85   C     C_R   0.392228 0.034341 0.764392 -0.159792
C86   C     C_R   0.977357 0.391703 0.765222 -0.159998
C87   C     C_R   0.605820 0.966601 0.765181 -0.160481
C88   C     C_R   0.022856 0.611007 0.764185 -0.160020
C89   C     C_R   0.891963 0.533466 0.264393 -0.159797
C90   C     C_R   0.477365 0.891702 0.265222 -0.159995
C91   C     C_R   0.106110 0.467505 0.265171 -0.160482
C92   C     C_R   0.522848 0.111008 0.264185 -0.160017
C93   C     C_R   0.445273 0.017545 0.779657 -0.013606
C94   C     C_R   0.988637 0.446382 0.780031 -0.013071
C95   C     C_R   0.552589 0.983816 0.780047 -0.012536
C96   C     C_R   0.011291 0.556516 0.779513 -0.013153
C97   C     C_R   0.945148 0.517114 0.279655 -0.013609
C98   C     C_R   0.488641 0.946381 0.280031 -0.013076
C99   C     C_R   0.052741 0.484278 0.280040 -0.012541
C100  C     C_R   0.511288 0.056517 0.279514 -0.013157
C101  C     C_R   0.499022 0.000475 0.764941 -0.019170
C102  C     C_R   0.000108 0.501358 0.764859 -0.019111
C103  C     C_R   0.999035 0.500490 0.264936 -0.019175
C104  C     C_R   0.500108 0.001357 0.264859 -0.019111
C105  C     C_R   0.446118 0.017269 0.809368 0.482918
C106  C     C_R   0.988829 0.447664 0.809730 0.482487
C107  C     C_R   0.551353 0.984786 0.809742 0.482078
C108  C     C_R   0.010652 0.555562 0.809229 0.482638
C109  C     C_R   0.946000 0.516850 0.309366 0.482922
C110  C     C_R   0.488833 0.947663 0.309730 0.482486
C111  C     C_R   0.051499 0.485238 0.309735 0.482082
C112  C     C_R   0.510648 0.055563 0.309229 0.482638
N5    N     N_R   0.498632 0.001149 0.823651 -0.358736
N6    N     N_R   0.999676 0.501680 0.823578 -0.358808
N7    N     N_R   0.998646 0.501165 0.323646 -0.358743
N8    N     N_R   0.499676 0.001680 0.323578 -0.358808
O49   O     O_2   0.102568 0.465130 0.176171 -0.557425
O50   O     O_2   0.524740 0.106563 0.175168 -0.555827
O51   O     O_2   0.896616 0.533412 0.175384 -0.556798
O52   O     O_2   0.477217 0.894990 0.176186 -0.558678
O53   O     O_2   0.602283 0.964306 0.676179 -0.557387
O54   O     O_2   0.024748 0.606561 0.675168 -0.555837
O55   O     O_2   0.396885 0.034231 0.675382 -0.556757
O56   O     O_2   0.977209 0.394992 0.676186 -0.558689
H25   H     H_    0.850519 0.546326 0.223667 0.193450
H26   H     H_    0.468516 0.848652 0.224855 0.193417
H27   H     H_    0.148042 0.453487 0.224761 0.192934
H28   H     H_    0.532519 0.153539 0.223408 0.192880
H29   H     H_    0.350898 0.047551 0.723663 0.193444
H30   H     H_    0.968504 0.348655 0.724855 0.193410
H31   H     H_    0.647641 0.952245 0.724773 0.192920
H32   H     H_    0.032530 0.653537 0.723408 0.192874
H33   H     H_    0.350390 0.047683 0.775233 0.193447
H34   H     H_    0.968390 0.348893 0.776421 0.193364
H35   H     H_    0.647522 0.953555 0.776332 0.192903
H36   H     H_    0.031612 0.653953 0.774978 0.192931
H37   H     H_    0.850016 0.546457 0.275236 0.193449
H38   H     H_    0.468402 0.848890 0.276421 0.193369
H39   H     H_    0.147922 0.454811 0.276319 0.192910
H40   H     H_    0.531601 0.153955 0.274978 0.192936
O57   O     O_2   0.395033 0.032899 0.823932 -0.560313
O58   O     O_2   0.978329 0.395504 0.824718 -0.562208
O59   O     O_2   0.602246 0.969472 0.824666 -0.563677
O60   O     O_2   0.020945 0.607873 0.823731 -0.561481
O61   O     O_2   0.894791 0.532059 0.323934 -0.560306
O62   O     O_2   0.478337 0.895502 0.324718 -0.562204
O63   O     O_2   0.102517 0.470345 0.324657 -0.563667
O64   O     O_2   0.520938 0.107874 0.323731 -0.561476
C113  C     C_R   0.485204 0.946400 0.869046 0.125730
C114  C     C_R   0.055333 0.492573 0.868821 0.129695
C115  C     C_R   0.511705 0.055649 0.868739 0.130930
C116  C     C_R   0.944331 0.510528 0.868829 0.126507
C117  C     C_R   0.985603 0.446313 0.369039 0.125725
C118  C     C_R   0.555333 0.992577 0.368820 0.129696
C119  C     C_R   0.011336 0.555745 0.368736 0.130891
C120  C     C_R   0.444330 0.010525 0.368829 0.126509
C121  C     C_R   0.485901 0.946457 0.898599 -0.174139
C122  C     C_R   0.055076 0.492319 0.898384 -0.187936
C123  C     C_R   0.511745 0.055136 0.898307 -0.188797
C124  C     C_R   0.944713 0.509843 0.898396 -0.175302
C125  C     C_R   0.986287 0.446370 0.398592 -0.174234
C126  C     C_R   0.555076 0.992322 0.398384 -0.187941
C127  C     C_R   0.011383 0.555224 0.398305 -0.188730
C128  C     C_R   0.444712 0.009840 0.398396 -0.175305
H41   H     H_    0.475615 0.904125 0.909967 0.180305
H42   H     H_    0.098065 0.485113 0.909614 0.179067
H43   H     H_    0.522247 0.097281 0.909452 0.178162
H44   H     H_    0.901781 0.516763 0.909637 0.180307
H45   H     H_    0.976298 0.403962 0.409956 0.180307
H46   H     H_    0.598066 0.985119 0.409614 0.179063
H47   H     H_    0.021584 0.597442 0.409450 0.178246
H48   H     H_    0.401780 0.016757 0.409637 0.180305
C129  C     C_R   0.499162 0.000641 0.913385 -0.133887
C130  C     C_R   0.999915 0.500742 0.913341 -0.133864
C131  C     C_R   0.999170 0.500642 0.413382 -0.133932
C132  C     C_R   0.499915 0.000742 0.413341 -0.133865
C133  C     C_R   0.498378 0.001110 0.854000 0.245128
C134  C     C_R   0.999791 0.501718 0.853931 0.245287
C135  C     C_R   0.998394 0.501117 0.353995 0.245166
C136  C     C_R   0.499791 0.001718 0.353931 0.245291
C137  C     C_R   0.038280 0.539807 0.130998 -0.136584
C138  C     C_R   0.456086 0.033615 0.130804 -0.137755
C139  C     C_R   0.961740 0.458686 0.131148 -0.135652
C140  C     C_R   0.545794 0.967198 0.131189 -0.071861
C141  C     C_R   0.538497 0.039590 0.631008 -0.136703
C142  C     C_R   0.956088 0.533618 0.630804 -0.137759
C143  C     C_R   0.461513 0.958894 0.631155 -0.135762
C144  C     C_R   0.045792 0.467196 0.631189 -0.071864
H49   H     H_    0.067223 0.571287 0.142707 0.147397
H50   H     H_    0.421472 0.058990 0.142422 0.146694
H51   H     H_    0.932704 0.427097 0.142977 0.147225
H52   H     H_    0.580828 0.942195 0.142933 0.161056
H53   H     H_    0.567613 0.070906 0.642720 0.147275
H54   H     H_    0.921475 0.558994 0.642422 0.146697
H55   H     H_    0.432302 0.927468 0.642984 0.147103
H56   H     H_    0.080824 0.442191 0.642933 0.161059
C145  C     C_R   0.038845 0.540390 0.101309 0.044067
C146  C     C_R   0.455414 0.033469 0.101104 0.061234
C147  C     C_R   0.961412 0.458400 0.101458 0.048865
C148  C     C_R   0.545907 0.966106 0.101643 0.027419
C149  C     C_R   0.539060 0.040181 0.601320 0.044195
C150  C     C_R   0.955416 0.533472 0.601104 0.061230
C151  C     C_R   0.461191 0.958601 0.601465 0.048987
C152  C     C_R   0.045905 0.466104 0.601643 0.027416
C153  C     C_R   0.000090 0.499562 0.086480 -0.062873
C154  C     C_R   0.500466 0.999382 0.086420 -0.086641
C155  C     C_R   0.500089 0.999559 0.586486 -0.063088
C156  C     C_R   0.000466 0.499382 0.586420 -0.086647
C157  C     C_R   0.999900 0.499228 0.145853 0.260159
C158  C     C_R   0.501006 0.000589 0.145779 0.235359
C159  C     C_R   0.499894 0.999224 0.645860 0.260353
C160  C     C_R   0.001006 0.500589 0.645779 0.235361
O65   O     O_3   0.684203 0.085778 0.034013 -0.593973
C161  C     C_3   0.720152 0.139012 0.038385 0.105355
H57   H     H_    0.744422 0.153570 0.018590 0.142894
H58   H     H_    0.754100 0.130769 0.055677 0.141558
C162  C     C_3   0.678175 0.191414 0.047365 -0.778511
H59   H     H_    0.653742 0.178835 0.067287 0.264583
H60   H     H_    0.705865 0.233570 0.051038 0.202815
H61   H     H_    0.643727 0.201108 0.030473 0.254476
O66   O     O_3   0.913315 0.684922 0.966259 -0.590461
C163  C     C_3   0.859788 0.720807 0.962064 0.108970
H62   H     H_    0.867426 0.755336 0.944874 0.143392
H63   H     H_    0.845602 0.744377 0.981953 0.141758
C164  C     C_3   0.807375 0.678922 0.952999 -0.789538
H64   H     H_    0.798247 0.643923 0.969796 0.254513
H65   H     H_    0.764987 0.706559 0.949442 0.204755
H66   H     H_    0.819616 0.655153 0.932996 0.259767
O67   O     O_3   0.316045 0.915320 0.965506 -0.591600
C165  C     C_3   0.280248 0.862255 0.960527 0.109002
H67   H     H_    0.246364 0.871276 0.943288 0.144951
H68   H     H_    0.255936 0.846649 0.980142 0.141222
C166  C     C_3   0.322421 0.810461 0.951012 -0.789762
H69   H     H_    0.356786 0.799960 0.967840 0.253889
H70   H     H_    0.294867 0.768452 0.946822 0.206075
H71   H     H_    0.346961 0.824162 0.931270 0.259356
O68   O     O_3   0.087541 0.314891 0.033353 -0.592928
C167  C     C_3   0.141140 0.278878 0.037098 0.105009
H72   H     H_    0.154512 0.255314 0.017088 0.143998
H73   H     H_    0.134069 0.244323 0.054330 0.139525
C168  C     C_3   0.194010 0.320606 0.045745 -0.779729
H74   H     H_    0.182639 0.344320 0.065869 0.263922
H75   H     H_    0.236464 0.292856 0.048920 0.202653
H76   H     H_    0.202551 0.355644 0.028900 0.254970
O69   O     O_3   0.184202 0.585778 0.534013 -0.593972
C169  C     C_3   0.220153 0.639012 0.538385 0.105375
H77   H     H_    0.244422 0.653570 0.518591 0.142894
H78   H     H_    0.254100 0.630769 0.555677 0.141553
C170  C     C_3   0.178175 0.691414 0.547365 -0.778561
H79   H     H_    0.153742 0.678835 0.567287 0.264583
H80   H     H_    0.205866 0.733570 0.551039 0.202792
H81   H     H_    0.143727 0.701109 0.530474 0.254482
O70   O     O_3   0.413313 0.184922 0.466260 -0.590462
C171  C     C_3   0.359787 0.220808 0.462064 0.108981
H82   H     H_    0.367426 0.255336 0.444874 0.143384
H83   H     H_    0.345602 0.244380 0.481953 0.141764
C172  C     C_3   0.307373 0.178924 0.453000 -0.789569
H84   H     H_    0.298243 0.143927 0.469797 0.254519
H85   H     H_    0.264985 0.206562 0.449442 0.204740
H86   H     H_    0.319613 0.155153 0.432997 0.259764
O71   O     O_3   0.816038 0.415281 0.465525 -0.591526
C173  C     C_3   0.780240 0.362205 0.460571 0.109051
H87   H     H_    0.746348 0.371192 0.443332 0.144960
H88   H     H_    0.755937 0.346635 0.480194 0.141180
C174  C     C_3   0.822410 0.310393 0.451073 -0.789718
H89   H     H_    0.856784 0.299926 0.467902 0.253869
H90   H     H_    0.794856 0.268375 0.446904 0.206043
H91   H     H_    0.846941 0.324056 0.431323 0.259407
O72   O     O_3   0.587554 0.814889 0.533346 -0.592853
C175  C     C_3   0.641156 0.778876 0.537083 0.105044
H92   H     H_    0.654517 0.755316 0.517070 0.143962
H93   H     H_    0.634096 0.744318 0.554314 0.139549
C176  C     C_3   0.694031 0.820604 0.545725 -0.779702
H94   H     H_    0.682671 0.844314 0.565851 0.263956
H95   H     H_    0.736487 0.792854 0.548893 0.202639
H96   H     H_    0.702562 0.855645 0.528880 0.254951
N9    N     N_3   0.077531 0.583068 0.086112 -0.423346
H97   H     H_    0.048772 0.615196 0.076094 0.170146
H98   H     H_    0.105207 0.607729 0.100179 0.188562
N10   N     N_3   0.408764 0.066944 0.085737 -0.427341
H99   H     H_    0.380264 0.034669 0.075939 0.167796
H100  H     H_    0.380909 0.091725 0.099683 0.185719
N11   N     N_3   0.923023 0.415722 0.086408 -0.424179
H101  H     H_    0.952005 0.383931 0.076557 0.185206
H102  H     H_    0.895481 0.390657 0.100559 0.186511
N12   N     N_3   0.593775 0.932577 0.087634 -0.447378
H103  H     H_    0.616494 0.962355 0.073582 0.196640
H104  H     H_    0.573798 0.896988 0.076045 0.215733
N13   N     N_3   0.577964 0.082669 0.586128 -0.423182
H105  H     H_    0.549368 0.114957 0.576118 0.170263
H106  H     H_    0.605777 0.107171 0.600197 0.188505
N14   N     N_3   0.908767 0.566949 0.585737 -0.427339
H107  H     H_    0.880266 0.534675 0.575939 0.167799
H108  H     H_    0.880914 0.591731 0.599683 0.185722
N15   N     N_3   0.422585 0.916114 0.586418 -0.424018
H109  H     H_    0.451406 0.884162 0.576577 0.185155
H110  H     H_    0.394903 0.891206 0.600569 0.186464
N16   N     N_3   0.093771 0.432572 0.587634 -0.447373
H111  H     H_    0.116492 0.462348 0.573582 0.196641
H112  H     H_    0.073793 0.396983 0.576045 0.215731
N17   N     N_3   0.470850 0.890444 0.854621 -0.456610
H113  H     H_    0.508125 0.878973 0.841675 0.209890
H114  H     H_    0.432628 0.898434 0.841603 0.205100
N18   N     N_3   0.112345 0.483206 0.854222 -0.454031
H115  H     H_    0.120623 0.521552 0.841232 0.209584
H116  H     H_    0.107656 0.444711 0.841233 0.205525
N19   N     N_3   0.525694 0.111819 0.853986 -0.453700
H117  H     H_    0.488174 0.123345 0.841092 0.211603
H118  H     H_    0.563712 0.104078 0.840889 0.203988
N20   N     N_3   0.887261 0.520346 0.854237 -0.455819
H119  H     H_    0.878874 0.482351 0.841335 0.209358
H120  H     H_    0.891954 0.559172 0.841159 0.205919
N21   N     N_3   0.971662 0.390257 0.354610 -0.456614
H121  H     H_    0.009021 0.379065 0.341664 0.209813
H122  H     H_    0.933383 0.397970 0.341593 0.205149
N22   N     N_3   0.612346 0.983212 0.354222 -0.454041
H123  H     H_    0.620622 0.021559 0.341232 0.209585
H124  H     H_    0.607660 0.944717 0.341233 0.205520
N23   N     N_3   0.024916 0.612017 0.353985 -0.453711
H125  H     H_    0.987314 0.623270 0.341091 0.211534
H126  H     H_    0.062991 0.604557 0.340888 0.204058
N24   N     N_3   0.387260 0.020338 0.354237 -0.455826
H127  H     H_    0.378875 0.982343 0.341335 0.209357
H128  H     H_    0.391951 0.059165 0.341159 0.205915

loop_
_geom_bond_atom_site_label_1
_geom_bond_atom_site_label_2
_geom_bond_distance
_ccdc_geom_bond_type
O72   C175  1.412125 S    
O8    Zn2   1.998502 S    
C106  O58   1.349574 S    
C79   C91   1.393889 A    
C142  H54   1.083303 S    
C73   C103  1.408863 A    
C25   H9    1.085978 S    
O38   C50   1.269944 A    
C74   C104  1.409004 A    
C170  H79   1.110831 S    
O21   Zn9   2.013189 S    
O69   C169  1.412045 S    
O47   C55   1.279381 A    
N2    C158  1.431632 S    
O23   Zn11  2.007017 S    
C19   H3    1.087440 S    
C119  C135  1.408383 A    
C64   O56   1.349689 S    
C18   C46   1.440692 S    
O26   C46   1.277129 A    
C105  N5    1.367752 A    
O33   Zn7   1.999993 S    
C175  C176  1.520793 S    
C113  C133  1.408237 A    
C69   C81   1.404657 A    
O37   Zn11  1.999993 S    
C67   C79   1.404576 A    
C28   H12   1.086038 S    
C14   C22   1.342708 D    
O39   Zn9   1.999993 S    
O17   Zn5   2.013189 S    
C167  H72   1.115211 S    
C94   C106  1.400053 A    
C148  C154  1.414322 A    
O48   C56   1.279481 A    
C138  C158  1.397829 A    
C89   H37   1.083111 S    
C43   C131  1.465809 S    
C62   O54   1.349648 S    
C141  C149  1.399020 A    
C138  C146  1.399663 A    
C95   C101  1.408939 A    
C21   H5    1.087490 S    
N10   H99   1.045660 S    
C174  H90   1.110503 S    
C143  C159  1.397390 A    
C124  C130  1.403068 A    
N8    C136  1.430345 S    
C176  H96   1.110792 S    
C163  H63   1.115174 S    
O12   Zn3   1.998830 S    
C116  C134  1.408181 A    
C117  C125  1.392734 A    
N18   H116  1.045365 S    
C125  H45   1.083654 S    
O40   C52   1.270007 A    
C171  H82   1.111855 S    
O65   C161  1.412046 S    
C121  H41   1.083672 S    
C32   H16   1.086038 S    
C65   C73   1.408404 A    
O28   Zn8   2.000014 S    
N16   H112  1.044645 S    
C111  O63   1.349590 S    
C38   H22   1.087314 S    
C11   O67   1.396162 S    
C26   H10   1.086008 S    
C114  C134  1.408180 A    
O12   C4    1.275216 A    
C167  C168  1.520793 S    
C72   C84   1.404653 A    
O13   C5    1.281300 A    
C125  C131  1.402738 A    
C172  H86   1.110897 S    
C126  C132  1.402870 A    
C71   C83   1.404575 A    
C8    C37   1.440625 S    
C42   C130  1.466979 S    
O45   C55   1.279201 A    
C19   C47   1.440498 S    
C110  N8    1.367825 A    
N17   H113  1.045139 S    
C16   C24   1.342636 D    
C17   H1    1.087490 S    
N15   H109  1.045784 S    
O42   C54   1.279747 A    
C170  H81   1.110792 S    
C128  H48   1.083561 S    
C87   C95   1.404147 A    
C82   C86   1.393925 A    
C88   C96   1.404220 A    
C165  C166  1.520868 S    
C171  C172  1.520849 S    
C107  N5    1.367843 A    
C116  N20   1.431937 S    
C141  H53   1.083334 S    
N9    H97   1.045668 S    
C169  C170  1.520786 S    
O36   C48   1.270004 A    
O10   C2    1.281564 A    
C58   O50   1.349649 S    
C60   C66   1.400484 A    
C173  H87   1.111841 S    
C6    C39   1.440658 S    
C90   C98   1.404153 A    
C59   N1    1.369757 A    
O5    C5    1.275374 A    
Zn10  O46   2.009916 S    
C166  H69   1.110790 S    
O34   Zn8   1.999862 S    
C14   C30   1.477428 S    
C87   H35   1.083119 S    
C175  H93   1.111878 S    
N7    C135  1.430149 S    
C94   C102  1.408990 A    
C58   C68   1.400743 A    
O44   C54   1.279428 A    
C27   H11   1.085937 S    
O38   Zn12  1.999862 S    
N14   H107  1.045659 S    
O6    C6    1.275181 A    
O10   Zn3   1.998413 S    
C39   H23   1.087308 S    
O71   C173  1.411883 S    
C5    C38   1.440512 S    
C77   C89   1.394011 A    
C79   H27   1.083102 S    
O20   Zn8   2.009890 S    
C121  C129  1.402709 A    
C86   C94   1.404151 A    
O4    Zn1   1.998502 S    
C164  H64   1.110792 S    
C10   C26   1.477427 S    
C10   C18   1.342705 D    
C149  C155  1.412122 A    
O7    Zn2   1.995964 S    
C150  C156  1.411601 A    
O33   C45   1.269951 A    
C55   C156  1.461623 S    
C61   C71   1.400432 A    
C164  H65   1.110510 S    
C62   C72   1.400743 A    
C100  C112  1.400341 A    
O24   C44   1.282286 A    
Zn8   O44   2.010340 S    
O39   C51   1.269900 A    
C29   H13   1.085978 S    
C4    C33   1.440625 S    
N12   H103  1.045828 S    
O25   Zn5   1.999190 S    
C31   C39   1.337406 D    
C25   C33   1.337394 D    
C108  O60   1.349522 S    
C33   H17   1.087322 S    
C162  H60   1.110518 S    
C27   C35   1.337412 D    
O29   Zn9   1.999190 S    
C28   C36   1.337341 D    
C118  C136  1.408177 A    
C143  H55   1.083322 S    
C84   H32   1.083099 S    
C127  H47   1.083533 S    
C24   H8    1.087529 S    
C15   O71   1.396158 S    
C140  H52   1.083497 S    
C149  N13   1.438215 S    
C168  H75   1.110522 S    
C76   C102  1.409004 A    
O41   C53   1.279201 A    
C61   O53   1.349703 S    
C161  H58   1.111870 S    
C119  C127  1.393314 A    
C107  O59   1.349606 S    
C152  C156  1.414324 A    
N22   H123  1.045205 S    
C109  O61   1.349538 S    
C169  H77   1.115180 S    
C70   C82   1.404585 A    
C144  H56   1.083494 S    
C60   N2    1.369519 A    
Zn6   O42   2.009916 S    
C147  C153  1.412097 A    
O4    C4    1.281544 A    
C63   N3    1.369732 A    
N6    C134  1.430345 S    
C138  H50   1.083304 S    
C112  N8    1.367813 A    
C166  H71   1.110936 S    
C29   C37   1.337394 D    
C137  H49   1.083327 S    
O3    C3    1.281273 A    
C142  C150  1.399668 A    
N24   H127  1.045201 S    
C123  C129  1.402488 A    
C22   H6    1.087486 S    
C77   H25   1.083100 S    
O14   C6    1.281566 A    
C96   C102  1.409042 A    
C9    C17   1.342719 D    
C140  C158  1.397498 A    
C120  N24   1.431934 S    
C30   H14   1.086006 S    
N17   H114  1.045403 S    
O26   Zn6   2.000014 S    
C88   H36   1.083105 S    
C65   C77   1.404660 A    
C34   H18   1.087314 S    
C98   C110  1.400053 A    
C64   N4    1.369522 A    
O30   Zn10  2.000014 S    
O22   C44   1.282082 A    
O1    C1    1.275374 A    
C146  N10   1.438268 S    
C100  C104  1.409043 A    
C97   C109  1.400168 A    
C80   H28   1.083097 S    
C115  N19   1.431940 S    
O19   Zn7   2.007017 S    
O6    Zn2   1.998917 S    
O7    C7    1.281276 A    
O19   C41   1.281516 A    
C139  H51   1.083314 S    
O8    C8    1.281544 A    
N20   H120  1.045374 S    
N23   H126  1.045402 S    
C91   H39   1.083114 S    
C10   O66   1.395994 S    
C57   O49   1.349693 S    
N13   H106  1.045715 S    
C128  C132  1.403068 A    
O23   C43   1.281543 A    
C127  C131  1.402527 A    
C81   C85   1.394007 A    
C167  H73   1.111879 S    
C21   C49   1.440820 S    
O25   C45   1.277469 A    
C14   O70   1.395992 S    
C83   H31   1.083111 S    
C84   C88   1.394139 A    
C23   C51   1.440507 S    
C81   H29   1.083107 S    
O28   C48   1.277237 A    
C105  O57   1.349552 S    
C85   H33   1.083118 S    
C56   C155  1.463578 S    
N10   H100  1.045702 S    
C174  H89   1.110791 S    
O37   C49   1.269951 A    
C67   C73   1.408480 A    
C176  H95   1.110522 S    
O11   C3    1.275405 A    
N5    C133  1.430150 S    
C72   C76   1.408539 A    
O32   C52   1.277237 A    
C53   C154  1.461623 S    
Zn11  O47   2.013226 S    
Zn12  O48   2.010340 S    
O27   C47   1.277329 A    
C171  H83   1.115176 S    
C59   C65   1.400505 A    
C91   C99   1.404145 A    
C24   C52   1.440974 S    
C113  N17   1.431994 S    
N11   H101  1.045774 S    
C106  N6    1.367825 A    
C89   C97   1.404140 A    
C115  C123  1.393314 A    
C92   C100  1.404219 A    
C170  H80   1.110517 S    
C93   C101  1.409069 A    
C59   O51   1.349682 S    
O18   Zn6   2.010296 S    
C95   C107  1.399910 A    
O13   Zn4   1.995881 S    
C12   O68   1.395921 S    
C78   C90   1.393920 A    
C172  H85   1.110511 S    
C93   C105  1.400165 A    
O40   Zn10  1.999862 S    
C122  C130  1.402870 A    
C85   C93   1.404141 A    
C111  N7    1.367834 A    
C36   H20   1.087322 S    
C54   C153  1.463413 S    
C63   O55   1.349688 S    
C147  N11   1.438276 S    
C144  C160  1.397497 A    
C66   C74   1.408511 A    
C97   C103  1.409064 A    
C40   H24   1.087327 S    
O3    Zn1   1.995964 S    
O36   Zn6   1.999862 S    
C57   C67   1.400431 A    
C122  H42   1.083492 S    
C173  C174  1.520868 S    
C96   C108  1.400341 A    
C92   H40   1.083106 S    
C99   C111  1.399912 A    
C118  C126  1.393107 A    
O21   C43   1.282499 A    
C141  C159  1.397347 A    
N21   H121  1.045135 S    
O43   C53   1.279381 A    
C152  N16   1.433424 S    
C1    C34   1.440512 S    
C37   H21   1.087322 S    
C3    C36   1.440491 S    
C114  C122  1.393102 A    
N3    C159  1.431944 S    
C75   C101  1.408857 A    
C173  H88   1.115131 S    
C86   H34   1.083109 S    
O35   Zn5   1.999993 S    
C174  H91   1.110935 S    
O9    Zn3   1.995881 S    
N14   H108  1.045704 S    
C145  N9    1.438213 S    
C163  H62   1.111856 S    
C150  N14   1.438269 S    
Zn7   O43   2.013226 S    
C22   C50   1.440693 S    
Zn5   O41   2.007052 S    
N18   H115  1.045206 S    
N19   H117  1.045162 S    
C139  C147  1.399212 A    
C26   C34   1.337346 D    
C114  N18   1.431975 S    
O29   C49   1.277469 A    
C58   N2    1.369531 A    
N16   H111  1.045827 S    
C143  C151  1.399209 A    
C23   H7    1.087441 S    
O15   Zn4   2.002079 S    
O2    Zn1   1.998917 S    
C169  H78   1.111869 S    
O68   C167  1.412125 S    
N4    C160  1.431632 S    
N12   H104  1.044646 S    
O5    Zn2   2.002173 S    
C32   C40   1.337337 D    
C162  H59   1.110832 S    
C117  N21   1.431992 S    
C116  C124  1.393262 A    
O20   C42   1.282286 A    
C68   C80   1.404653 A    
C66   C78   1.404585 A    
C17   C45   1.440820 S    
C11   C27   1.478149 S    
C12   C28   1.477322 S    
C9    O65   1.396041 S    
C16   O72   1.395917 S    
C60   O52   1.349687 S    
C163  C164  1.520851 S    
C123  H43   1.083547 S    
O16   Zn4   1.998830 S    
O2    C2    1.275188 A    
C168  H74   1.110818 S    
C151  C155  1.412183 A    
C15   C23   1.342826 D    
C137  C157  1.397408 A    
C57   N1    1.369673 A    
C35   H19   1.087309 S    
O66   C163  1.411996 S    
C161  C162  1.520786 S    
C146  C154  1.411601 A    
O34   C46   1.269944 A    
C137  C145  1.399016 A    
N22   H124  1.045367 S    
C142  C160  1.397825 A    
N9    H98   1.045716 S    
O46   C56   1.279796 A    
N1    C157  1.432014 S    
C2    C35   1.440668 S    
C115  C133  1.408403 A    
C20   H4    1.087527 S    
O18   C42   1.282082 A    
C30   C38   1.337346 D    
C166  H70   1.110506 S    
O32   Zn12  2.000014 S    
C165  H68   1.115127 S    
N23   H125  1.045159 S    
O11   Zn3   2.002079 S    
C69   C75   1.408414 A    
N24   H128  1.045377 S    
O30   C50   1.277130 A    
C70   C76   1.408512 A    
O15   C7    1.275399 A    
C68   C74   1.408540 A    
O16   C8    1.275215 A    
O1    Zn1   2.002173 S    
C13   O69   1.396044 S    
C175  H92   1.115210 S    
O17   C41   1.282475 A    
O24   Zn12  2.009890 S    
N21   H122  1.045399 S    
C41   C129  1.465716 S    
O22   Zn10  2.010296 S    
C15   C31   1.478138 S    
C18   H2    1.087488 S    
C113  C121  1.392732 A    
C13   C21   1.342718 D    
C139  C157  1.397455 A    
C110  O62   1.349574 S    
C164  H66   1.110893 S    
N11   H102  1.045704 S    
C83   C87   1.393885 A    
C120  C136  1.408180 A    
C7    C40   1.440488 S    
C151  N15   1.438277 S    
N15   H110  1.045711 S    
C165  H67   1.111844 S    
C80   C92   1.394144 A    
C162  H61   1.110794 S    
Zn9   O45   2.007052 S    
C117  C135  1.408218 A    
C118  N22   1.431973 S    
C64   C70   1.400480 A    
O35   C47   1.269895 A    
N13   H105  1.045680 S    
C61   N3    1.369646 A    
C78   H26   1.083101 S    
C62   N4    1.369530 A    
O9    C1    1.281300 A    
C168  H76   1.110795 S    
C71   C75   1.408491 A    
C108  N6    1.367814 A    
C63   C69   1.400504 A    
C31   H15   1.085937 S    
O31   Zn11  1.999190 S    
O27   Zn7   1.999190 S    
C119  N23   1.431940 S    
C161  H57   1.115176 S    
C13   C29   1.477985 S    
C120  C128  1.393267 A    
C99   C103  1.408938 A    
O31   C51   1.277329 A    
C112  O64   1.349522 S    
C148  N12   1.433426 S    
C16   C32   1.477317 S    
C124  H44   1.083563 S    
C140  C148  1.392709 A    
C176  H94   1.110821 S    
N19   H118  1.045410 S    
C20   C48   1.440971 S    
C9    C25   1.477986 S    
C11   C19   1.342823 D    
C109  N7    1.367745 A    
C12   C20   1.342631 D    
C98   C104  1.408989 A    
O67   C165  1.411878 S    
C90   H38   1.083112 S    
C144  C152  1.392710 A    
C44   C132  1.466979 S    
C145  C153  1.412036 A    
O70   C171  1.411998 S    
N20   H119  1.045200 S    
O14   Zn4   1.998413 S    
C172  H84   1.110791 S    
C126  H46   1.083491 S    
C82   H30   1.083100 S    
