data_mof_unit_57548.cif
_audit_creation_date              2012-10-26T19:35:17-0400
_audit_creation_method            fapswitch 2.2
_symmetry_space_group_name_H-M    P1
_symmetry_Int_Tables_number       1
_space_group_crystal_system       triclinic
_cell_length_a                    10.869812
_cell_length_b                    10.955003
_cell_length_c                    9.586706
_cell_angle_alpha                 89.673056
_cell_angle_beta                  90.377844
_cell_angle_gamma                 90.445083
_cell_volume                      1141.49614762

loop_
_atom_site_label
_atom_site_type_symbol
_atom_type_description
_atom_site_fract_x
_atom_site_fract_y
_atom_site_fract_z
_atom_type_partial_charge
C1    C     C_R   0.498663 0.262277 0.499637 0.564424
C2    C     C_R   0.496620 0.936105 0.370472 0.324300
C3    C     C_R   0.470482 0.870278 0.493719 -0.063512
C4    C     C_R   0.262449 0.509728 0.499901 0.575864
C5    C     C_R   0.427291 0.937355 0.607523 -0.042177
C6    C     C_3   0.454303 0.927353 0.760287 0.177807
C7    C     C_3   0.477892 0.066449 0.758014 0.523894
C8    C     C_R   0.603812 0.532531 0.074554 0.108283
C9    C     C_R   0.403227 0.454744 0.073515 0.438293
C10   C     C_R   0.404092 0.452783 0.925564 0.480236
C11   C     C_R   0.603923 0.531799 0.926898 0.173365
C12   C     C_R   0.062232 0.526633 0.627959 -0.024298
C13   C     C_3   0.668462 0.651799 0.921084 0.258194
C14   C     C_3   0.666563 0.654072 0.079133 0.152720
C15   C     C_R   0.490762 0.737367 0.499192 0.569491
C16   C     C_R   0.737529 0.489327 0.501438 0.558478
C17   C     C_R   0.113947 0.574544 0.751510 0.381041
C18   C     C_R   0.067239 0.539357 0.880338 -0.024290
C19   C     C_R   0.966886 0.460099 0.886243 0.329436
C20   C     C_R   0.897976 0.437038 0.763893 0.420267
C21   C     C_R   0.941049 0.480699 0.632838 -0.044478
C22   C     C_3   0.414657 0.131072 0.977072 0.105712
C23   C     C_R   0.127521 0.519235 0.501053 0.015631
C24   C     C_3   0.293169 0.139447 0.053622 -0.320457
C25   C     C_3   0.694957 0.034070 0.723236 -0.048612
C26   C     C_3   0.804193 0.109874 0.674458 -0.321935
C27   C     C_3   0.831622 0.768153 0.155386 0.010664
C28   C     C_3   0.960899 0.764985 0.216503 -0.369992
C29   C     C_3   0.964376 0.283911 0.012650 0.000892
C30   C     C_3   0.002517 0.242651 0.158294 -0.396830
C31   C     C_3   0.683667 0.108947 0.248703 0.016530
C32   C     C_3   0.718484 0.067676 0.103333 -0.375786
C33   C     C_3   0.374159 0.806600 0.938064 0.023957
C34   C     C_R   0.062351 0.499772 0.376866 -0.179969
C35   C     C_3   0.266660 0.791232 0.037771 -0.324817
C36   C     C_R   0.935651 0.485319 0.378925 -0.173197
C37   C     C_R   0.872478 0.478638 0.505706 -0.002230
C38   C     C_R   0.440259 0.063706 0.608512 0.011468
C39   C     C_R   0.486083 0.128982 0.495065 -0.065414
C40   C     C_R   0.509925 0.063454 0.372155 0.238261
Cu1   Cu    Cu3+1 0.499990 0.499980 0.640670 1.157257
Cu2   Cu    Cu3+1 0.500010 0.500020 0.359330 1.060387
F1    F     F_    0.303499 0.410416 0.140741 -0.655760
F2    F     F_    0.308062 0.400474 0.857665 -0.603937
F3    F     F_    0.785005 0.645064 0.866122 -0.620347
F4    F     F_    0.206431 0.658052 0.747053 -0.623128
F5    F     F_    0.795893 0.366011 0.774524 -0.627378
F6    F     F_    0.520070 0.878334 0.249841 -0.693214
H1    H     H_    0.108843 0.497793 0.277448 0.197118
H2    H     H_    0.232828 0.061193 0.025986 0.144353
H3    H     H_    0.245048 0.223573 0.021583 0.230163
H4    H     H_    0.665274 0.980487 0.631177 0.087239
H5    H     H_    0.726759 0.969910 0.805882 0.131984
H6    H     H_    0.853091 0.149523 0.765046 0.180831
H7    H     H_    0.869804 0.050801 0.618277 0.091985
H8    H     H_    0.773012 0.183172 0.602255 0.185643
H9    H     H_    0.773220 0.821569 0.227526 0.149451
H10   H     H_    0.836313 0.815413 0.052348 0.157916
H11   H     H_    0.018709 0.700800 0.157010 0.168337
H12   H     H_    0.536258 0.872120 0.779901 0.038988
H13   H     H_    0.003014 0.857585 0.211170 0.085649
H14   H     H_    0.957457 0.736109 0.327506 0.165836
H15   H     H_    0.040782 0.260335 0.940388 0.129818
H16   H     H_    0.881764 0.231792 0.980688 0.174061
H17   H     H_    0.928339 0.260620 0.233787 0.142557
H18   H     H_    0.021692 0.143268 0.158326 0.087130
H19   H     H_    0.087106 0.291809 0.191541 0.203785
H20   H     H_    0.723651 0.042876 0.325640 0.106634
H21   H     H_    0.726523 0.199338 0.269248 0.144308
H22   H     H_    0.694251 0.139703 0.026585 0.197542
H23   H     H_    0.613354 0.722516 0.871827 0.035518
H24   H     H_    0.818569 0.049568 0.098850 0.067438
H25   H     H_    0.668437 0.982469 0.075775 0.174693
H26   H     H_    0.456159 0.833472 0.000652 0.122044
H27   H     H_    0.391621 0.717668 0.887698 0.180445
H28   H     H_    0.178346 0.787643 0.979181 0.193988
H29   H     H_    0.277516 0.705480 0.098813 0.120534
H30   H     H_    0.264473 0.868105 0.112364 0.144417
H31   H     H_    0.605438 0.723602 0.123411 0.136234
H32   H     H_    0.113314 0.567453 0.975342 0.143564
H33   H     H_    0.887194 0.478565 0.280496 0.234198
H34   H     H_    0.473995 0.209981 0.005842 0.188847
H35   H     H_    0.460875 0.046110 0.012099 0.170087
H36   H     H_    0.308936 0.140342 0.168103 0.154246
N1    N     N_R   0.500790 0.500930 0.147930 -0.303370
N2    N     N_R   0.500790 0.500890 0.852020 -0.300904
O1    O     O_R   0.500000 0.319640 0.618810 -0.418285
O2    O     O_3   0.601665 0.110717 0.777894 -0.556076
O3    O     O_3   0.784945 0.648055 0.140385 -0.487995
O4    O     O_3   0.935185 0.409543 0.013403 -0.518888
O5    O     O_3   0.554373 0.121966 0.254837 -0.543086
O6    O     O_3   0.346337 0.894791 0.834749 -0.503444
O7    O     O_R   0.500010 0.319680 0.381230 -0.460960
O8    O     O_R   0.319640 0.499980 0.618820 -0.395275
O9    O     O_R   0.319650 0.500020 0.381230 -0.471438
O10   O     O_R   0.499990 0.680320 0.618770 -0.521546
O11   O     O_R   0.500000 0.680360 0.381190 -0.458780
O12   O     O_R   0.680350 0.499980 0.618770 -0.413249
O13   O     O_R   0.680360 0.500020 0.381180 -0.506315
O14   O     O_3   0.390639 0.134904 0.832410 -0.483062

loop_
_geom_bond_atom_site_label_1
_geom_bond_atom_site_label_2
_ccdc_geom_bond_type
C1    O1    A    
C29   H15   S    
Cu2   O7    S    
Cu1   Cu2   S    
C19   C20   A    
C26   H7    S    
C32   H24   S    
Cu1   N2    S    
C12   C23   A    
C22   H34   S    
C36   C37   A    
C25   H5    S    
C18   C19   A    
C38   C39   A    
Cu1   O10   S    
C11   N2    A    
C8    N1    A    
C9    N1    A    
C33   H27   S    
C7    O2    S    
C12   C17   A    
C9    C10   A    
C30   H19   S    
C16   C37   S    
C28   H13   S    
C24   H3    S    
C29   H16   S    
C13   C14   S    
C15   O11   A    
C26   H6    S    
C29   O4    S    
C24   H2    S    
C31   H20   S    
Cu1   O1    S    
C35   H28   S    
C9    F1    S    
C22   O14   S    
C7    O14   S    
C10   F2    S    
Cu2   O9    S    
C30   H17   S    
C6    H12   S    
C17   F4    S    
C27   H9    S    
C33   O6    S    
C39   C40   A    
C4    C23   S    
C32   H22   S    
C13   H23   S    
C2    F6    S    
C25   C26   S    
C12   C21   A    
C35   H29   S    
C25   O2    S    
C14   O3    S    
C29   C30   S    
C4    O9    A    
Cu1   O8    S    
C36   H33   S    
C23   C34   A    
C17   C18   A    
Cu2   N1    S    
C14   H31   S    
C30   H18   S    
C4    O8    A    
C18   H32   S    
C31   O5    S    
C22   C24   S    
Cu2   O11   S    
C15   O10   A    
C3    C15   S    
C28   H11   S    
C10   N2    A    
C34   H1    S    
C8    C14   S    
C31   C32   S    
C3    C5    A    
C27   H10   S    
C26   H8    S    
C16   O13   A    
C6    C7    S    
C35   H30   S    
C22   H35   S    
C2    C3    A    
C24   H36   S    
C25   H4    S    
C19   O4    S    
Cu2   O13   S    
C13   F3    S    
C11   C13   S    
C16   O12   A    
C5    C6    S    
C8    C11   A    
C6    O6    S    
C33   C35   S    
C7    C38   S    
C27   O3    S    
C34   C36   A    
C40   O5    S    
C20   F5    S    
C1    C39   S    
C2    C40   A    
C33   H26   S    
C31   H21   S    
C21   C37   A    
C20   C21   A    
C1    O7    A    
C27   C28   S    
Cu1   O12   S    
C5    C38   A    
C32   H25   S    
C28   H14   S    
