data_mof_unit_65199.cif
_audit_creation_date              2012-12-10T18:12:03-0500
_audit_creation_method            fapswitch 2.2
_symmetry_space_group_name_H-M    P1
_symmetry_Int_Tables_number       1
_space_group_crystal_system       triclinic
_cell_length_a                    18.724685
_cell_length_b                    18.719212
_cell_length_c                    18.763749
_cell_angle_alpha                 109.614691
_cell_angle_beta                  109.504747
_cell_angle_gamma                 109.639038
_cell_volume                      5041.23933172

loop_
_atom_site_label
_atom_site_type_symbol
_atom_type_description
_atom_site_fract_x
_atom_site_fract_y
_atom_site_fract_z
_atom_type_partial_charge
C1    C     C_R   0.620056 0.620374 0.499994 0.858748
C2    C     C_R   0.195683 0.162372 0.193954 -0.116617
C3    C     C_R   0.179034 0.420820 0.174160 -0.249143
C4    C     C_R   0.186796 0.501555 0.187148 -0.063552
C5    C     C_R   0.255834 0.580742 0.263684 0.009790
C6    C     C_R   0.316490 0.577374 0.327310 -0.249464
C7    C     C_R   0.310113 0.496812 0.313678 -0.077670
C8    C     C_R   0.240367 0.417302 0.237236 0.003601
C9    C     C_R   0.309436 0.719211 0.254568 0.075952
C10   C     C_R   0.310529 0.798378 0.269262 -0.192984
C11   C     C_R   0.267890 0.826244 0.311147 -0.140292
C12   C     C_R   0.378141 0.498310 0.379719 0.867564
C13   C     C_R   0.222778 0.774957 0.337803 -0.119592
C14   C     C_R   0.219824 0.695407 0.322428 -0.188451
C15   C     C_R   0.262902 0.666826 0.280990 0.071200
C16   C     C_R   0.758325 0.758138 0.579682 -0.190946
C17   C     C_R   0.822997 0.821362 0.579574 -0.188140
C18   C     C_R   0.813061 0.813923 0.499789 -0.004587
C19   C     C_R   0.739544 0.743455 0.420069 -0.192310
C20   C     C_R   0.676210 0.678818 0.420125 -0.196966
C21   C     C_R   0.685756 0.686804 0.499943 -0.001239
C22   C     C_R   0.669794 0.490818 0.755238 -0.060112
C23   C     C_R   0.379577 0.379524 0.499690 0.867133
C24   C     C_R   0.734711 0.491657 0.820562 -0.053095
C25   C     C_R   0.811859 0.502333 0.817387 -0.070947
C26   C     C_R   0.823238 0.509975 0.749989 -0.198972
C27   C     C_R   0.757911 0.505853 0.684181 -0.210346
C28   C     C_R   0.682244 0.497132 0.687069 -0.067826
C29   C     C_R   0.246817 0.325618 0.508893 -0.206583
C30   C     C_R   0.182443 0.261212 0.508086 -0.201463
C31   C     C_R   0.186400 0.185933 0.499949 -0.004959
C32   C     C_R   0.252894 0.173346 0.490817 -0.214678
C33   C     C_R   0.315780 0.236521 0.488866 -0.216220
C34   C     C_R   0.618735 0.498829 0.620253 0.877840
C35   C     C_R   0.313016 0.312854 0.498923 -0.014146
C36   C     C_R   0.998638 0.620806 0.118406 0.879852
C37   C     C_R   0.120377 0.500926 0.120836 0.885466
C38   C     C_R   0.000008 0.379546 0.879856 0.861445
C39   C     C_R   0.879463 0.501209 0.881247 0.876595
C40   C     C_R   0.999472 0.879415 0.379776 0.869749
C41   C     C_R   0.879597 0.879726 0.499791 0.858634
C42   C     C_R   0.000067 0.120113 0.620209 0.858356
C43   C     C_R   0.120290 0.119979 0.499943 0.860058
C44   C     C_R   0.006870 0.765559 0.181416 -0.010578
C45   C     C_R   0.208652 0.188784 0.135785 -0.145422
C46   C     C_R   0.005156 0.827213 0.246103 -0.238310
C47   C     C_R   0.999987 0.814497 0.313564 -0.022395
C48   C     C_R   0.994851 0.740103 0.317445 -0.217223
C49   C     C_R   0.993138 0.676439 0.251846 -0.222261
C50   C     C_R   0.999458 0.688733 0.184165 -0.059902
C51   C     C_R   0.079962 0.322422 0.821963 -0.191169
C52   C     C_R   0.079996 0.257884 0.758595 -0.192178
C53   C     C_R   0.000054 0.186066 0.686534 -0.007026
C54   C     C_R   0.920091 0.177342 0.677970 -0.186342
C55   C     C_R   0.920067 0.240510 0.742706 -0.186961
C56   C     C_R   0.223733 0.272093 0.150100 -0.144925
C57   C     C_R   0.999994 0.313117 0.813977 -0.007219
C58   C     C_R   0.226862 0.329974 0.223437 0.132694
C59   C     C_R   0.213517 0.302867 0.281511 -0.125536
C60   C     C_R   0.197786 0.219229 0.266545 -0.115898
H1    H     H_    0.183576 0.097701 0.182545 0.128808
H2    H     H_    0.269608 0.887633 0.322739 0.125886
H3    H     H_    0.189658 0.796698 0.370042 0.150745
H4    H     H_    0.765467 0.763786 0.641392 0.139400
H5    H     H_    0.879896 0.876422 0.641261 0.142677
H6    H     H_    0.732217 0.737834 0.358319 0.139682
H7    H     H_    0.619523 0.623445 0.358490 0.134815
H8    H     H_    0.881978 0.517045 0.747212 0.155443
H9    H     H_    0.206646 0.144549 0.079378 0.127590
H10   H     H_    0.130563 0.270452 0.515144 0.142681
H11   H     H_    0.367409 0.226957 0.481538 0.148465
H12   H     H_    0.009675 0.886149 0.245014 0.147917
H13   H     H_    0.990642 0.730821 0.370198 0.147091
H14   H     H_    0.988487 0.618259 0.254691 0.155672
H15   H     H_    0.141824 0.378697 0.877566 0.142622
H16   H     H_    0.233265 0.291643 0.104317 0.126264
H17   H     H_    0.141867 0.264527 0.764794 0.139458
H18   H     H_    0.858242 0.121284 0.622152 0.143350
H19   H     H_    0.858197 0.233764 0.736602 0.142635
H20   H     H_    0.214384 0.346090 0.337689 0.103048
H21   H     H_    0.186731 0.198231 0.310907 0.148700
H22   H     H_    0.124414 0.360397 0.115056 0.151158
H23   H     H_    0.369763 0.637974 0.387042 0.153361
H24   H     H_    0.345091 0.838943 0.248822 0.124640
O1    O     O_R   0.591640 0.539900 0.448310 -0.623494
O2    O     O_R   0.051750 0.643320 0.091550 -0.620139
O3    O     O_R   0.039910 0.448280 0.091610 -0.624792
O4    O     O_R   0.143370 0.551700 0.091590 -0.623821
O5    O     O_R   0.948300 0.356650 0.908390 -0.624103
O6    O     O_R   0.051750 0.460070 0.908380 -0.627753
O7    O     O_R   0.856690 0.448280 0.908350 -0.614579
O8    O     O_R   0.960140 0.551690 0.908340 -0.620847
O9    O     O_R   0.051710 0.908290 0.460000 -0.625648
O10   O     O_R   0.948270 0.908330 0.356580 -0.624757
O11   O     O_R   0.960090 0.908280 0.551610 -0.624504
O12   O     O_R   0.591610 0.643330 0.551710 -0.625118
O13   O     O_R   0.856650 0.908310 0.448190 -0.623467
O14   O     O_R   0.051730 0.091500 0.643240 -0.624298
O15   O     O_R   0.948290 0.091530 0.539820 -0.622112
O16   O     O_R   0.143350 0.091510 0.551630 -0.625856
O17   O     O_R   0.039910 0.091550 0.448210 -0.621664
O18   O     O_R   0.408400 0.448280 0.356670 -0.610859
O19   O     O_R   0.408370 0.551710 0.460080 -0.629114
O20   O     O_R   0.408390 0.356670 0.448290 -0.622300
O21   O     O_R   0.408360 0.460100 0.551690 -0.616399
O22   O     O_R   0.591630 0.448290 0.539920 -0.626398
O23   O     O_R   0.591600 0.551720 0.643330 -0.616396
O24   O     O_R   0.948300 0.539910 0.091570 -0.619241
Zn1   Zn    Zn3+2 0.500020 0.430940 0.430950 0.955337
Zn2   Zn    Zn3+2 0.499980 0.569060 0.569050 0.950323
Zn3   Zn    Zn3+2 0.930950 0.430940 0.999980 0.959337
Zn4   Zn    Zn3+2 0.069100 0.569040 0.999960 0.935888
Zn5   Zn    Zn3+2 0.069070 0.999890 0.568970 0.938879
Zn6   Zn    Zn3+2 0.930930 0.999930 0.430860 0.946507
H25   H     H_    0.183561 0.655726 0.342480 0.133389
C61   C     C_R   0.590274 0.484484 0.759444 0.136516
C62   C     C_R   0.510905 0.404057 0.707258 -0.176907
C63   C     C_R   0.437921 0.397302 0.715942 -0.114117
C64   C     C_R   0.443232 0.470999 0.775154 -0.104990
C65   C     C_R   0.521938 0.551430 0.826741 -0.146633
C66   C     C_R   0.595499 0.558155 0.819388 -0.097377
H26   H     H_    0.506240 0.346490 0.661425 0.114094
H27   H     H_    0.377276 0.334883 0.677091 0.152574
H28   H     H_    0.386506 0.465641 0.781400 0.120015
H29   H     H_    0.526157 0.608363 0.872961 0.120442
H30   H     H_    0.656618 0.620416 0.860604 0.113221
C67   C     C_R   0.721675 0.482445 0.891732 0.141692
C68   C     C_R   0.656700 0.402766 0.873116 -0.106599
C69   C     C_R   0.643646 0.394815 0.939857 -0.147351
C70   C     C_R   0.695430 0.466146 0.025500 -0.116522
C71   C     C_R   0.760504 0.545412 0.044535 -0.113920
C72   C     C_R   0.773769 0.553395 0.977935 -0.145347
H31   H     H_    0.616393 0.346989 0.807068 0.117451
H32   H     H_    0.593390 0.333363 0.925180 0.125481
H33   H     H_    0.685253 0.459944 0.077106 0.122361
H34   H     H_    0.800746 0.600588 0.110870 0.140291
H35   H     H_    0.824617 0.614383 0.993193 0.108043
H36   H     H_    0.767175 0.511511 0.631880 0.149621
H37   H     H_    0.244453 0.384547 0.516045 0.147262
H38   H     H_    0.255153 0.114429 0.483982 0.141390
C73   C     C_R   0.013546 0.783075 0.111798 0.114543
C74   C     C_R   0.943136 0.780977 0.050945 -0.196147
C75   C     C_R   0.949626 0.799124 0.986190 -0.123394
C76   C     C_R   0.027324 0.822026 0.983301 -0.104592
C77   C     C_R   0.098965 0.827841 0.045821 -0.158844
C78   C     C_R   0.092544 0.809471 0.110486 -0.087077
H39   H     H_    0.883337 0.765490 0.053778 0.125785
H40   H     H_    0.894636 0.796045 0.938651 0.128564
H41   H     H_    0.032362 0.836267 0.933273 0.120563
H42   H     H_    0.159604 0.846921 0.044407 0.115433
H43   H     H_    0.148874 0.815344 0.159147 0.132654
C79   C     C_R   0.355204 0.691787 0.209795 0.096951
C80   C     C_R   0.328346 0.675325 0.123766 -0.115745
C81   C     C_R   0.370924 0.648695 0.080962 -0.156764
C82   C     C_R   0.441130 0.639294 0.124015 -0.115961
C83   C     C_R   0.469144 0.656925 0.210100 -0.125927
C84   C     C_R   0.426617 0.683383 0.253057 -0.145568
H44   H     H_    0.273950 0.682269 0.089646 0.126079
H45   H     H_    0.349505 0.635373 0.014416 0.123745
H46   H     H_    0.474093 0.618779 0.090832 0.122968
H47   H     H_    0.524043 0.650436 0.243660 0.123923
H48   H     H_    0.450005 0.698217 0.320190 0.123977

loop_
_geom_bond_atom_site_label_1
_geom_bond_atom_site_label_2
_ccdc_geom_bond_type
C40   C47   S    
O21   Zn2   S    
C9    C79   S    
C1    C21   S    
C16   C21   A    
C56   H16   S    
C36   O24   A    
C54   C55   A    
C20   H7    S    
C70   H33   S    
O6    Zn4   S    
C40   O9    A    
C11   H2    S    
C68   C69   A    
O15   Zn6   S    
C77   C78   A    
O10   Zn6   S    
C7    C8    A    
C53   C54   A    
C52   C53   A    
C38   O5    A    
C26   C27   A    
C76   H41   S    
C31   C43   S    
O19   Zn2   S    
C5    C6    A    
C34   O23   A    
C83   C84   A    
C51   H15   S    
C32   H38   S    
O1    Zn1   S    
C42   O14   A    
C42   C53   S    
O20   Zn1   S    
C2    C60   A    
O3    Zn3   S    
C14   H25   S    
C23   O21   A    
C61   C62   A    
C19   H6    S    
C18   C19   A    
O7    Zn3   S    
C80   H44   S    
C67   C72   A    
C37   O4    A    
C8    C58   S    
C63   C64   A    
C72   H35   S    
C31   C32   A    
C45   C56   A    
C16   C17   A    
C24   C67   S    
C51   C57   A    
C9    C10   A    
C46   H12   S    
C77   H42   S    
C2    H1    S    
C22   C61   S    
C28   C34   S    
C59   C60   A    
C49   H14   S    
C22   C28   A    
C13   C14   A    
O17   Zn6   S    
C7    C12   S    
C73   C74   A    
C48   H13   S    
C39   O7    A    
C30   H10   S    
C44   C46   A    
C2    C45   A    
C1    O1    A    
C75   H40   S    
C29   H37   S    
C27   H36   S    
C61   C66   A    
C45   H9    S    
C51   C52   A    
C34   O22   A    
C24   C25   A    
C12   O19   A    
C3    C8    A    
C18   C41   S    
C65   H29   S    
O8    Zn4   S    
O14   Zn5   S    
C36   O2    A    
C58   C59   A    
C64   H28   S    
O12   Zn2   S    
C3    C4    A    
C69   H32   S    
O2    Zn4   S    
C62   H26   S    
C43   O17   A    
C12   O18   A    
C29   C30   A    
C38   C57   S    
C55   H19   S    
C60   H21   S    
C47   C48   A    
C13   H3    S    
C30   C31   A    
C20   C21   A    
C3    H22   S    
C17   C18   A    
O9    Zn5   S    
C43   O16   A    
C81   C82   A    
C6    C7    A    
C73   C78   A    
C48   C49   A    
C83   H47   S    
C71   H34   S    
C23   C35   S    
C55   C57   A    
O23   Zn2   S    
C41   O13   A    
C52   H17   S    
C39   O8    A    
C82   C83   A    
C36   C50   S    
C65   C66   A    
C69   C70   A    
C44   C73   S    
C44   C50   A    
O5    Zn3   S    
C46   C47   A    
C6    H23   S    
C82   H46   S    
C38   O6    A    
C74   H39   S    
C37   O3    A    
O16   Zn5   S    
C40   O10   A    
C76   C77   A    
C59   H20   S    
C64   C65   A    
C67   C68   A    
C29   C35   A    
C17   H5    S    
O24   Zn3   S    
C26   H8    S    
C32   C33   A    
C19   C20   A    
C70   C71   A    
C25   C26   A    
C66   H30   S    
C68   H31   S    
C42   O15   A    
C11   C13   A    
C41   O11   A    
O11   Zn5   S    
C1    O12   A    
C4    C5    A    
C10   H24   S    
C33   C35   A    
C56   C58   A    
C79   C84   A    
C22   C24   A    
C63   H27   S    
C23   O20   A    
C9    C15   A    
C71   C72   A    
C5    C15   S    
C10   C11   A    
C33   H11   S    
C78   H43   S    
O4    Zn4   S    
C81   H45   S    
C4    C37   S    
C49   C50   A    
C27   C28   A    
C74   C75   A    
C14   C15   A    
O18   Zn1   S    
C79   C80   A    
C16   H4    S    
C54   H18   S    
O13   Zn6   S    
C62   C63   A    
C84   H48   S    
C25   C39   S    
C75   C76   A    
C80   C81   A    
O22   Zn1   S    
