data_mof_unit_25852.cif
_audit_creation_date              2012-12-10T17:32:17-0500
_audit_creation_method            fapswitch 2.2
_symmetry_space_group_name_H-M    P1
_symmetry_Int_Tables_number       1
_space_group_crystal_system       triclinic
_cell_length_a                    12.416444
_cell_length_b                    13.099227
_cell_length_c                    15.027452
_cell_angle_alpha                 75.462342
_cell_angle_beta                  100.761216
_cell_angle_gamma                 117.133174
_cell_volume                      2098.11202074

loop_
_atom_site_label
_atom_site_type_symbol
_atom_type_description
_atom_site_fract_x
_atom_site_fract_y
_atom_site_fract_z
_atom_type_partial_charge
C1    C     C_R   0.855036 0.285523 0.507135 0.971429
C2    C     C_R   0.070902 0.611219 0.081094 -0.047542
C3    C     C_R   0.959344 0.292561 0.087740 -0.139670
C4    C     C_R   0.954162 0.290056 0.993870 0.356710
C5    C     C_R   0.979310 0.394515 0.926713 0.071047
C6    C     C_R   0.020706 0.502857 0.955996 -0.048694
C7    C     C_R   0.057096 0.610368 0.890978 -0.013113
C8    C     C_R   0.110379 0.717717 0.923154 0.349295
C9    C     C_R   0.124190 0.717184 0.018039 0.357681
C10   C     C_R   0.967552 0.394557 0.831078 -0.090550
C11   C     C_R   0.000477 0.500317 0.767517 -0.190655
C12   C     C_R   0.999623 0.499791 0.670460 0.796389
C13   C     C_R   0.042189 0.607175 0.795771 -0.062119
C14   C     C_R   0.278907 0.046734 0.417449 -0.041609
C15   C     C_R   0.229126 0.841887 0.483845 -0.238821
C16   C     C_R   0.812192 0.072647 0.549802 0.347874
C17   C     C_R   0.733271 0.953996 0.547680 -0.207341
C18   C     C_R   0.612039 0.922946 0.509664 0.448987
C19   C     C_R   0.567447 0.009159 0.482093 -0.017039
C20   C     C_R   0.652670 0.126453 0.460737 -0.135057
C21   C     C_R   0.441245 0.982292 0.469177 0.053736
C22   C     C_R   0.402989 0.069550 0.418949 -0.064751
C23   C     C_R   0.145147 0.715021 0.491154 0.762086
C24   C     C_R   0.490524 0.176011 0.372847 -0.133442
C25   C     C_R   0.615638 0.203934 0.393359 0.407153
C26   C     C_R   0.353321 0.874234 0.511743 0.480215
C27   C     C_R   0.191625 0.931905 0.446761 -0.105640
C28   C     C_R   0.773424 0.160271 0.503489 -0.127281
C29   C     C_R   0.310006 0.285997 0.618836 -0.161466
C30   C     C_R   0.759160 0.648107 0.372552 -0.062911
C31   C     C_R   0.653935 0.664003 0.333316 0.297050
C32   C     C_R   0.543416 0.589463 0.369974 0.509988
C33   C     C_R   0.539640 0.513535 0.456120 -0.262682
C34   C     C_R   0.001116 0.500526 0.329659 0.878623
C35   C     C_R   0.644335 0.491375 0.489310 0.128530
C36   C     C_R   0.433750 0.454784 0.508414 -0.110097
C37   C     C_R   0.415552 0.347876 0.569653 -0.086576
C38   C     C_R   0.506809 0.309406 0.583436 0.264151
C39   C     C_R   0.625171 0.391009 0.561191 0.363584
C40   C     C_R   0.346107 0.498882 0.502434 0.522960
C41   C     C_R   0.229851 0.335634 0.612039 0.484469
C42   C     C_R   0.065515 0.610904 0.174162 0.319664
C43   C     C_R   0.007997 0.503762 0.233778 -0.180035
C44   C     C_R   0.964212 0.397622 0.204929 0.346708
C45   C     C_R   0.980298 0.396480 0.114541 -0.052099
C46   C     C_R   0.023337 0.503513 0.050370 -0.105861
Cu1   Cu    Cu3+1 0.098270 0.475420 0.521130 1.028530
Cu2   Cu    Cu3+1 0.901730 0.524580 0.478870 1.019427
N1    N     N_R   0.246280 0.438190 0.553160 -0.266464
N2    N     N_R   0.754320 0.561190 0.447410 -0.205972
O1    O     O_R   0.972510 0.318130 0.526570 -0.487151
O2    O     O_R   0.806530 0.359650 0.490890 -0.531382
O3    O     O_R   0.082980 0.479210 0.647590 -0.596961
O4    O     O_R   0.917000 0.520730 0.611900 -0.504228
O5    O     O_R   0.193470 0.640350 0.509110 -0.554263
O6    O     O_R   0.027490 0.681870 0.473430 -0.578728
O7    O     O_R   0.083000 0.479270 0.388100 -0.612240
O8    O     O_R   0.917020 0.520790 0.352410 -0.568541
O9    O     O_3   0.110551 0.715917 0.203817 -0.669338
H1    H     H_    0.130755 0.704619 0.271374 0.313365
C47   C     C_1   0.453577 0.251622 0.298613 0.241360
N3    N     N_1   0.424791 0.312306 0.239211 -0.234903
C48   C     C_1   0.240964 0.140835 0.393660 0.294177
N4    N     N_1   0.210211 0.215366 0.375331 -0.246503
O10   O     O_3   0.389319 0.807523 0.587078 -0.658779
H2    H     H_    0.320277 0.758200 0.625816 0.327948
O11   O     O_3   0.928161 0.106215 0.593761 -0.646099
H3    H     H_    0.939789 0.038054 0.631922 0.352280
O12   O     O_3   0.538345 0.812666 0.490507 -0.620943
H4    H     H_    0.586078 0.767722 0.496464 0.342120
C49   C     C_1   0.774269 0.863528 0.587474 0.262745
N5    N     N_1   0.806552 0.791001 0.619367 -0.237534
O13   O     O_3   0.702760 0.297661 0.341002 -0.697554
H5    H     H_    0.672414 0.356602 0.309515 0.331598
O14   O     O_3   0.132817 0.278662 0.664922 -0.656970
H6    H     H_    0.147698 0.329784 0.708676 0.332917
O15   O     O_3   0.484331 0.196132 0.627109 -0.732530
H7    H     H_    0.546789 0.176638 0.612707 0.335806
C50   C     C_1   0.283241 0.174559 0.680925 0.477441
N6    N     N_1   0.261232 0.085476 0.730469 -0.197698
O16   O     O_3   0.901654 0.296869 0.265844 -0.687312
H8    H     H_    0.829765 0.245881 0.230431 0.342660
O17   O     O_3   0.367030 0.607420 0.450794 -0.643067
H9    H     H_    0.290923 0.600914 0.413371 0.364447
C51   C     C_1   0.867819 0.714400 0.324711 0.359215
N7    N     N_1   0.953715 0.769060 0.284704 -0.233650
O18   O     O_3   0.440138 0.583852 0.313577 -0.636882
H10   H     H_    0.374381 0.504079 0.329100 0.325247
O19   O     O_3   0.652372 0.744758 0.253969 -0.651356
H11   H     H_    0.735697 0.805471 0.242910 0.328943
O20   O     O_3   0.719038 0.373769 0.615292 -0.701082
H12   H     H_    0.692547 0.325761 0.676575 0.321958
C52   C     C_1   0.959698 0.192380 0.156501 0.322776
N8    N     N_1   0.960220 0.112571 0.211144 -0.224701
O21   O     O_3   0.931411 0.187825 0.967112 -0.712859
H13   H     H_    0.882978 0.119209 0.012091 0.339816
C53   C     C_1   0.915269 0.287170 0.794733 0.373390
N9    N     N_1   0.873542 0.202252 0.765121 -0.210638
C54   C     C_1   0.067271 0.711847 0.724805 0.379924
N10   N     N_1   0.086919 0.795049 0.668263 -0.247871
O22   O     O_3   0.156560 0.822780 0.861625 -0.698462
H14   H     H_    0.172727 0.888771 0.890850 0.388579
O23   O     O_3   0.194095 0.821822 0.047253 -0.663588
H15   H     H_    0.257279 0.809796 0.093958 0.371499
C55   C     C_1   0.066619 0.910952 0.447360 0.371027
N11   N     N_1   0.967567 0.896173 0.448376 -0.266223

loop_
_geom_bond_atom_site_label_1
_geom_bond_atom_site_label_2
_ccdc_geom_bond_type
C16   C28   A    
C21   C26   A    
O22   H14   S    
O13   H5    S    
O21   H13   S    
C43   C44   A    
C53   N9    T    
C7    C8    A    
Cu1   N1    S    
O15   H7    S    
C2    C46   A    
Cu2   O4    S    
C52   N8    T    
O17   H9    S    
C36   C37   A    
C19   C21   A    
C5    C6    A    
C41   O14   S    
C20   C25   A    
C27   C55   S    
C40   N1    A    
C33   C36   A    
C18   C19   A    
C41   N1    A    
C19   C20   A    
C16   C17   A    
C31   O19   S    
C1    C28   S    
C14   C27   A    
C8    O22   S    
C12   O3    A    
Cu1   O3    S    
C18   O12   S    
Cu2   N2    S    
C30   N2    A    
O9    H1    S    
C21   C22   A    
C40   O17   S    
O12   H4    S    
C39   O20   S    
O16   H8    S    
C38   C39   A    
O11   H3    S    
Cu1   Cu2   S    
C36   C40   A    
C24   C25   A    
C44   O16   S    
O20   H12   S    
C8    C9    A    
C15   C26   A    
Cu1   O1    S    
C20   C28   A    
C51   N7    T    
C32   O18   S    
C3    C45   A    
C48   N4    T    
C13   C54   S    
C10   C53   S    
C35   C39   A    
O14   H6    S    
C37   C38   A    
Cu1   O7    S    
C4    O21   S    
C15   C27   A    
C54   N10   T    
C29   C50   S    
Cu2   O2    S    
C9    O23   S    
C35   N2    A    
C17   C18   A    
C3    C52   S    
C16   O11   S    
C30   C51   S    
Cu2   O8    S    
C1    O1    A    
C23   O6    A    
C24   C47   S    
C17   C49   S    
C22   C24   A    
C42   C43   A    
C3    C4    A    
C44   C45   A    
Cu1   O5    S    
Cu2   O6    S    
C6    C46   A    
C29   C41   A    
C26   O10   S    
C31   C32   A    
C34   C43   S    
C4    C5    A    
C42   O9    S    
C11   C12   S    
C23   O5    A    
C6    C7    A    
C38   O15   S    
C55   N11   T    
C32   C33   A    
C14   C22   A    
C5    C10   A    
C11   C13   A    
C30   C31   A    
C2    C42   A    
C34   O7    A    
C14   C48   S    
C15   C23   S    
C33   C35   A    
C25   O13   S    
C47   N3    T    
C1    O2    A    
C10   C11   A    
C50   N6    T    
C45   C46   A    
C7    C13   A    
C49   N5    T    
O18   H10   S    
O10   H2    S    
C29   C37   A    
O23   H15   S    
C34   O8    A    
O19   H11   S    
C2    C9    A    
C12   O4    A    
