data_mof_unit_17007.cif
_audit_creation_date              2012-12-10T20:26:29-0500
_audit_creation_method            fapswitch 2.2
_symmetry_space_group_name_H-M    P1
_symmetry_Int_Tables_number       1
_space_group_crystal_system       triclinic
_cell_length_a                    10.578836
_cell_length_b                    10.730734
_cell_length_c                    9.913245
_cell_angle_alpha                 90.209054
_cell_angle_beta                  91.764931
_cell_angle_gamma                 90.800636
_cell_volume                      1124.68539357

loop_
_atom_site_label
_atom_site_type_symbol
_atom_type_description
_atom_site_fract_x
_atom_site_fract_y
_atom_site_fract_z
_atom_type_partial_charge
C1    C     C_R   0.505914 0.259666 0.498964 0.845877
C2    C     C_R   0.604786 0.536765 0.075071 0.399939
C3    C     C_R   0.605897 0.533561 0.931918 0.392739
C4    C     C_R   0.261700 0.502216 0.497700 0.795846
C5    C     C_R   0.389169 0.494493 0.925929 0.084149
C6    C     C_3   0.281736 0.403097 0.916490 0.723811
C7    C     C_3   0.285252 0.398423 0.071517 0.103787
C8    C     C_R   0.505868 0.739656 0.500504 0.897249
C9    C     C_R   0.735203 0.478172 0.502151 0.926807
C10   C     C_2   0.931769 0.401076 0.404000 0.201960
C11   C     C_2   0.861367 0.424668 0.512709 0.059065
C12   C     C_R   0.530575 0.127879 0.495926 -0.154852
C13   C     C_2   0.069164 0.408175 0.419743 -0.171615
C14   C     C_2   0.126295 0.501571 0.489503 0.342830
C15   C     C_R   0.538427 0.064606 0.618569 -0.076570
C16   C     C_3   0.879720 0.373481 0.263575 -0.813712
C17   C     C_3   0.909351 0.391620 0.654438 -0.794737
C18   C     C_3   0.561183 0.119275 0.236265 -0.793423
C19   C     C_3   0.520816 0.872471 0.867197 -0.759160
C20   C     C_R   0.550961 0.060686 0.374050 0.170350
C21   C     C_R   0.552403 0.931336 0.379644 -0.200317
C22   C     C_R   0.531017 0.870334 0.501379 -0.146052
C23   C     C_R   0.538125 0.936884 0.621909 0.053250
C24   C     C_3   0.455824 0.930234 0.742432 -0.120922
C25   C     C_3   0.456054 0.072176 0.738748 0.337628
C26   C     C_R   0.389657 0.492168 0.067207 0.050544
H1    H     H_    0.314331 0.308342 0.117348 0.091510
H2    H     H_    0.670212 0.647684 0.211103 0.362000
H3    H     H_    0.681002 0.635070 0.798537 0.359681
H4    H     H_    0.102303 0.397011 0.873483 0.316764
H5    H     H_    0.246483 0.230173 0.877008 0.290567
H6    H     H_    0.112055 0.383669 0.120318 0.318522
H7    H     H_    0.838794 0.330224 0.703055 0.223595
H8    H     H_    0.999061 0.339229 0.655168 0.223769
H9    H     H_    0.922470 0.477359 0.716572 0.316070
H10   H     H_    0.119717 0.657664 0.588326 0.335207
H11   H     H_    0.638042 0.190086 0.237855 0.237262
H12   H     H_    0.124584 0.337884 0.369929 0.113431
H13   H     H_    0.584266 0.050000 0.157489 0.227503
H14   H     H_    0.469905 0.161374 0.204621 0.250841
H15   H     H_    0.622987 0.897830 0.875029 0.242274
H16   H     H_    0.473868 0.903979 0.959729 0.247920
H17   H     H_    0.510846 0.769835 0.861761 0.229720
H18   H     H_    0.559616 0.878514 0.286821 0.169635
H19   H     H_    0.360866 0.888472 0.718315 0.143311
H20   H     H_    0.361420 0.110210 0.712910 0.135588
H21   H     H_    0.928674 0.291542 0.222232 0.194724
H22   H     H_    0.778429 0.347868 0.260768 0.246531
H23   H     H_    0.897040 0.454528 0.197255 0.312265
H24   H     H_    0.608611 0.121712 0.847262 0.340362
N1    N     N_R   0.499170 0.499140 0.142800 -0.206431
N2    N     N_R   0.499170 0.499180 0.857150 -0.186458
O1    O     O_R   0.500020 0.316790 0.614690 -0.557132
O2    O     O_3   0.705854 0.592999 0.141711 -0.710251
O3    O     O_3   0.711612 0.579114 0.871159 -0.703116
O4    O     O_3   0.172811 0.456684 0.858344 -0.718575
O5    O     O_3   0.313739 0.291388 0.854568 -0.749722
O6    O     O_3   0.178057 0.449936 0.127674 -0.704565
O7    O     O_3   0.058850 0.598159 0.543999 -0.751842
O8    O     O_R   0.500000 0.316760 0.385350 -0.632818
O9    O     O_R   0.319080 0.500020 0.614640 -0.563444
O10   O     O_R   0.319070 0.499980 0.385300 -0.572600
O11   O     O_R   0.500000 0.683240 0.614650 -0.635870
O12   O     O_R   0.499980 0.683210 0.385310 -0.635864
O13   O     O_R   0.680930 0.500020 0.614700 -0.606157
O14   O     O_R   0.680920 0.499980 0.385360 -0.614417
O15   O     O_3   0.515544 0.130613 0.852180 -0.702691
Zn1   Zn    Zn3+2 0.500010 0.500020 0.653130 1.007176
Zn2   Zn    Zn3+2 0.499990 0.499980 0.346870 0.961253

loop_
_geom_bond_atom_site_label_1
_geom_bond_atom_site_label_2
_ccdc_geom_bond_type
C8    C22   S    
C18   H13   S    
C19   H16   S    
C5    N2    A    
H4    O4    S    
C6    C7    S    
C21   H18   S    
C17   H9    S    
H24   O15   S    
C7    O6    S    
C26   N1    A    
C17   H8    S    
N2    Zn1   S    
C12   C15   A    
H6    O6    S    
C23   C24   S    
H10   O7    S    
C12   C20   A    
C15   C23   A    
C2    C3    A    
H2    O2    S    
C10   C16   S    
C13   C14   D    
C24   C25   S    
C2    O2    S    
C14   O7    S    
C9    C11   S    
O9    Zn1   S    
C16   H22   S    
C13   H12   S    
C7    C26   S    
C17   H7    S    
O8    Zn2   S    
C8    O12   A    
C24   H19   S    
C25   H20   S    
C16   H21   S    
C21   C22   A    
C18   H11   S    
C19   H17   S    
C19   C24   S    
C18   C20   S    
C9    O14   A    
C22   C23   A    
C4    C14   S    
C5    C6    S    
C3    N2    A    
C9    O13   A    
C15   C25   S    
O14   Zn2   S    
C6    O5    S    
C2    N1    A    
C8    O11   A    
C5    C26   A    
C4    O10   A    
O13   Zn1   S    
C7    H1    S    
C16   H23   S    
C10   C11   D    
C1    O8    A    
O1    Zn1   S    
C18   H14   S    
O11   Zn1   S    
C11   C17   S    
C1    O1    A    
N1    Zn2   S    
C20   C21   A    
O12   Zn2   S    
H3    O3    S    
C3    O3    S    
C4    O9    A    
C1    C12   S    
H5    O5    S    
C19   H15   S    
O10   Zn2   S    
C6    O4    S    
C10   C13   S    
C25   O15   S    
