data_mof_unit_29775.cif
_audit_creation_date              2012-12-11T15:50:37-0500
_audit_creation_method            fapswitch 2.2
_symmetry_space_group_name_H-M    P1
_symmetry_Int_Tables_number       1
_space_group_crystal_system       monoclinic
_cell_length_a                    6.915608
_cell_length_b                    14.581795
_cell_length_c                    16.124214
_cell_angle_alpha                 90.0
_cell_angle_beta                  89.999984
_cell_angle_gamma                 90.0
_cell_volume                      1625.99763598

loop_
_atom_site_label
_atom_site_type_symbol
_atom_type_description
_atom_site_fract_x
_atom_site_fract_y
_atom_site_fract_z
_atom_type_partial_charge
O1    O     O_R   0.638140 0.833910 0.163320 -0.513864
O2    O     O_R   0.361860 0.166090 0.836680 -0.513864
O3    O     O_R   0.361860 0.166090 0.663320 -0.513864
O4    O     O_R   0.638140 0.833910 0.336680 -0.513864
O5    O     O_R   0.138140 0.666090 0.336680 -0.513864
O6    O     O_R   0.861860 0.333910 0.663320 -0.513864
O7    O     O_R   0.861860 0.333910 0.836680 -0.513864
O8    O     O_R   0.138140 0.666090 0.163320 -0.513864
O9    O     O_R   0.308390 0.844930 0.336080 -0.548974
O10   O     O_R   0.691610 0.155070 0.663920 -0.548974
O11   O     O_R   0.691610 0.155070 0.836080 -0.548974
O12   O     O_R   0.308390 0.844930 0.163920 -0.548974
O13   O     O_R   0.808390 0.655070 0.163920 -0.548974
O14   O     O_R   0.191610 0.344930 0.836080 -0.548974
O15   O     O_R   0.191610 0.344930 0.663920 -0.548974
O16   O     O_R   0.808390 0.655070 0.336080 -0.548974
C1    C     C_R   0.477922 0.866366 0.365701 0.749886
C2    C     C_R   0.522078 0.133634 0.634299 0.749886
C3    C     C_R   0.522078 0.133634 0.865701 0.749886
C4    C     C_R   0.477922 0.866366 0.134299 0.749886
C5    C     C_R   0.977922 0.633634 0.134299 0.749886
C6    C     C_R   0.022078 0.366366 0.865701 0.749886
C7    C     C_R   0.022078 0.366366 0.634299 0.749887
C8    C     C_R   0.977922 0.633634 0.365701 0.749886
O17   O     O_3   0.471620 0.691320 0.250000 -0.367878
O18   O     O_3   0.528380 0.308680 0.750000 -0.367878
O19   O     O_3   0.971620 0.808680 0.250000 -0.367879
O20   O     O_3   0.028380 0.191320 0.750000 -0.367879
V1    V     V_3+5 0.196770 0.760880 0.250000 1.537231
V2    V     V_3+5 0.803230 0.239120 0.750000 1.537231
V3    V     V_3+5 0.696770 0.739120 0.250000 1.537231
V4    V     V_3+5 0.303230 0.260880 0.750000 1.537231
C9    C     C_R   0.831644 0.509619 0.452977 -0.333371
C10   C     C_R   0.168356 0.490381 0.547023 -0.333371
C11   C     C_R   0.168357 0.490380 0.952978 -0.333371
C12   C     C_R   0.831643 0.509620 0.047022 -0.333371
C13   C     C_R   0.331644 0.990381 0.047023 -0.333371
C14   C     C_R   0.668356 0.009619 0.952977 -0.333371
C15   C     C_R   0.668356 0.009619 0.547023 -0.333370
C16   C     C_R   0.331644 0.990381 0.452977 -0.333370
H1    H     H_    0.701206 0.515966 0.416221 0.150851
H2    H     H_    0.298794 0.484034 0.583779 0.150851
H3    H     H_    0.298796 0.484032 0.916223 0.150852
H4    H     H_    0.701204 0.515968 0.083777 0.150852
H5    H     H_    0.201206 0.984034 0.083779 0.150851
H6    H     H_    0.798794 0.015966 0.916221 0.150851
H7    H     H_    0.798795 0.015966 0.583779 0.150851
H8    H     H_    0.201205 0.984034 0.416221 0.150851
C17   C     C_R   0.838573 0.443900 0.517084 0.371711
C18   C     C_R   0.161427 0.556100 0.482916 0.371711
C19   C     C_R   0.161428 0.556099 0.017084 0.371711
C20   C     C_R   0.838572 0.443901 0.982915 0.371711
C21   C     C_R   0.338573 0.056100 0.982916 0.371711
C22   C     C_R   0.661427 0.943900 0.017084 0.371711
C23   C     C_R   0.661427 0.943900 0.482916 0.371712
C24   C     C_R   0.338573 0.056100 0.517084 0.371713
C25   C     C_R   0.008981 0.434237 0.565114 -0.102542
C26   C     C_R   0.991018 0.565763 0.434886 -0.102542
C27   C     C_R   0.991018 0.565763 0.065114 -0.102542
C28   C     C_R   0.008981 0.434237 0.934886 -0.102542
C29   C     C_R   0.508981 0.065763 0.934886 -0.102543
C30   C     C_R   0.491018 0.934237 0.065114 -0.102543
C31   C     C_R   0.491018 0.934237 0.434886 -0.102543
C32   C     C_R   0.508982 0.065763 0.565114 -0.102543
O21   O     O_3   0.681629 0.387669 0.532368 -0.640649
H9    H     H_    0.575727 0.402993 0.493284 0.282275
O22   O     O_3   0.318371 0.612331 0.467632 -0.640649
H10   H     H_    0.424272 0.597007 0.506716 0.282275
O23   O     O_3   0.318373 0.612329 0.032369 -0.640649
H11   H     H_    0.424275 0.597005 0.993286 0.282275
O24   O     O_3   0.681627 0.387671 0.967630 -0.640649
H12   H     H_    0.575724 0.402995 0.006714 0.282275
O25   O     O_3   0.181629 0.112331 0.967632 -0.640650
H13   H     H_    0.075727 0.097007 0.006716 0.282275
O26   O     O_3   0.818371 0.887669 0.032368 -0.640650
H14   H     H_    0.924272 0.902993 0.993284 0.282275
O27   O     O_3   0.818371 0.887670 0.467632 -0.640650
H15   H     H_    0.924275 0.902994 0.506714 0.282276
O28   O     O_3   0.181629 0.112330 0.532368 -0.640650
H16   H     H_    0.075725 0.097006 0.493286 0.282276

loop_
_geom_bond_atom_site_label_1
_geom_bond_atom_site_label_2
_ccdc_geom_bond_type
O17   V3    S    
O18   V4    S    
C9    C26   A    
O12   V1    S    
O19   V1    S    
O25   H13   S    
C10   H2    S    
C12   C27   A    
C13   C30   A    
O15   V4    S    
O27   H15   S    
O16   V3    S    
C15   C32   A    
O11   C3    A    
C16   C31   A    
C17   O21   S    
O8    V1    S    
C3    C29   S    
C5    C27   S    
C6    C28   S    
C23   O27   S    
C9    C17   A    
O1    V3    S    
C17   C25   A    
O3    C2    A    
O2    V4    S    
C16   H8    S    
C20   C28   A    
C21   C29   A    
C15   C23   A    
O11   V2    S    
C16   C24   A    
C23   C31   A    
C10   C25   A    
C24   C32   A    
C11   H3    S    
C18   O22   S    
C12   C20   A    
O9    V1    S    
C14   C29   A    
C13   C21   A    
O15   C7    A    
O16   C8    A    
O7    V2    S    
O3    V4    S    
O5    V1    S    
O17   V1    S    
C10   C18   A    
O19   V3    S    
O22   H10   S    
C18   C26   A    
O20   V4    S    
C22   C30   A    
O28   H16   S    
C11   C28   A    
O26   H14   S    
O10   V2    S    
C14   C22   A    
O12   C4    A    
O8    C5    A    
O13   C5    A    
C24   O28   S    
O4    C1    A    
O9    C1    A    
O6    V2    S    
O18   V2    S    
C11   C19   A    
C12   H4    S    
C19   C27   A    
C13   H5    S    
C15   H7    S    
C7    C25   S    
O1    C4    A    
O2    C3    A    
O13   V3    S    
C21   O25   S    
O14   V4    S    
O7    C6    A    
C9    H1    S    
O14   C6    A    
O20   V2    S    
O24   H12   S    
C20   O24   S    
C1    C31   S    
C2    C32   S    
O5    C8    A    
O10   C2    A    
O6    C7    A    
C4    C30   S    
O23   H11   S    
C14   H6    S    
O4    V3    S    
C22   O26   S    
C8    C26   S    
O21   H9    S    
C19   O23   S    
