data_mof_unit_61036.cif
_audit_creation_date              2012-12-10T17:22:53-0500
_audit_creation_method            fapswitch 2.2
_symmetry_space_group_name_H-M    P1
_symmetry_Int_Tables_number       1
_space_group_crystal_system       triclinic
_cell_length_a                    10.188415
_cell_length_b                    10.510299
_cell_length_c                    10.669261
_cell_angle_alpha                 90.050645
_cell_angle_beta                  94.57618
_cell_angle_gamma                 81.661554
_cell_volume                      1126.75206512

loop_
_atom_site_label
_atom_site_type_symbol
_atom_type_description
_atom_site_fract_x
_atom_site_fract_y
_atom_site_fract_z
_atom_type_partial_charge
C1    C     C_R   0.445054 0.501433 0.266832 0.937841
C2    C     C_R   0.554771 0.484834 0.733156 0.933819
C3    C     C_R   0.499138 0.257657 0.499799 0.943569
C4    C     C_R   0.500855 0.742354 0.500184 0.932924
C5    C     C_3   0.537311 0.037086 0.388455 -0.301689
C6    C     C_3   0.462667 0.963008 0.611505 -0.303441
C7    C     C_3   0.416365 0.969253 0.407448 0.729831
C8    C     C_3   0.583611 0.030836 0.592516 0.740812
C9    C     C_3   0.502501 0.877009 0.500601 -0.223071
C10   C     C_3   0.497480 0.123054 0.499362 -0.220892
C11   C     C_3   0.624960 0.942715 0.483110 -0.229983
C12   C     C_3   0.375025 0.057372 0.516853 -0.214845
C13   C     C_2   0.415734 0.482226 0.133892 -0.401010
C14   C     C_2   0.583483 0.456775 0.866012 -0.393213
C15   C     C_2   0.509065 0.417195 0.067218 0.537863
C16   C     C_2   0.488853 0.420321 0.932484 0.556623
C17   C     C_2   0.072913 0.489563 0.490050 0.656638
C18   C     C_2   0.927127 0.510292 0.510081 0.643315
H1    H     H_    0.565610 0.071655 0.297482 0.227627
H2    H     H_    0.434329 0.928562 0.702502 0.214028
H3    H     H_    0.726837 0.892702 0.471131 0.232299
H4    H     H_    0.273160 0.107412 0.528841 0.234889
H5    H     H_    0.680411 0.469309 0.910710 0.192387
H6    H     H_    0.319511 0.524188 0.089301 0.195562
N1    N     N_2   0.157310 0.552180 0.551120 0.113720
N2    N     N_2   0.842690 0.447820 0.448880 0.110545
O1    O     O_R   0.568940 0.489500 0.307530 -0.536272
O2    O     O_R   0.431060 0.510500 0.692470 -0.533323
O3    O     O_R   0.348880 0.522990 0.340350 -0.582491
O4    O     O_R   0.651120 0.477010 0.659650 -0.580066
O5    O     O_R   0.610000 0.297210 0.483560 -0.565313
O6    O     O_R   0.390000 0.702790 0.516440 -0.575311
O7    O     O_R   0.389940 0.330700 0.516390 -0.594592
O8    O     O_R   0.610060 0.669300 0.483610 -0.605684
Zn1   Zn    Zn3+2 0.646930 0.477640 0.478080 1.170704
Zn2   Zn    Zn3+2 0.353070 0.522360 0.521920 1.171574
F1    F     F_    0.330495 0.931941 0.312039 -0.606116
F2    F     F_    0.669422 0.068231 0.687936 -0.601301
F3    F     F_    0.367667 0.400432 0.878588 -0.611678
F4    F     F_    0.629243 0.360493 0.120970 -0.594658
F5    F     F_    0.880005 0.597727 0.595535 -0.611852
F6    F     F_    0.120073 0.401983 0.404737 -0.611122
F7    F     F_    0.887508 0.361342 0.364457 -0.479423
F8    F     F_    0.112441 0.638817 0.635379 -0.499219

loop_
_geom_bond_atom_site_label_1
_geom_bond_atom_site_label_2
_ccdc_geom_bond_type
C14   H5    S    
C2    O2    A    
C5    H1    S    
C6    H2    S    
C18   N2    D    
C2    O4    A    
C17   N1    D    
C7    C9    S    
C6    C9    S    
C1    O3    A    
C17   C18   S    
C7    F1    S    
C5    C10   S    
C3    C10   S    
C3    O5    A    
C9    C11   S    
O3    Zn2   S    
C4    O6    A    
C10   C12   S    
O4    Zn1   S    
C8    C11   S    
O6    Zn2   S    
N1    F8    S    
C8    C10   S    
N2    F7    S    
C5    C11   S    
C14   C16   D    
C13   C15   D    
C4    O8    A    
C6    C12   S    
C7    C12   S    
C2    C14   S    
O5    Zn1   S    
C15   F4    S    
C1    C13   S    
C3    O7    A    
N1    Zn2   S    
C15   C16   S    
C12   H4    S    
N2    Zn1   S    
O7    Zn2   S    
O2    Zn2   S    
C1    O1    A    
O8    Zn1   S    
C18   F5    S    
C5    C7    S    
C17   F6    S    
C6    C8    S    
C16   F3    S    
O1    Zn1   S    
C4    C9    S    
C11   H3    S    
C13   H6    S    
C8    F2    S    
