data_mof_unit_11775.cif
_audit_creation_date              2012-12-10T17:03:23-0500
_audit_creation_method            fapswitch 2.2
_symmetry_space_group_name_H-M    P1
_symmetry_Int_Tables_number       1
_space_group_crystal_system       triclinic
_cell_length_a                    15.032031
_cell_length_b                    11.018566
_cell_length_c                    9.829169
_cell_angle_alpha                 111.05728
_cell_angle_beta                  98.22292
_cell_angle_gamma                 90.665503
_cell_volume                      1500.18062331

loop_
_atom_site_label
_atom_site_type_symbol
_atom_type_description
_atom_site_fract_x
_atom_site_fract_y
_atom_site_fract_z
_atom_type_partial_charge
C1    C     C_R   0.493452 0.254160 0.440736 0.858458
C2    C     C_R   0.506576 0.745840 0.559262 0.858576
C3    C     C_R   0.059386 0.321112 0.585338 -0.210657
C4    C     C_R   0.940579 0.678555 0.414263 -0.210656
C5    C     C_2   0.490487 0.114853 0.407299 -0.350809
C6    C     C_2   0.509616 0.885146 0.592692 -0.351102
C7    C     C_2   0.500453 0.069534 0.516608 -0.178810
C8    C     C_2   0.499779 0.930465 0.483379 -0.179014
C9    C     C_2   0.507516 0.510409 0.081306 -0.074342
C10   C     C_2   0.492485 0.489590 0.918693 -0.074370
C11   C     C_R   0.329439 0.506295 0.502717 0.804757
C12   C     C_R   0.670558 0.493650 0.497271 0.804817
C13   C     C_R   0.807795 0.578092 0.451060 -0.279320
C14   C     C_R   0.192186 0.421675 0.548700 -0.279351
C15   C     C_R   0.766513 0.486364 0.493255 -0.079871
C16   C     C_R   0.233482 0.513533 0.506707 -0.079844
C17   C     C_R   0.816845 0.393328 0.534191 0.034218
C18   C     C_R   0.183156 0.606615 0.465868 0.034140
C19   C     C_R   0.911661 0.399478 0.537933 0.090069
C20   C     C_R   0.088319 0.600311 0.461872 0.090051
C21   C     C_R   0.952894 0.495751 0.497887 0.039406
C22   C     C_R   0.047080 0.503991 0.501840 0.039432
C23   C     C_R   0.900223 0.583937 0.453634 0.114622
C24   C     C_R   0.099751 0.415788 0.546063 0.114643
C25   C     C_R   0.966790 0.312814 0.581446 -0.224966
C26   C     C_R   0.033178 0.686884 0.418208 -0.225042
Cu1   Cu    Cu3+1 0.515770 0.521810 0.644910 0.931913
Cu2   Cu    Cu3+1 0.484230 0.478190 0.355090 0.931947
H1    H     H_    0.767512 0.647671 0.419392 0.140148
H2    H     H_    0.232467 0.352063 0.580303 0.140138
H3    H     H_    0.939850 0.237167 0.612733 0.159414
H4    H     H_    0.060112 0.762485 0.386843 0.159379
H5    H     H_    0.099623 0.252645 0.618875 0.143056
H6    H     H_    0.900337 0.746977 0.380650 0.143065
H7    H     H_    0.490298 0.864812 0.368453 0.184618
H8    H     H_    0.509985 0.135187 0.631536 0.184537
H9    H     H_    0.519296 0.951128 0.707414 0.151089
H10   H     H_    0.480752 0.048873 0.292575 0.151028
H11   H     H_    0.440296 0.417395 0.845696 0.158986
H12   H     H_    0.559705 0.582604 0.154304 0.158942
H13   H     H_    0.588602 0.622510 0.934442 0.191865
H14   H     H_    0.411398 0.377490 0.065558 0.191878
N1    N     N_2   0.460520 0.445420 0.137370 -0.286239
N2    N     N_2   0.539480 0.554580 0.862630 -0.286276
O1    O     O_R   0.508410 0.332340 0.577400 -0.586682
O2    O     O_R   0.491590 0.667660 0.422600 -0.586684
O3    O     O_R   0.481780 0.295500 0.332650 -0.573416
O4    O     O_R   0.518220 0.704500 0.667350 -0.573362
O5    O     O_R   0.383570 0.518390 0.622380 -0.576046
O6    O     O_R   0.616430 0.481610 0.377620 -0.576071
O7    O     O_R   0.356940 0.481550 0.377630 -0.579855
O8    O     O_R   0.643060 0.518450 0.622370 -0.579971
C27   C     C_3   0.770093 0.286469 0.568927 -0.412858
C28   C     C_3   0.763921 0.154528 0.440230 -0.355498
C29   C     C_3   0.746032 0.041730 0.490316 -0.848248
H15   H     H_    0.805223 0.033338 0.567390 0.245945
H16   H     H_    0.686194 0.057412 0.547086 0.275422
H17   H     H_    0.733813 0.949067 0.393194 0.237982
H18   H     H_    0.708302 0.153440 0.352001 0.218996
H19   H     H_    0.827069 0.138925 0.391625 0.226623
H20   H     H_    0.805867 0.280868 0.673249 0.198744
H21   H     H_    0.700777 0.307655 0.591196 0.211614
C30   C     C_3   0.229949 0.713753 0.431643 -0.412367
C31   C     C_3   0.235699 0.845576 0.560455 -0.355245
C32   C     C_3   0.253800 0.958578 0.510807 -0.848529
H22   H     H_    0.314213 0.943513 0.455413 0.275582
H23   H     H_    0.195008 0.966528 0.432655 0.246066
H24   H     H_    0.265196 0.051232 0.608020 0.237802
H25   H     H_    0.172314 0.860923 0.608452 0.226584
H26   H     H_    0.291074 0.846701 0.649108 0.218921
H27   H     H_    0.299404 0.692877 0.409890 0.211378
H28   H     H_    0.194382 0.719366 0.327191 0.198644

loop_
_geom_bond_atom_site_label_1
_geom_bond_atom_site_label_2
_ccdc_geom_bond_type
Cu1   O4    S    
C25   H3    S    
C4    C26   A    
C29   H15   S    
Cu2   O3    S    
C26   H4    S    
C11   O5    A    
C31   H26   S    
C4    H6    S    
C11   C16   S    
C12   O8    A    
Cu2   N1    S    
C12   O6    A    
C12   C15   S    
C32   H24   S    
C1    O1    A    
C31   C32   S    
Cu1   O1    S    
C13   C15   A    
C6    H9    S    
C7    C8    S    
C28   H19   S    
C31   H25   S    
Cu1   O8    S    
Cu2   O2    S    
C3    C24   A    
C2    C6    S    
C20   C26   A    
C14   H2    S    
C27   H21   S    
C1    C5    S    
C15   C17   A    
C9    C10   S    
C13   H1    S    
C19   C21   A    
C30   H27   S    
C22   C24   A    
C28   H18   S    
C29   H16   S    
C21   C23   A    
C19   C25   A    
Cu2   O7    S    
C14   C16   A    
C18   C30   S    
C9    N1    D    
C11   O7    A    
H14   N1    S    
C3    H5    S    
C10   N2    D    
C30   C31   S    
H13   N2    S    
C17   C27   S    
C3    C25   A    
C30   H28   S    
C13   C23   A    
C18   C20   A    
C16   C18   A    
C32   H22   S    
C7    H8    S    
C29   H17   S    
C14   C24   A    
Cu1   Cu2   S    
C5    C7    D    
C4    C23   A    
Cu2   O6    S    
C28   C29   S    
C17   C19   A    
C6    C8    D    
C2    O2    A    
C2    O4    A    
C21   C22   A    
C5    H10   S    
C27   H20   S    
Cu1   N2    S    
C9    H12   S    
C1    O3    A    
Cu1   O5    S    
C27   C28   S    
C20   C22   A    
C10   H11   S    
C32   H23   S    
C8    H7    S    
