data_mof_unit_25391.cif
_audit_creation_date              2012-12-10T18:49:54-0500
_audit_creation_method            fapswitch 2.2
_symmetry_space_group_name_H-M    P1
_symmetry_Int_Tables_number       1
_space_group_crystal_system       triclinic
_cell_length_a                    10.634734
_cell_length_b                    9.903412
_cell_length_c                    10.642553
_cell_angle_alpha                 88.966885
_cell_angle_beta                  91.186995
_cell_angle_gamma                 90.594162
_cell_volume                      1120.39658088

loop_
_atom_site_label
_atom_site_type_symbol
_atom_type_description
_atom_site_fract_x
_atom_site_fract_y
_atom_site_fract_z
_atom_type_partial_charge
C1    C     C_R   0.260229 0.499785 0.502097 0.863856
C2    C     C_3   0.614299 0.408155 0.931530 -0.406026
C3    C     C_R   0.064991 0.410688 0.584407 -0.204750
C4    C     C_R   0.063859 0.596554 0.430867 -0.198397
C5    C     C_R   0.935716 0.409513 0.582572 -0.200850
C6    C     C_R   0.935018 0.597314 0.430726 -0.213322
C7    C     C_R   0.872079 0.502175 0.504815 0.008151
C8    C     C_R   0.127761 0.501303 0.505393 -0.014840
C9    C     C_R   0.593481 0.071470 0.560036 -0.204190
C10   C     C_R   0.592113 0.928183 0.562149 -0.205885
C11   C     C_R   0.409006 0.927845 0.434224 0.407067
C12   C     C_R   0.403262 0.072594 0.443637 0.392775
C13   C     C_R   0.503671 0.500616 0.257803 0.824564
C14   C     C_R   0.739689 0.500580 0.501587 0.839387
C15   C     C_R   0.503879 0.499263 0.742214 0.807311
C16   C     C_3   0.526750 0.644892 0.068758 -0.417865
C17   C     C_3   0.380534 0.440997 0.070164 -0.384867
C18   C     C_3   0.528867 0.644481 0.926461 -0.389759
C19   C     C_3   0.378885 0.444434 0.926121 -0.417576
C20   C     C_3   0.616233 0.411263 0.076265 -0.397155
C21   C     C_3   0.506874 0.499911 0.121232 0.178888
C22   C     C_3   0.506620 0.498645 0.878673 0.200346
H1    H     H_    0.615804 0.689908 0.106710 0.167985
H2    H     H_    0.368006 0.334767 0.104109 0.189366
H3    H     H_    0.448181 0.708329 0.096276 0.195467
H4    H     H_    0.299791 0.498999 0.104516 0.150949
H5    H     H_    0.454413 0.713604 0.888995 0.182044
H6    H     H_    0.301282 0.510387 0.890541 0.159766
H7    H     H_    0.621236 0.684469 0.894138 0.168678
H8    H     H_    0.359938 0.340900 0.890774 0.170248
H9    H     H_    0.708032 0.452630 0.110959 0.155467
H10   H     H_    0.607090 0.306204 0.114164 0.180538
H11   H     H_    0.706464 0.444499 0.895638 0.150821
H12   H     H_    0.600435 0.302192 0.900508 0.177245
H13   H     H_    0.115694 0.342263 0.647102 0.125047
H14   H     H_    0.113487 0.668509 0.372118 0.188478
H15   H     H_    0.885533 0.338267 0.642182 0.131086
H16   H     H_    0.884606 0.669464 0.371302 0.143252
H17   H     H_    0.668778 0.125148 0.608170 0.161695
H18   H     H_    0.665896 0.874200 0.612552 0.166250
N1    N     N_R   0.499970 0.857200 0.499970 -0.120262
N2    N     N_R   0.499970 0.142800 0.499970 -0.120016
O1    O     O_R   0.316750 0.614620 0.499990 -0.568091
O2    O     O_R   0.316750 0.385380 0.499990 -0.576776
O3    O     O_R   0.499970 0.614670 0.314790 -0.602560
O4    O     O_R   0.499970 0.385330 0.314790 -0.597623
O5    O     O_R   0.683220 0.614710 0.500010 -0.627038
O6    O     O_R   0.683220 0.385290 0.500010 -0.626009
O7    O     O_R   0.500010 0.614660 0.685200 -0.629856
O8    O     O_R   0.500010 0.385340 0.685200 -0.632599
Zn1   Zn    Zn3+2 0.499980 0.653120 0.500000 0.970124
Zn2   Zn    Zn3+2 0.499980 0.346880 0.500000 0.965381
O9    O     O_3   0.318436 0.856059 0.366922 -0.598309
C23   C     C_3   0.318533 0.895913 0.238554 0.119592
H19   H     H_    0.414440 0.888899 0.200043 0.116238
H20   H     H_    0.286219 0.000629 0.222423 0.186347
C24   C     C_3   0.226578 0.806917 0.165534 -0.911289
H21   H     H_    0.128634 0.830371 0.191396 0.245179
H22   H     H_    0.236814 0.825317 0.062993 0.211087
H23   H     H_    0.244647 0.699201 0.188026 0.259074
O10   O     O_3   0.304504 0.144481 0.390041 -0.605476
C25   C     C_3   0.191454 0.112362 0.452461 0.110499
H24   H     H_    0.192074 0.160545 0.545631 0.142944
H25   H     H_    0.175804 0.002425 0.468541 0.159030
C26   C     C_3   0.080640 0.163754 0.373098 -0.820684
H26   H     H_    0.072420 0.105861 0.284854 0.235573
H27   H     H_    0.992245 0.150700 0.425927 0.213253
H28   H     H_    0.094056 0.272221 0.348489 0.271019

loop_
_geom_bond_atom_site_label_1
_geom_bond_atom_site_label_2
_ccdc_geom_bond_type
C2    C22   S    
O8    Zn2   S    
C11   C12   A    
C6    H16   S    
C6    C7    A    
C12   O10   S    
C5    H15   S    
C7    C14   S    
C1    C8    S    
C9    C10   A    
C23   H19   S    
C1    O2    A    
C25   H25   S    
C11   O9    S    
C3    H13   S    
C4    C8    A    
C26   H28   S    
O1    Zn1   S    
C2    H12   S    
C25   H24   S    
C4    H14   S    
C24   H21   S    
C13   C21   S    
C18   H7    S    
C18   C22   S    
O9    C23   S    
C23   C24   S    
C10   N1    A    
C13   O3    A    
C19   H6    S    
C19   H8    S    
O2    Zn2   S    
C9    N2    A    
C16   C21   S    
C4    C6    A    
C17   H4    S    
C2    H11   S    
C10   H18   S    
C17   C19   S    
N1    Zn1   S    
C11   N1    A    
C16   H1    S    
C15   O7    A    
C3    C8    A    
O10   C25   S    
C23   H20   S    
C24   H22   S    
C17   H2    S    
C26   H27   S    
O3    Zn1   S    
C12   N2    A    
O4    Zn2   S    
C9    H17   S    
C19   C22   S    
C20   C21   S    
C16   C18   S    
C26   H26   S    
C20   H10   S    
C15   O8    A    
C16   H3    S    
C5    C7    A    
C14   O6    A    
C13   O4    A    
C24   H23   S    
O5    Zn1   S    
C25   C26   S    
O7    Zn1   S    
O6    Zn2   S    
C14   O5    A    
C2    C20   S    
C1    O1    A    
C15   C22   S    
C17   C21   S    
C18   H5    S    
N2    Zn2   S    
C3    C5    A    
C20   H9    S    
