data_mof_unit_67602.cif
_audit_creation_date              2012-12-10T18:05:40-0500
_audit_creation_method            fapswitch 2.2
_symmetry_space_group_name_H-M    P1
_symmetry_Int_Tables_number       1
_space_group_crystal_system       triclinic
_cell_length_a                    10.954316
_cell_length_b                    10.98846
_cell_length_c                    9.591295
_cell_angle_alpha                 91.149194
_cell_angle_beta                  91.506908
_cell_angle_gamma                 92.519868
_cell_volume                      1152.73900487

loop_
_atom_site_label
_atom_site_type_symbol
_atom_type_description
_atom_site_fract_x
_atom_site_fract_y
_atom_site_fract_z
_atom_type_partial_charge
C1    C     C_R   0.505529 0.262599 0.498011 0.775480
C2    C     C_R   0.499687 0.737974 0.501723 0.774890
C3    C     C_R   0.871601 0.504966 0.504658 -0.071525
C4    C     C_R   0.127846 0.494356 0.497399 -0.070293
C5    C     C_R   0.944728 0.540537 0.622879 0.090833
C6    C     C_R   0.054198 0.459031 0.379792 0.091595
C7    C     C_R   0.498299 0.057202 0.369963 0.000204
C8    C     C_R   0.519757 0.944422 0.627848 -0.004871
C9    C     C_R   0.499549 0.931168 0.377558 -0.248613
C10   C     C_R   0.537334 0.070451 0.619250 -0.252694
C11   C     C_R   0.505118 0.872719 0.504289 -0.105188
C12   C     C_R   0.516065 0.129231 0.493508 -0.095892
C13   C     C_R   0.417805 0.428581 0.070175 0.031329
C14   C     C_R   0.580493 0.573145 0.929726 0.046129
C15   C     C_R   0.416661 0.429955 0.921720 -0.016668
C16   C     C_R   0.581390 0.572374 0.078261 -0.023466
C17   C     C_R   0.262078 0.496001 0.498360 0.798968
C18   C     C_R   0.737742 0.504265 0.502001 0.795230
C19   C     C_R   0.128299 0.399529 0.007576 -0.158090
C20   C     C_R   0.864177 0.626305 0.988898 -0.148210
C21   C     C_R   0.121650 0.461236 0.135524 0.278896
C22   C     C_R   0.875489 0.554982 0.868044 0.276896
C23   C     C_R   0.098840 0.395458 0.256549 0.021163
C24   C     C_R   0.899444 0.611602 0.740998 0.017830
C25   C     C_R   0.085704 0.267182 0.249507 -0.013911
C26   C     C_R   0.903509 0.740037 0.734137 -0.011985
C27   C     C_R   0.089239 0.206730 0.120183 -0.170906
C28   C     C_R   0.886198 0.810083 0.854909 -0.197555
C29   C     C_R   0.111313 0.272872 0.999711 -0.141981
C30   C     C_R   0.867882 0.753271 0.981999 -0.173036
C31   C     C_R   0.927955 0.466388 0.384117 -0.215102
C32   C     C_R   0.071286 0.532573 0.618637 -0.226552
Cu1   Cu    Cu3+1 0.500000 0.500020 0.640660 0.965211
Cu2   Cu    Cu3+1 0.500000 0.499980 0.359340 0.957950
H1    H     H_    0.115301 0.226182 0.899886 0.149826
H2    H     H_    0.854218 0.807588 0.074812 0.143770
H3    H     H_    0.349906 0.373487 0.862546 0.118102
H4    H     H_    0.644846 0.632589 0.137447 0.114513
H5    H     H_    0.144867 0.449860 0.913842 0.163032
H6    H     H_    0.848868 0.583147 0.087679 0.171208
H7    H     H_    0.074808 0.108717 0.112764 0.124484
H8    H     H_    0.888786 0.908502 0.851162 0.131199
H9    H     H_    0.873038 0.435720 0.293233 0.164975
H10   H     H_    0.126406 0.565405 0.708310 0.153068
H11   H     H_    0.488967 0.877958 0.282890 0.160755
H12   H     H_    0.558794 0.123423 0.713111 0.164244
H13   H     H_    0.354535 0.368371 0.122900 0.143445
H14   H     H_    0.641426 0.635074 0.876439 0.138781
N1    N     N_R   0.500030 0.500030 0.852070 -0.165026
N2    N     N_R   0.499970 0.499970 0.147930 -0.169777
O1    O     O_R   0.499990 0.319660 0.618740 -0.582871
O2    O     O_R   0.500010 0.680340 0.381260 -0.588466
O3    O     O_R   0.499990 0.319630 0.381170 -0.585263
O4    O     O_R   0.500010 0.680370 0.618830 -0.577399
O5    O     O_R   0.319650 0.500020 0.618780 -0.597174
O6    O     O_R   0.680350 0.499980 0.381220 -0.596430
O7    O     O_R   0.319640 0.500000 0.381210 -0.558113
O8    O     O_R   0.680360 0.500000 0.618790 -0.556388
Br1   Br    Br    0.142133 0.635121 0.143688 -0.643726
Br2   Br    Br    0.846232 0.381873 0.876580 -0.611203
C33   C     C_R   0.063452 0.198271 0.377697 0.090458
C34   C     C_R   0.162621 0.171832 0.465807 -0.158221
C35   C     C_R   0.142439 0.125426 0.598249 -0.158441
C36   C     C_R   0.023075 0.106663 0.643925 -0.077060
C37   C     C_R   0.923782 0.132553 0.556589 -0.059732
C38   C     C_R   0.943702 0.177280 0.423231 -0.139580
H15   H     H_    0.255204 0.190522 0.433267 0.124472
H16   H     H_    0.219246 0.105504 0.666074 0.120819
H17   H     H_    0.007559 0.071586 0.746759 0.111514
H18   H     H_    0.831424 0.117976 0.592209 0.137350
H19   H     H_    0.866219 0.199319 0.357443 0.117623
C39   C     C_R   0.928145 0.800508 0.600905 0.088884
C40   C     C_R   0.830865 0.831586 0.513169 -0.150088
C41   C     C_R   0.852976 0.875471 0.379889 -0.153990
C42   C     C_R   0.972942 0.888646 0.334019 -0.065421
C43   C     C_R   0.070467 0.857823 0.421171 -0.050916
C44   C     C_R   0.047989 0.813762 0.554089 -0.134728
H20   H     H_    0.738513 0.819183 0.547645 0.125964
H21   H     H_    0.777321 0.899271 0.312413 0.122311
H22   H     H_    0.990593 0.923492 0.231523 0.116920
H23   H     H_    0.163304 0.867511 0.385639 0.135826
H24   H     H_    0.123020 0.786400 0.619299 0.108913
C45   C     C_R   0.469867 0.103871 0.230712 0.119236
C46   C     C_R   0.355962 0.070361 0.167396 -0.153797
C47   C     C_R   0.334750 0.090345 0.026232 -0.111760
C48   C     C_R   0.424929 0.147292 0.948424 -0.149553
C49   C     C_R   0.539346 0.180133 0.009815 -0.140110
C50   C     C_R   0.562349 0.157598 0.150774 -0.092536
H25   H     H_    0.285782 0.023238 0.225935 0.126301
H26   H     H_    0.249206 0.059343 0.975926 0.122655
H27   H     H_    0.404482 0.166023 0.840624 0.130229
H28   H     H_    0.609930 0.222738 0.948198 0.179142
H29   H     H_    0.652330 0.179162 0.196598 0.124618
C51   C     C_R   0.489813 0.895358 0.764325 0.145585
C52   C     C_R   0.370355 0.849620 0.783782 -0.122429
C53   C     C_R   0.337515 0.801137 0.910612 -0.118308
C54   C     C_R   0.423145 0.801437 0.020703 -0.086711
C55   C     C_R   0.541519 0.852326 0.004043 -0.160294
C56   C     C_R   0.575055 0.899091 0.875613 -0.140166
H30   H     H_    0.303634 0.851031 0.699311 0.100909
H31   H     H_    0.245573 0.764202 0.922582 0.175809
H32   H     H_    0.397456 0.761027 0.117948 0.176477
H33   H     H_    0.608204 0.853485 0.089264 0.112995
H34   H     H_    0.666265 0.938258 0.862910 0.123198

loop_
_geom_bond_atom_site_label_1
_geom_bond_atom_site_label_2
_ccdc_geom_bond_type
Cu1   O5    S    
C7    C45   S    
C49   C50   A    
Cu2   O6    S    
Cu1   O8    S    
C27   C29   A    
C26   C39   S    
C40   C41   A    
C52   C53   A    
C54   C55   A    
C20   C30   A    
C47   C48   A    
C9    H11   S    
C39   C44   A    
C31   H9    S    
C34   H15   S    
C19   H5    S    
C19   C21   A    
C24   C26   A    
C21   Br1   S    
C48   H27   S    
C22   Br2   S    
C20   H6    S    
C14   N1    A    
Cu1   N1    S    
C37   H18   S    
C3    C18   S    
C28   H8    S    
C1    O3    A    
C15   H3    S    
C50   H29   S    
C33   C38   A    
C18   O8    A    
C38   H19   S    
C10   H12   S    
Cu2   O7    S    
C40   H20   S    
C42   H22   S    
C17   O5    A    
C54   H32   S    
C18   O6    A    
C5    C32   A    
C15   N1    A    
C45   C50   A    
C49   H28   S    
C51   C52   A    
C1    C12   S    
C2    C11   S    
C10   C12   A    
C7    C12   A    
Cu2   N2    S    
C41   C42   A    
C8    C51   S    
C46   C47   A    
C4    C6    A    
C2    O4    A    
C13   H13   S    
C48   C49   A    
C14   H14   S    
C35   C36   A    
C42   C43   A    
C34   C35   A    
C9    C11   A    
C27   H7    S    
C45   C46   A    
C53   C54   A    
Cu1   Cu2   S    
C32   H10   S    
C25   C33   S    
C36   H17   S    
C43   C44   A    
C3    C31   A    
C1    O1    A    
C4    C32   A    
C2    O2    A    
C4    C17   S    
C20   C22   A    
C55   C56   A    
C41   H21   S    
C13   C15   A    
C14   C16   A    
Cu1   O1    S    
C46   H25   S    
C19   C29   A    
Cu1   O4    S    
C7    C9    A    
C35   H16   S    
C56   H34   S    
C52   H30   S    
Cu2   O2    S    
C16   N2    A    
C39   C40   A    
C3    C5    A    
C43   H23   S    
C47   H26   S    
C25   C27   A    
C29   H1    S    
C26   C28   A    
C30   H2    S    
C51   C56   A    
C36   C37   A    
C21   C23   A    
C5    C24   S    
C44   H24   S    
C8    C11   A    
C6    C23   S    
C28   C30   A    
C6    C31   A    
C22   C24   A    
C23   C25   A    
C33   C34   A    
C13   N2    A    
Cu2   O3    S    
C8    C10   A    
C37   C38   A    
C17   O7    A    
C53   H31   S    
C55   H33   S    
C16   H4    S    
