data_mof_unit_56222.cif
_audit_creation_date              2012-12-10T17:03:46-0500
_audit_creation_method            fapswitch 2.2
_symmetry_space_group_name_H-M    P1
_symmetry_Int_Tables_number       1
_space_group_crystal_system       triclinic
_cell_length_a                    10.048355
_cell_length_b                    10.747248
_cell_length_c                    13.084547
_cell_angle_alpha                 90.075685
_cell_angle_beta                  71.395107
_cell_angle_gamma                 90.022757
_cell_volume                      1339.18414475

loop_
_atom_site_label
_atom_site_type_symbol
_atom_type_description
_atom_site_fract_x
_atom_site_fract_y
_atom_site_fract_z
_atom_type_partial_charge
C1    C     C_R   0.499300 0.737250 0.502147 0.939869
C2    C     C_R   0.380889 0.441729 0.814862 -0.115429
C3    C     C_2   0.612210 0.066976 0.500455 -0.160601
C4    C     C_R   0.424246 0.483600 0.702228 0.866873
C5    C     C_2   0.505607 0.131261 0.486663 -0.324775
C6    C     C_2   0.614620 0.933066 0.493981 -0.161518
C7    C     C_2   0.495680 0.868869 0.511520 -0.333588
C8    C     C_2   0.104573 0.441880 0.428350 -0.133691
C9    C     C_2   0.953183 0.436087 0.432101 -0.137666
C10   C     C_R   0.501138 0.262755 0.497391 0.917591
C11   C     C_R   0.577102 0.498193 0.295767 0.896857
C12   C     C_R   0.441707 0.408198 0.977764 0.106522
C13   C     C_R   0.797472 0.426776 0.008846 -0.312365
C14   C     C_R   0.621846 0.476463 0.179425 -0.168772
C15   C     C_R   0.237973 0.441417 0.875764 -0.213939
C16   C     C_R   0.197117 0.414594 0.985242 -0.154332
C17   C     C_R   0.297242 0.403197 0.037249 -0.195094
C18   C     C_3   0.910915 0.616180 0.138044 0.089407
C19   C     C_3   0.008220 0.651904 0.201648 -0.796081
C20   C     C_R   0.481591 0.406033 0.864607 0.087533
C21   C     C_R   0.548241 0.419534 0.026131 0.079958
C22   C     C_R   0.690939 0.404612 0.963406 0.120776
C23   C     C_R   0.724804 0.370897 0.855308 -0.236445
C24   C     C_R   0.620861 0.370554 0.806304 -0.198767
C25   C     C_R   0.516634 0.456598 0.132945 -0.342467
C26   C     C_R   0.763838 0.466110 0.116175 0.468625
H1    H     H_    0.420999 0.088572 0.464442 0.150508
H2    H     H_    0.409243 0.474667 0.180495 0.180778
H3    H     H_    0.157984 0.461250 0.838863 0.152629
H4    H     H_    0.259496 0.387234 0.123206 0.129467
H5    H     H_    0.087719 0.407194 0.031180 0.197013
H6    H     H_    0.651319 0.341721 0.722897 0.182875
H7    H     H_    0.700419 0.112639 0.515918 0.171672
H8    H     H_    0.819036 0.680607 0.162554 0.132480
H9    H     H_    0.968378 0.628687 0.050570 0.139013
H10   H     H_    0.099783 0.588104 0.181932 0.249888
H11   H     H_    0.046511 0.748550 0.181303 0.202715
H12   H     H_    0.715919 0.887248 0.476011 0.171847
H13   H     H_    0.950727 0.646776 0.289420 0.263948
H14   H     H_    0.392640 0.911681 0.535820 0.150403
H15   H     H_    0.181002 0.393302 0.362813 0.157770
H16   H     H_    0.075620 0.539306 0.564003 0.158179
H17   H     H_    0.928196 0.377392 0.373208 0.187533
H18   H     H_    0.876600 0.559185 0.551056 0.164361
H19   H     H_    0.832351 0.350796 0.807388 0.146858
H20   H     H_    0.906290 0.416979 0.960069 0.136068
N1    N     N_2   0.148270 0.498670 0.498870 -0.190079
N2    N     N_2   0.852610 0.498640 0.498840 -0.203079
O1    O     O_R   0.386950 0.680940 0.500020 -0.610486
O2    O     O_R   0.613110 0.680900 0.499980 -0.612725
O3    O     O_R   0.330780 0.500000 0.653640 -0.614712
O4    O     O_R   0.556930 0.499960 0.653610 -0.619406
O5    O     O_R   0.386890 0.319100 0.500020 -0.614308
O6    O     O_R   0.613050 0.319060 0.499980 -0.622664
O7    O     O_R   0.443070 0.500040 0.346390 -0.623884
O8    O     O_R   0.669220 0.500000 0.346360 -0.558679
O9    O     O_3   0.869409 0.490791 0.159781 -0.620114
Zn1   Zn    Zn3+2 0.349000 0.500030 0.500020 0.933771
Zn2   Zn    Zn3+2 0.651000 0.499970 0.499980 0.941877

loop_
_geom_bond_atom_site_label_1
_geom_bond_atom_site_label_2
_ccdc_geom_bond_type
C12   C17   A    
C2    C4    S    
C23   C24   A    
C6    H12   S    
C6    C7    D    
C2    C15   A    
O4    Zn2   S    
O1    Zn1   S    
C18   H9    S    
C18   O9    S    
O8    Zn2   S    
O5    Zn1   S    
C7    H14   S    
C3    C6    S    
C12   C20   A    
C24   H6    S    
C8    N1    D    
C5    C10   S    
O3    Zn1   S    
C1    C7    S    
C21   C22   A    
C14   C26   A    
N1    Zn1   S    
C17   H4    S    
C18   H8    S    
C19   H13   S    
C4    O4    A    
C23   H19   S    
O2    Zn2   S    
H16   N1    S    
C11   C14   S    
C13   C22   A    
C15   H3    S    
O6    Zn2   S    
C14   C25   A    
C13   H20   S    
C10   O6    A    
C26   O9    S    
C13   C26   A    
C9    H17   S    
C3    H7    S    
C4    O3    A    
C2    C20   A    
C15   C16   A    
C16   H5    S    
C20   C24   A    
C9    N2    D    
C11   O7    A    
C8    H15   S    
N2    Zn2   S    
C18   C19   S    
C1    O2    A    
O7    Zn1   S    
C10   O5    A    
C21   C25   A    
C22   C23   A    
C16   C17   A    
C19   H11   S    
C3    C5    D    
C19   H10   S    
C5    H1    S    
C1    O1    A    
C12   C21   A    
C11   O8    A    
H18   N2    S    
C8    C9    S    
C25   H2    S    
