data_mof_unit_16592.cif
_audit_creation_date              2013-03-05T16:46:26-0500
_audit_creation_method            fapswitch 2.2
_symmetry_space_group_name_H-M    P1
_symmetry_Int_Tables_number       1
_space_group_crystal_system       triclinic
_cell_length_a                    10.660025
_cell_length_b                    8.929468
_cell_length_c                    8.11262
_cell_angle_alpha                 89.961202
_cell_angle_beta                  88.209121
_cell_angle_gamma                 90.052906
_cell_volume                      771.849211775

loop_
_atom_site_label
_atom_site_type_symbol
_atom_site_description
_atom_site_fract_x
_atom_site_fract_y
_atom_site_fract_z
_atom_type_partial_charge
O1    O     O_R   0.500000 0.285350 0.636850 -0.621287
O2    O     O_R   0.500000 0.714650 0.636850 -0.614190
O3    O     O_R   0.500000 0.285360 0.363100 -0.616097
O4    O     O_R   0.500000 0.714640 0.363100 -0.606333
C1    C     C_R   0.500305 0.218018 0.499993 0.913732
C2    C     C_R   0.500123 0.781978 0.499933 0.938661
O5    O     O_R   0.319080 0.500000 0.636840 -0.582621
O6    O     O_R   0.680920 0.500000 0.636840 -0.614945
O7    O     O_R   0.319090 0.500000 0.363090 -0.640473
O8    O     O_R   0.680910 0.500000 0.363090 -0.628194
C3    C     C_R   0.262545 0.481977 0.502538 0.844818
C4    C     C_R   0.738381 0.503212 0.496660 0.786628
Zn1   Zn    Zn3+2 0.500000 0.500000 0.682780 0.994818
Zn2   Zn    Zn3+2 0.500000 0.500000 0.317220 0.976262
C5    C     C_2   0.930999 0.389551 0.409014 0.145684
C6    C     C_2   0.066081 0.399122 0.380601 0.077228
C7    C     C_2   0.872864 0.507913 0.482475 0.426149
C8    C     C_2   0.135174 0.426564 0.514138 0.382473
C9    C     C_1   0.500452 0.065212 0.499996 -0.199458
C10   C     C_1   0.500400 0.934806 0.499902 -0.203767
N1    N     N_1   0.500000 0.500000 0.073640 -0.029828
N2    N     N_1   0.500000 0.500000 0.926360 -0.029294
C11   C     C_3   0.864126 0.247820 0.358085 -0.989654
H1    H     H_    0.932555 0.161324 0.315388 0.256728
H2    H     H_    0.809270 0.200820 0.464705 0.232122
H3    H     H_    0.800672 0.271363 0.255399 0.272236
C12   C     C_3   0.116036 0.394926 0.204179 -0.874766
H4    H     H_    0.150049 0.507368 0.165103 0.274018
H5    H     H_    0.192410 0.310897 0.190895 0.239617
H6    H     H_    0.040968 0.362852 0.119176 0.255955
O9    O     O_3   0.942937 0.634862 0.524494 -0.611832
C13   C     C_3   0.868542 0.761209 0.564646 -0.294322
H7    H     H_    0.813450 0.742830 0.681464 0.185076
H8    H     H_    0.806353 0.791319 0.462113 0.142585
H9    H     H_    0.931634 0.858020 0.584283 0.189183
O10   O     O_3   0.082237 0.408359 0.671750 -0.575299
C14   C     C_3   0.100466 0.258580 0.721003 -0.325850
H10   H     H_    0.202085 0.232214 0.729708 0.167491
H11   H     H_    0.055043 0.178510 0.636225 0.158383
H12   H     H_    0.056073 0.242595 0.845140 0.198363

loop_
_geom_bond_atom_site_label_1
_geom_bond_atom_site_label_2
_geom_bond_distance
_ccdc_geom_bond_type
C4    C7    1.435185 S    
O7    Zn2   1.952629 S    
C3    C8    1.444972 S    
O6    Zn1   1.952822 S    
C1    C9    1.364479 S    
C12   H5    1.110495 S    
C2    C10   1.364670 S    
O9    C13   1.412048 S    
O6    C4    1.275025 A    
C11   H1    1.110964 S    
C13   H7    1.111218 S    
C6    C12   1.511920 S    
C5    C11   1.515928 S    
C14   H11   1.113349 S    
N1    N2    1.194826 T    
C12   H6    1.110080 S    
O5    C3    1.271736 A    
O7    C3    1.275147 A    
O2    C2    1.262627 A    
O3    Zn2   1.952181 S    
O8    C4    1.261688 A    
O1    C1    1.262884 A    
Zn2   N1    1.976072 S    
C6    C8    1.351310 D    
O10   C14   1.410952 S    
C14   H10   1.113151 S    
Zn1   N2    1.976072 S    
C14   H12   1.108340 S    
C11   H2    1.110714 S    
O4    Zn2   1.952675 S    
C7    O9    1.405022 S    
O1    Zn1   1.952841 S    
C5    C6    1.453614 S    
C13   H9    1.109439 S    
O5    Zn1   1.975695 S    
O4    C2    1.262859 A    
O8    Zn2   1.975466 S    
C11   H3    1.109496 S    
C12   H4    1.109857 S    
C5    C7    1.354715 D    
O2    Zn1   1.952344 S    
C8    O10   1.390777 S    
C9    C10   1.164462 T    
O3    C1    1.262644 A    
C13   H8    1.112736 S    
