data_mof_unit_22386.cif
_audit_creation_date              2012-12-10T17:07:10-0500
_audit_creation_method            fapswitch 2.2
_symmetry_space_group_name_H-M    P1
_symmetry_Int_Tables_number       1
_space_group_crystal_system       triclinic
_cell_length_a                    18.238829
_cell_length_b                    18.230868
_cell_length_c                    18.251948
_cell_angle_alpha                 119.661209
_cell_angle_beta                  119.611883
_cell_angle_gamma                 60.334462
_cell_volume                      4325.73796005

loop_
_atom_site_label
_atom_site_type_symbol
_atom_type_description
_atom_site_fract_x
_atom_site_fract_y
_atom_site_fract_z
_atom_type_partial_charge
C1    C     C_R   0.139815 0.860813 0.641006 0.865076
C2    C     C_R   0.770818 0.175726 0.853981 -0.003217
C3    C     C_R   0.740641 0.212593 0.786974 0.013682
C4    C     C_R   0.761224 0.154060 0.708295 -0.018437
C5    C     C_R   0.685295 0.302573 0.790674 -0.092037
C6    C     C_R   0.663333 0.331219 0.719428 -0.211035
C7    C     C_R   0.715514 0.278146 0.661223 -0.003477
C8    C     C_R   0.773396 0.190603 0.664031 -0.068886
C9    C     C_R   0.590166 0.409224 0.702190 0.460567
C10   C     C_R   0.585758 0.446131 0.648339 0.472664
C11   C     C_R   0.641939 0.397206 0.596748 -0.451300
C12   C     C_R   0.863484 0.140804 0.360203 0.836194
C13   C     C_R   0.700259 0.310267 0.596100 0.473726
C14   C     C_R   0.822358 0.342318 0.430380 0.449941
C15   C     C_R   0.773231 0.429643 0.474017 -0.158865
C16   C     C_R   0.685558 0.469881 0.425901 -0.366835
C17   C     C_R   0.648628 0.427884 0.334095 0.480442
C18   C     C_R   0.700424 0.342632 0.290272 -0.012342
C19   C     C_R   0.778578 0.293910 0.342754 -0.036677
C20   C     C_R   0.808991 0.199010 0.304854 -0.053980
C21   C     C_R   0.773056 0.158121 0.213072 -0.220120
C22   C     C_R   0.708092 0.208504 0.157831 -0.059332
C23   C     C_R   0.139914 0.139957 0.640518 0.854989
C24   C     C_R   0.676410 0.303000 0.195917 -0.110534
C25   C     C_R   0.916293 0.688242 0.382876 -0.196844
C26   C     C_R   0.945264 0.605815 0.391691 0.387462
C27   C     C_R   0.902631 0.542373 0.324013 0.347370
C28   C     C_R   0.825198 0.567062 0.253783 -0.186645
C29   C     C_R   0.786788 0.657321 0.253807 -0.081580
C30   C     C_R   0.837410 0.715504 0.315021 0.007367
C31   C     C_R   0.809076 0.798689 0.305153 -0.053083
C32   C     C_R   0.730114 0.825879 0.239433 -0.219732
C33   C     C_R   0.673620 0.775220 0.185612 -0.062511
C34   C     C_R   0.861601 0.858325 0.360405 0.812649
C35   C     C_R   0.701086 0.691204 0.193697 -0.126798
C36   C     C_R   0.126686 0.926560 0.816479 -0.213282
C37   C     C_R   0.119488 0.960747 0.900556 0.364803
C38   C     C_R   0.174539 0.909570 0.958572 0.273060
C39   C     C_R   0.240860 0.826954 0.933051 0.416534
C40   C     C_R   0.244684 0.790190 0.844786 -0.024470
C41   C     C_R   0.187761 0.841713 0.786836 -0.153459
C42   C     C_R   0.195699 0.808895 0.701527 -0.050199
C43   C     C_R   0.259575 0.726707 0.673820 0.471875
C44   C     C_R   0.313506 0.675025 0.729603 -0.311872
C45   C     C_R   0.139830 0.861099 0.359930 0.882140
C46   C     C_R   0.305273 0.704505 0.812595 -0.073437
C47   C     C_R   0.252625 0.934014 0.356121 -0.034833
C48   C     C_R   0.320432 0.959451 0.368198 0.405464
C49   C     C_R   0.386670 0.896683 0.327887 -0.115403
C50   C     C_R   0.377403 0.813714 0.267691 -0.245856
C51   C     C_R   0.311693 0.785693 0.256492 -0.004547
C52   C     C_R   0.252297 0.843776 0.306065 -0.047271
C53   C     C_R   0.194709 0.809318 0.302403 -0.158717
C54   C     C_R   0.188954 0.723502 0.242925 -0.144279
C55   C     C_R   0.243714 0.669455 0.189075 0.392339
C56   C     C_R   0.850439 0.139024 0.629970 0.898616
C57   C     C_R   0.304221 0.700586 0.196330 -0.099534
C58   C     C_R   0.141339 0.252969 0.573001 -0.168281
C59   C     C_R   0.143793 0.305327 0.538503 0.498283
C60   C     C_R   0.199477 0.357139 0.592298 -0.115841
C61   C     C_R   0.252321 0.357164 0.679331 -0.227322
C62   C     C_R   0.250460 0.305080 0.715329 0.050818
C63   C     C_R   0.195141 0.251334 0.661110 0.063733
C64   C     C_R   0.196076 0.196167 0.695602 -0.183812
C65   C     C_R   0.249283 0.196239 0.783941 -0.103536
C66   C     C_R   0.302326 0.251240 0.838507 0.407845
C67   C     C_R   0.770606 0.062425 0.679571 -0.009349
C68   C     C_R   0.303629 0.304606 0.803663 -0.160193
C69   C     C_R   0.639853 0.640274 0.139582 0.881643
C70   C     C_R   0.360089 0.360209 0.859858 0.774596
C71   C     C_R   0.632674 0.359842 0.139783 0.941121
C72   C     C_R   0.360259 0.641965 0.861872 0.942385
C73   C     C_R   0.360162 0.641434 0.139951 0.889106
C74   C     C_R   0.640067 0.359592 0.858786 0.857024
C75   C     C_R   0.786540 0.028216 0.741888 -0.178160
C76   C     C_R   0.791989 0.083351 0.829629 -0.167118
H1    H     H_    0.633651 0.423218 0.550092 0.162089
H2    H     H_    0.645491 0.534228 0.459877 0.203585
H3    H     H_    0.710235 0.890138 0.233729 0.194644
H4    H     H_    0.956233 0.730963 0.431723 0.205045
H5    H     H_    0.084770 0.969271 0.775630 0.189463
H6    H     H_    0.361131 0.610060 0.707298 0.208485
H7    H     H_    0.796325 0.958449 0.723293 0.201589
H8    H     H_    0.424639 0.770163 0.231978 0.209292
H9    H     H_    0.097392 0.213523 0.529955 0.172591
H10   H     H_    0.202189 0.397525 0.566353 0.174085
H11   H     H_    0.295049 0.397952 0.717544 0.149956
H12   H     H_    0.812903 0.053706 0.878612 0.197700
H13   H     H_    0.793864 0.085772 0.184044 0.208308
O1    O     O_3   0.000000 0.000000 0.500000 -0.528584
O2    O     O_R   0.055100 0.176520 0.615800 -0.632061
O3    O     O_R   0.884180 0.884200 0.444920 -0.641371
O4    O     O_R   0.176510 0.884190 0.615800 -0.583975
O5    O     O_R   0.884210 0.055080 0.323480 -0.646392
O6    O     O_3   0.499970 0.500030 0.999970 -0.529850
O7    O     O_R   0.615800 0.615830 0.055050 -0.606165
O8    O     O_R   0.444880 0.323510 0.884180 -0.616712
O9    O     O_R   0.615760 0.444950 0.176490 -0.577047
O10   O     O_R   0.323460 0.615830 0.884170 -0.618298
O11   O     O_R   0.444880 0.615840 0.176480 -0.655854
O12   O     O_R   0.055060 0.884200 0.615800 -0.653756
O13   O     O_R   0.615800 0.444940 0.884180 -0.569623
O14   O     O_R   0.323440 0.615840 0.055040 -0.576031
O15   O     O_R   0.615780 0.323500 0.884180 -0.660867
O16   O     O_R   0.615760 0.323500 0.055050 -0.616814
O17   O     O_R   0.444910 0.615830 0.884180 -0.599063
O18   O     O_R   0.615780 0.615830 0.176490 -0.625238
O19   O     O_R   0.323430 0.444950 0.884170 -0.631080
O20   O     O_R   0.884210 0.176520 0.444920 -0.573035
O21   O     O_R   0.176540 0.055080 0.615800 -0.561590
O22   O     O_R   0.884190 0.884200 0.323480 -0.619445
O23   O     O_R   0.176540 0.884190 0.444930 -0.617875
O24   O     O_R   0.884180 0.055090 0.615790 -0.669915
O25   O     O_R   0.055100 0.884190 0.323490 -0.604944
O26   O     O_R   0.884190 0.176530 0.615790 -0.575028
Zn1   Zn    Zn3+2 0.956630 0.130130 0.543370 1.061693
Zn2   Zn    Zn3+2 0.130140 0.956620 0.543380 1.083423
Zn3   Zn    Zn3+2 0.956630 0.956620 0.369870 1.046129
Zn4   Zn    Zn3+2 0.956610 0.956630 0.543370 1.018382
Zn5   Zn    Zn3+2 0.543340 0.369890 0.956600 1.050602
Zn6   Zn    Zn3+2 0.543340 0.543410 0.130100 1.070542
Zn7   Zn    Zn3+2 0.369830 0.543410 0.956590 1.050688
Zn8   Zn    Zn3+2 0.543370 0.543400 0.956600 1.097942
O27   O     O_3   0.913985 0.306914 0.466698 -0.748513
H14   H     H_    0.938554 0.356270 0.509848 0.351865
C77   C     C_2   0.808883 0.477328 0.570894 0.934725
O28   O     O_2   0.865855 0.435322 0.621960 -0.590323
O29   O     O_R   0.774857 0.570699 0.604441 -0.778920
H15   H     H_    0.803531 0.595451 0.671437 0.361318
O30   O     O_3   0.559493 0.464135 0.288757 -0.742389
H16   H     H_    0.533085 0.523118 0.329037 0.341019
C78   C     C_2   0.670457 0.158496 0.062400 1.005744
O31   O     O_2   0.589533 0.179890 0.024645 -0.579469
O32   O     O_R   0.727581 0.084032 0.016982 -0.767924
H17   H     H_    0.694204 0.055046 0.952586 0.351736
O33   O     O_3   0.017356 0.588827 0.465675 -0.741878
H18   H     H_    0.013769 0.544332 0.478847 0.351510
O34   O     O_3   0.938086 0.454446 0.321100 -0.709605
H19   H     H_    0.003415 0.439005 0.352527 0.367720
C79   C     C_2   0.796424 0.493216 0.174077 0.963346
O35   O     O_2   0.781934 0.439698 0.182525 -0.540650
O36   O     O_R   0.787941 0.482530 0.089206 -0.784872
H20   H     H_    0.807227 0.526497 0.090115 0.315997
C80   C     C_2   0.750626 0.005425 0.583670 0.991729
O37   O     O_2   0.708963 0.039640 0.525111 -0.617355
O38   O     O_R   0.777505 0.912572 0.560181 -0.783069
H21   H     H_    0.758877 0.881382 0.493114 0.354983
C81   C     C_2   0.585777 0.814143 0.123458 0.950260
O39   O     O_2   0.519842 0.796999 0.102993 -0.591797
O40   O     O_R   0.578038 0.873341 0.090406 -0.781084
H22   H     H_    0.515319 0.896130 0.049708 0.363078
O41   O     O_3   0.266205 0.697230 0.590726 -0.728006
H23   H     H_    0.314305 0.638393 0.581682 0.363558
O42   O     O_3   0.059918 0.045811 0.924380 -0.740014
H24   H     H_    0.080435 0.073325 0.990197 0.361360
O43   O     O_3   0.164963 0.937819 0.039895 -0.761111
H25   H     H_    0.101667 0.974097 0.035350 0.361872
O44   O     O_3   0.303427 0.782438 0.993892 -0.748869
H26   H     H_    0.297389 0.818852 0.053889 0.387001
C82   C     C_2   0.124448 0.690710 0.235556 0.914882
O45   O     O_2   0.124494 0.689997 0.302250 -0.624875
O46   O     O_R   0.063936 0.660475 0.151965 -0.749977
H27   H     H_    0.023511 0.640004 0.155406 0.353075
C83   C     C_2   0.177858 0.007160 0.387643 0.929138
O47   O     O_2   0.192795 0.053098 0.466401 -0.612169
O48   O     O_R   0.091165 0.025423 0.326830 -0.790845
H28   H     H_    0.046407 0.078215 0.356395 0.318104
O49   O     O_3   0.317116 0.047545 0.416130 -0.698671
H29   H     H_    0.341350 0.064717 0.391093 0.359250
C84   C     C_2   0.467292 0.914831 0.348835 0.938415
O50   O     O_2   0.495257 0.968469 0.420513 -0.579541
O51   O     O_R   0.513969 0.867435 0.288177 -0.784956
H30   H     H_    0.568568 0.884368 0.310915 0.347425
O52   O     O_3   0.243526 0.583795 0.131327 -0.726475
H31   H     H_    0.220439 0.559456 0.150393 0.359532
C85   C     C_2   0.246318 0.143120 0.822865 0.980595
O53   O     O_2   0.228296 0.180611 0.891860 -0.554903
O54   O     O_R   0.266127 0.050497 0.782248 -0.773385
H32   H     H_    0.261517 0.022331 0.815125 0.336942
O55   O     O_3   0.093192 0.306654 0.452423 -0.740828
H33   H     H_    0.059454 0.264578 0.421971 0.363395
O56   O     O_3   0.352421 0.250102 0.925200 -0.683720
H34   H     H_    0.373834 0.301994 0.962251 0.346728
C86   C     C_2   0.796933 0.227464 0.950461 0.945342
O57   O     O_2   0.791572 0.209270 0.003415 -0.585093
O58   O     O_R   0.833477 0.293189 0.981422 -0.762154
H35   H     H_    0.859632 0.315123 0.048910 0.388795
O59   O     O_3   0.515819 0.444787 0.726665 -0.727625
H36   H     H_    0.505470 0.394636 0.723525 0.295538
O60   O     O_3   0.519635 0.526565 0.640862 -0.718275
H37   H     H_    0.524454 0.543280 0.599690 0.338984
O61   O     O_3   0.734215 0.253689 0.526506 -0.734231
H38   H     H_    0.716054 0.286541 0.486970 0.334519

loop_
_geom_bond_atom_site_label_1
_geom_bond_atom_site_label_2
_ccdc_geom_bond_type
O9    Zn6   S    
C66   C68   A    
C77   O28   D    
C73   O11   A    
C25   H4    S    
C11   C13   A    
C41   C42   A    
C19   C20   A    
C28   C79   S    
C38   O43   S    
C4    C8    A    
C69   O7    A    
O29   H15   S    
C8    C56   S    
C6    C9    A    
O54   H32   S    
C69   O18   A    
C45   O23   A    
C50   H8    S    
C7    C8    A    
C21   H13   S    
C53   C54   A    
O2    Zn1   S    
C40   C46   A    
C28   C29   A    
C26   C27   A    
C37   C38   A    
C13   O61   S    
O22   Zn3   S    
C18   C24   A    
O1    Zn3   S    
C83   O47   D    
O3    Zn4   S    
C79   O36   S    
O11   Zn6   S    
C44   H6    S    
C5    C6    A    
C84   O50   D    
O14   Zn7   S    
C15   C16   A    
C58   C63   A    
C86   O57   D    
C18   C19   A    
C57   C73   S    
C5    C74   S    
O52   H31   S    
C61   H11   S    
O20   Zn1   S    
O24   Zn4   S    
O49   H29   S    
C45   O25   A    
C31   C32   A    
C16   C17   A    
C15   C77   S    
O17   Zn8   S    
O55   H33   S    
C56   O24   A    
O16   Zn5   S    
C85   O53   D    
C51   C57   A    
O1    Zn1   S    
C11   H1    S    
C9    C10   A    
C76   H12   S    
C46   C72   S    
C70   O8    A    
C74   O13   A    
O6    Zn6   S    
C85   O54   S    
C66   O56   S    
C45   C53   S    
C59   C60   A    
C21   C22   A    
C34   O22   A    
C12   O5    A    
C36   C41   A    
O4    Zn2   S    
C67   C80   S    
C14   C19   A    
O21   Zn2   S    
C12   O20   A    
C44   C46   A    
C17   C18   A    
C38   C39   A    
O1    Zn4   S    
C71   O9    A    
C27   O34   S    
C14   O27   S    
C51   C52   A    
O12   Zn4   S    
O1    Zn2   S    
C23   C64   S    
C79   O35   D    
C80   O38   S    
O34   H19   S    
O19   Zn7   S    
C39   C40   A    
C60   H10   S    
C78   O31   D    
C58   C59   A    
C3    C4    A    
C63   C64   A    
O59   H36   S    
O43   H25   S    
C47   C52   A    
C75   C76   A    
C55   O52   S    
C29   C30   A    
C33   C81   S    
C47   C48   A    
C48   O49   S    
C7    C13   A    
C36   H5    S    
C49   C84   S    
C12   C20   S    
C62   C63   A    
C59   O55   S    
C50   C51   A    
C31   C34   S    
C65   C85   S    
C2    C86   S    
C81   O39   D    
O42   H24   S    
O25   Zn3   S    
C10   O60   S    
O10   Zn7   S    
C47   C83   S    
O6    Zn7   S    
C1    O4    A    
C40   C41   A    
C72   O17   A    
C49   C50   A    
C55   C57   A    
C43   C44   A    
O44   H26   S    
C23   O2    A    
O60   H37   S    
C42   C43   A    
O18   Zn6   S    
O13   Zn8   S    
C58   H9    S    
C1    O12   A    
C2    C76   A    
C52   C53   A    
C16   H2    S    
C74   O15   A    
O38   H21   S    
O6    Zn8   S    
C25   C30   A    
C23   O21   A    
C54   C55   A    
C36   C37   A    
C77   O29   S    
O7    Zn8   S    
C22   C78   S    
C17   O30   S    
O36   H20   S    
C37   O42   S    
C14   C15   A    
C81   O40   S    
O33   H18   S    
C3    C5    A    
C4    C67   A    
C6    C7    A    
O6    Zn5   S    
O46   H27   S    
C29   C35   A    
O32   H17   S    
C62   C68   A    
O23   Zn2   S    
C80   O37   D    
O61   H38   S    
O8    Zn5   S    
C71   O16   A    
C2    C3    A    
C25   C26   A    
C39   O44   S    
C70   O19   A    
C32   C33   A    
C32   H3    S    
O5    Zn3   S    
C75   H7    S    
O26   Zn1   S    
C30   C31   A    
O48   H28   S    
C84   O51   S    
C48   C49   A    
C64   C65   A    
C83   O48   S    
C33   C35   A    
C56   O26   A    
C86   O58   S    
O30   H16   S    
C22   C24   A    
C61   C62   A    
C82   O45   D    
C34   O3    A    
C26   O33   S    
C10   C11   A    
C54   C82   S    
O51   H30   S    
C1    C42   S    
C73   O14   A    
C67   C75   A    
C20   C21   A    
C35   C69   S    
C78   O32   S    
C65   C66   A    
C27   C28   A    
C68   C70   S    
O40   H22   S    
C60   C61   A    
O41   H23   S    
O58   H35   S    
C9    O59   S    
C43   O41   S    
O56   H34   S    
C24   C71   S    
C82   O46   S    
O27   H14   S    
O15   Zn5   S    
C72   O10   A    
