data_mof_unit_62604.cif
_audit_creation_date              2012-12-10T19:27:04-0500
_audit_creation_method            fapswitch 2.2
_symmetry_space_group_name_H-M    P1
_symmetry_Int_Tables_number       1
_space_group_crystal_system       triclinic
_cell_length_a                    30.55102
_cell_length_b                    30.555445
_cell_length_c                    27.700137
_cell_angle_alpha                 90.005752
_cell_angle_beta                  89.993536
_cell_angle_gamma                 90.000953
_cell_volume                      25858.0779042

loop_
_atom_site_label
_atom_site_type_symbol
_atom_type_description
_atom_site_fract_x
_atom_site_fract_y
_atom_site_fract_z
_atom_type_partial_charge
C1    C     C_R   0.118383 0.381624 0.249992 -0.207231
C2    C     C_R   0.881610 0.381615 0.249997 -0.092443
C3    C     C_1   0.000000 0.499998 0.525492 0.010818
C4    C     C_1   0.999998 0.500000 0.974508 0.010716
C5    C     C_1   0.000002 0.500000 0.025492 0.010322
C6    C     C_1   0.500000 0.000002 0.974508 0.007011
C7    C     C_1   0.500000 0.999998 0.025492 0.007626
C8    C     C_R   0.113174 0.343726 0.277814 -0.179418
C9    C     C_R   0.884633 0.654246 0.718732 -0.299765
C10   C     C_R   0.343714 0.886823 0.277834 -0.180970
C11   C     C_R   0.653229 0.116277 0.717119 -0.300955
C12   C     C_R   0.886826 0.656283 0.277821 -0.180580
C13   C     C_R   0.381613 0.118387 0.750000 -0.091062
C14   C     C_R   0.116315 0.346852 0.717149 -0.177791
C15   C     C_R   0.656283 0.113179 0.277827 -0.180668
C16   C     C_R   0.346772 0.883725 0.717127 -0.303367
C17   C     C_R   0.113172 0.656278 0.722187 -0.180689
C18   C     C_R   0.883719 0.346786 0.282873 -0.300067
C19   C     C_R   0.343671 0.113168 0.722109 -0.303009
C20   C     C_R   0.653222 0.883723 0.282876 -0.300517
C21   C     C_R   0.886823 0.343723 0.722176 -0.178438
C22   C     C_R   0.116278 0.653218 0.282876 -0.300398
C23   C     C_R   0.656148 0.887002 0.721539 -0.174380
C24   C     C_R   0.618388 0.881612 0.250000 -0.092215
C25   C     C_R   0.346766 0.116277 0.282881 -0.300978
C26   C     C_R   0.614927 0.845139 0.780136 -0.312306
C27   C     C_R   0.383722 0.153213 0.217130 -0.300946
C28   C     C_R   0.843711 0.386826 0.777830 -0.180446
C29   C     C_R   0.153229 0.616277 0.217118 -0.300157
C30   C     C_R   0.386834 0.156329 0.777890 -0.302982
C31   C     C_R   0.616278 0.846777 0.217123 -0.301135
C32   C     C_R   0.156283 0.613180 0.777826 -0.178561
C33   C     C_R   0.846776 0.383720 0.217121 -0.300384
C34   C     C_R   0.613177 0.156275 0.222182 -0.180983
C35   C     C_R   0.881617 0.381624 0.750003 -0.207387
C36   C     C_R   0.383718 0.846786 0.782873 -0.302871
C37   C     C_R   0.843717 0.613175 0.222178 -0.180614
C38   C     C_R   0.153147 0.383686 0.782851 -0.177826
C39   C     C_R   0.386825 0.843723 0.222176 -0.180995
C40   C     C_R   0.616275 0.153221 0.782873 -0.303355
C41   C     C_R   0.156290 0.386823 0.222166 -0.179467
C42   C     C_R   0.845792 0.615189 0.781599 -0.303177
C43   C     C_R   0.144841 0.310829 0.277769 0.438940
C44   C     C_R   0.852326 0.686965 0.718672 0.392657
C45   C     C_R   0.310816 0.855155 0.277792 0.438175
C46   C     C_R   0.118391 0.618386 0.249997 -0.092465
C47   C     C_R   0.685874 0.148657 0.716793 0.395041
C48   C     C_R   0.855159 0.689180 0.277776 0.438283
C49   C     C_R   0.148606 0.314578 0.716192 0.439186
C50   C     C_R   0.689181 0.144846 0.277785 0.438260
C51   C     C_R   0.314124 0.851347 0.716802 0.394668
C52   C     C_R   0.144838 0.689177 0.722232 0.438346
C53   C     C_R   0.851339 0.314140 0.283199 0.395234
C54   C     C_R   0.310945 0.145466 0.721913 0.394745
C55   C     C_R   0.685868 0.851344 0.283201 0.395097
C56   C     C_R   0.855155 0.310827 0.722220 0.438556
C57   C     C_R   0.618829 0.882067 0.750457 -0.148207
C58   C     C_R   0.148657 0.685863 0.283203 0.395186
C59   C     C_R   0.689653 0.855989 0.722177 0.388377
C60   C     C_R   0.314119 0.148655 0.283206 0.395203
C61   C     C_R   0.647823 0.813017 0.780872 0.447101
C62   C     C_R   0.351343 0.185856 0.216804 0.395180
C63   C     C_R   0.810812 0.355159 0.777787 0.438497
C64   C     C_R   0.185875 0.648656 0.216792 0.395224
C65   C     C_R   0.354536 0.189055 0.778086 0.394739
C66   C     C_R   0.648658 0.814132 0.216797 0.395060
C67   C     C_R   0.189179 0.644849 0.777785 0.438479
C68   C     C_R   0.381606 0.118383 0.250005 -0.092105
C69   C     C_R   0.814130 0.351341 0.216796 0.395216
C70   C     C_R   0.644844 0.189172 0.222225 0.438195
C71   C     C_R   0.351337 0.814142 0.783200 0.394906
C72   C     C_R   0.810820 0.644843 0.222220 0.438285
C73   C     C_R   0.185421 0.351396 0.783807 0.439172
C74   C     C_R   0.355158 0.810826 0.222220 0.438184
C75   C     C_R   0.648653 0.185866 0.783199 0.394744
C76   C     C_R   0.189188 0.355155 0.222208 0.438964
C77   C     C_R   0.813141 0.647552 0.782088 0.397814
C78   C     C_R   0.183585 0.316423 0.249989 -0.154572
C79   C     C_R   0.282427 0.217558 0.250002 0.206473
C80   C     C_R   0.816543 0.683509 0.750513 -0.008256
C81   C     C_R   0.316417 0.816421 0.250006 -0.153736
C82   C     C_R   0.683473 0.183471 0.749996 -0.011884
C83   C     C_R   0.816420 0.683582 0.249998 -0.153963
C84   C     C_R   0.183583 0.316417 0.750000 -0.155480
C85   C     C_R   0.683582 0.183579 0.250005 -0.153873
C86   C     C_R   0.316520 0.816536 0.750001 -0.011570
C87   C     C_R   0.183578 0.683583 0.750009 -0.154533
C88   C     C_R   0.816525 0.316531 0.249998 -0.012317
C89   C     C_R   0.316530 0.183470 0.750000 -0.011635
C90   C     C_R   0.718694 0.783512 0.751525 0.132716
C91   C     C_R   0.683472 0.816528 0.249999 -0.012133
C92   C     C_R   0.816413 0.316424 0.750003 -0.154627
C93   C     C_R   0.183476 0.683468 0.249998 -0.012309
C94   C     C_R   0.685269 0.818266 0.751717 -0.084886
C95   C     C_R   0.316521 0.183465 0.250004 -0.012063
C96   C     C_R   0.217569 0.717562 0.249999 0.206893
C97   C     C_R   0.881579 0.618358 0.750088 -0.092148
C98   C     C_R   0.782338 0.282350 0.750002 0.052481
C99   C     C_R   0.717566 0.782435 0.249999 0.207007
C100  C     C_R   0.282437 0.217564 0.750000 0.206407
C101  C     C_R   0.782431 0.282438 0.249999 0.206827
C102  C     C_R   0.217652 0.717658 0.750008 0.052643
C103  C     C_R   0.282426 0.782443 0.750002 0.206825
C104  C     C_R   0.717657 0.217653 0.250004 0.052428
C105  C     C_R   0.217658 0.282343 0.750000 0.051925
C106  C     C_R   0.782346 0.717656 0.249998 0.052539
C107  C     C_R   0.717565 0.217565 0.749997 0.206817
C108  C     C_R   0.381619 0.881622 0.250004 -0.206467
C109  C     C_R   0.282342 0.782346 0.250005 0.052507
C110  C     C_R   0.782603 0.717782 0.750933 0.202154
C111  C     C_R   0.217659 0.282348 0.249991 0.051714
C112  C     C_R   0.224185 0.256426 0.208881 -0.178202
C113  C     C_R   0.774449 0.741699 0.793217 -0.117907
C114  C     C_R   0.256425 0.775822 0.208893 -0.179024
C115  C     C_R   0.743486 0.224217 0.791146 -0.099888
C116  C     C_R   0.775826 0.743568 0.208885 -0.179130
C117  C     C_R   0.259961 0.292195 0.733739 -0.178372
C118  C     C_R   0.743579 0.224174 0.208890 -0.179025
C119  C     C_R   0.618390 0.118387 0.749997 -0.091783
C120  C     C_R   0.256503 0.775793 0.791155 -0.100627
C121  C     C_R   0.224171 0.743579 0.791120 -0.179196
C122  C     C_R   0.775789 0.256511 0.208850 -0.099710
C123  C     C_R   0.292259 0.259947 0.733834 -0.100368
C124  C     C_R   0.743492 0.775779 0.208848 -0.100177
C125  C     C_R   0.775818 0.256431 0.791111 -0.178821
C126  C     C_R   0.224216 0.743485 0.208853 -0.099798
C127  C     C_R   0.742628 0.774413 0.793512 -0.108785
C128  C     C_R   0.256514 0.224209 0.208849 -0.099557
C129  C     C_R   0.726579 0.759401 0.709342 -0.187324
C130  C     C_R   0.881621 0.618379 0.249999 -0.206627
C131  C     C_R   0.275775 0.243484 0.291150 -0.099562
C132  C     C_R   0.756421 0.275826 0.708891 -0.178773
C133  C     C_R   0.243491 0.724213 0.291147 -0.099714
C134  C     C_R   0.240042 0.207752 0.766166 -0.100396
C135  C     C_R   0.724212 0.756520 0.291149 -0.099747
C136  C     C_R   0.243572 0.724182 0.708892 -0.178810
C137  C     C_R   0.756505 0.275790 0.291150 -0.099637
C138  C     C_R   0.724173 0.243576 0.291115 -0.178820
C139  C     C_R   0.275781 0.756519 0.708852 -0.100269
C140  C     C_R   0.756424 0.724186 0.291112 -0.178844
C141  C     C_R   0.118380 0.381619 0.750000 -0.208436
C142  C     C_R   0.207795 0.240050 0.766260 -0.178362
C143  C     C_R   0.275822 0.756427 0.291113 -0.179017
C144  C     C_R   0.724212 0.243488 0.708851 -0.100418
C145  C     C_R   0.243569 0.275824 0.291107 -0.178132
C146  C     C_R   0.758457 0.726742 0.709017 -0.100192
C147  C     C_R   0.500000 0.999998 0.120844 0.820434
C148  C     C_R   0.500000 0.000002 0.879156 0.820735
C149  C     C_R   0.000002 0.500000 0.120842 0.820727
C150  C     C_R   0.999998 0.500000 0.879158 0.820648
C151  C     C_R   1.000000 0.499998 0.620844 0.820648
C152  C     C_R   0.618380 0.118377 0.250004 -0.206566
C153  C     C_R   0.000000 0.500002 0.379156 0.820675
C154  C     C_R   0.500002 0.000000 0.620842 0.820934
C155  C     C_R   0.499998 1.000000 0.379158 0.820659
C156  C     C_R   0.415727 0.915728 0.250002 0.851919
C157  C     C_R   0.584276 0.084274 0.749998 0.847253
C158  C     C_R   0.915728 0.584272 0.250000 0.851864
C159  C     C_R   0.084272 0.415728 0.750000 0.852218
C160  C     C_R   0.584272 0.084270 0.250001 0.851753
C161  C     C_R   0.415725 0.915728 0.749999 0.847291
C162  C     C_R   0.084274 0.415730 0.249997 0.852320
C163  C     C_R   0.381608 0.881616 0.749999 -0.091049
C164  C     C_R   0.915713 0.584262 0.750001 0.847755
C165  C     C_R   0.415726 0.084274 0.750000 0.847363
C166  C     C_R   0.584274 0.915726 0.250000 0.847446
C167  C     C_R   0.915726 0.415729 0.750001 0.852011
C168  C     C_R   0.084276 0.584274 0.249999 0.847637
C169  C     C_R   0.584306 0.915759 0.750021 0.850113
C170  C     C_R   0.415724 0.084272 0.250003 0.847468
C171  C     C_R   0.084271 0.584271 0.750002 0.851789
C172  C     C_R   0.915726 0.415727 0.249999 0.847593
C173  C     C_1   0.499995 0.000000 0.430978 -0.136709
C174  C     C_R   0.118379 0.618378 0.750005 -0.207273
C175  C     C_1   0.500005 0.000000 0.569022 -0.137748
C176  C     C_1   0.000000 0.500004 0.430977 -0.135203
C177  C     C_1   0.000000 0.499996 0.569023 -0.134029
C178  C     C_1   0.999995 0.500000 0.930978 -0.134169
C179  C     C_1   0.000005 0.500000 0.069022 -0.135327
C180  C     C_1   0.500000 0.000004 0.930977 -0.139153
C181  C     C_1   0.500000 0.999996 0.069023 -0.137359
C182  C     C_1   0.499997 0.000000 0.474508 0.008564
C183  C     C_1   0.500002 0.000000 0.525492 0.008286
C184  C     C_1   0.000000 0.500002 0.474508 0.010414
H1    H     H_    0.204247 0.261221 0.176983 0.163247
H2    H     H_    0.795735 0.261181 0.176930 0.155349
H3    H     H_    0.324814 0.267880 0.721043 0.155429
H4    H     H_    0.738823 0.795716 0.176928 0.154921
H5    H     H_    0.795762 0.261228 0.823005 0.162604
H6    H     H_    0.204273 0.738812 0.176935 0.155330
H7    H     H_    0.736851 0.792884 0.826281 0.155515
H8    H     H_    0.261188 0.204264 0.176930 0.155498
H9    H     H_    0.708084 0.765994 0.676782 0.163568
H10   H     H_    0.295711 0.238813 0.323072 0.155528
H11   H     H_    0.761215 0.295770 0.676999 0.162667
H12   H     H_    0.793010 0.735263 0.825769 0.156078
H13   H     H_    0.238820 0.704269 0.323064 0.155365
H14   H     H_    0.232101 0.175205 0.778956 0.155402
H15   H     H_    0.704267 0.761196 0.323070 0.155401
H16   H     H_    0.238779 0.704237 0.676997 0.162610
H17   H     H_    0.761172 0.295736 0.323068 0.155444
H18   H     H_    0.704225 0.238783 0.323010 0.162564
H19   H     H_    0.295725 0.761191 0.676931 0.155198
H20   H     H_    0.761216 0.704247 0.323007 0.162605
H21   H     H_    0.175192 0.232194 0.778955 0.163413
H22   H     H_    0.295767 0.761223 0.323007 0.162455
H23   H     H_    0.261219 0.795767 0.177001 0.162396
H24   H     H_    0.704270 0.238815 0.676933 0.155124
H25   H     H_    0.238770 0.295771 0.323001 0.163270
H26   H     H_    0.764214 0.708317 0.676215 0.159045
H27   H     H_    0.083903 0.339127 0.299316 0.200197
H28   H     H_    0.912232 0.656956 0.694360 0.175286
H29   H     H_    0.339110 0.916089 0.299338 0.199447
H30   H     H_    0.655107 0.089432 0.691657 0.175142
H31   H     H_    0.916095 0.660886 0.299320 0.199693
H32   H     H_    0.089738 0.344938 0.691334 0.201789
H33   H     H_    0.660885 0.083914 0.299327 0.199714
H34   H     H_    0.738816 0.204274 0.823062 0.155200
H35   H     H_    0.344897 0.910568 0.691668 0.173032
H36   H     H_    0.083903 0.660878 0.700689 0.199579
H37   H     H_    0.910564 0.344914 0.308334 0.175576
H38   H     H_    0.339438 0.083962 0.700434 0.173055
H39   H     H_    0.655097 0.910569 0.308337 0.175208
H40   H     H_    0.916094 0.339122 0.700673 0.201658
H41   H     H_    0.089429 0.655092 0.308340 0.175194
H42   H     H_    0.659818 0.915554 0.698700 0.198288
H43   H     H_    0.344887 0.089434 0.308341 0.174839
H44   H     H_    0.586148 0.841082 0.802542 0.175250
H45   H     H_    0.795774 0.738768 0.176989 0.162346
H46   H     H_    0.410573 0.155085 0.191669 0.174856
H47   H     H_    0.839107 0.416093 0.799333 0.199647
H48   H     H_    0.155105 0.589432 0.191654 0.175521
H49   H     H_    0.416040 0.160561 0.799566 0.173059
H50   H     H_    0.589433 0.844902 0.191663 0.174755
H51   H     H_    0.160887 0.583914 0.799323 0.201611
H52   H     H_    0.844903 0.410562 0.191661 0.175189
H53   H     H_    0.583909 0.160874 0.200681 0.199472
H54   H     H_    0.410565 0.844912 0.808331 0.173238
H55   H     H_    0.839113 0.583907 0.200679 0.199681
H56   H     H_    0.267825 0.324790 0.721044 0.163417
H57   H     H_    0.155060 0.410263 0.808666 0.201762
H58   H     H_    0.416095 0.839123 0.200671 0.199438
H59   H     H_    0.589425 0.155095 0.808336 0.173075
H60   H     H_    0.160896 0.416087 0.200666 0.200153
H61   H     H_    0.843146 0.587494 0.805835 0.175768
H62   H     H_    0.157530 0.250648 0.297722 0.356221
H63   H     H_    0.882303 0.720365 0.668757 0.344855
H64   H     H_    0.250630 0.842450 0.297762 0.356054
H65   H     H_    0.717519 0.120305 0.664395 0.344570
H66   H     H_    0.842464 0.749363 0.297734 0.356106
H67   H     H_    0.738789 0.204227 0.176996 0.162405
H68   H     H_    0.171601 0.264685 0.679727 0.355983
H69   H     H_    0.749365 0.157553 0.297748 0.356193
H70   H     H_    0.282485 0.879697 0.664412 0.342601
H71   H     H_    0.157532 0.749358 0.702279 0.355826
H72   H     H_    0.879693 0.282512 0.335594 0.345019
H73   H     H_    0.274887 0.112691 0.676608 0.342680
H74   H     H_    0.717505 0.879700 0.335596 0.344580
H75   H     H_    0.842459 0.250646 0.702257 0.356242
H76   H     H_    0.120297 0.717498 0.335603 0.344493
H77   H     H_    0.750201 0.844607 0.703225 0.347857
H78   H     H_    0.261172 0.795736 0.823075 0.154958
H79   H     H_    0.282473 0.120308 0.335601 0.344124
H80   H     H_    0.615790 0.777237 0.827118 0.338603
H81   H     H_    0.379708 0.217486 0.164410 0.344108
H82   H     H_    0.750626 0.342456 0.797755 0.355867
H83   H     H_    0.217518 0.620305 0.164391 0.344919
H84   H     H_    0.387312 0.225111 0.823391 0.342676
H85   H     H_    0.620303 0.782493 0.164402 0.343829
H86   H     H_    0.249364 0.657556 0.797746 0.356076
H87   H     H_    0.782494 0.379686 0.164401 0.344485
H88   H     H_    0.657541 0.249351 0.202267 0.356064
H89   H     H_    0.204225 0.738783 0.823017 0.162491
H90   H     H_    0.379694 0.782509 0.835590 0.342874
H91   H     H_    0.750637 0.657546 0.202255 0.356030
H92   H     H_    0.235312 0.328405 0.820271 0.355970
H93   H     H_    0.342463 0.750644 0.202257 0.356137
H94   H     H_    0.620290 0.217503 0.835596 0.342597
H95   H     H_    0.249374 0.342449 0.202242 0.356210
H96   H     H_    0.779931 0.617401 0.832032 0.344353
O1    O     O_3   0.500000 0.000000 0.250000 -0.482951
O2    O     O_R   0.500000 0.036340 0.856210 -0.633718
O3    O     O_R   0.963660 0.500000 0.143790 -0.633022
O4    O     O_R   0.036340 0.500000 0.856210 -0.630970
O5    O     O_R   0.000000 0.536340 0.643790 -0.633221
O6    O     O_R   1.000000 0.463660 0.356210 -0.632147
O7    O     O_R   0.536340 0.000000 0.643790 -0.632247
O8    O     O_R   0.463660 0.000000 0.356210 -0.633225
O9    O     O_R   0.000000 0.463660 0.643790 -0.630952
O10   O     O_R   1.000000 0.536340 0.356210 -0.633027
O11   O     O_R   0.463660 0.000000 0.643790 -0.634155
O12   O     O_3   0.500000 0.000000 0.750000 -0.481313
O13   O     O_R   0.536340 0.000000 0.356210 -0.632603
O14   O     O_R   0.448830 0.912520 0.222210 -0.643308
O15   O     O_R   0.551170 0.087480 0.777790 -0.645968
O16   O     O_R   0.912520 0.551170 0.222210 -0.643243
O17   O     O_R   0.087480 0.448830 0.777790 -0.642532
O18   O     O_R   0.551170 0.087480 0.222210 -0.643339
O19   O     O_R   0.448830 0.912520 0.777790 -0.645454
O20   O     O_R   0.087480 0.448830 0.222210 -0.642964
O21   O     O_R   0.912520 0.551170 0.777790 -0.644912
O22   O     O_R   0.448830 0.087480 0.777790 -0.645275
O23   O     O_3   0.000000 0.500000 0.250000 -0.483547
O24   O     O_R   0.551170 0.912520 0.222210 -0.644882
O25   O     O_R   0.912520 0.448830 0.777790 -0.643573
O26   O     O_R   0.087480 0.551170 0.222210 -0.644539
O27   O     O_R   0.551170 0.912520 0.777790 -0.641324
O28   O     O_R   0.448830 0.087480 0.222210 -0.644775
O29   O     O_R   0.087480 0.551170 0.777790 -0.642192
O30   O     O_R   0.912520 0.448830 0.222210 -0.644719
O31   O     O_R   0.948830 0.412520 0.722210 -0.642146
O32   O     O_R   0.051170 0.587480 0.277790 -0.644706
O33   O     O_R   0.412520 0.051170 0.722210 -0.645291
O34   O     O_3   1.000000 0.500000 0.750000 -0.484559
O35   O     O_R   0.587480 0.948830 0.277790 -0.644624
O36   O     O_R   0.051170 0.587480 0.722210 -0.643604
O37   O     O_R   0.948830 0.412520 0.277790 -0.644494
O38   O     O_R   0.587480 0.948830 0.722210 -0.647193
O39   O     O_R   0.412520 0.051170 0.277790 -0.644834
O40   O     O_R   0.948830 0.587480 0.277790 -0.643229
O41   O     O_R   0.051170 0.412520 0.722210 -0.642528
O42   O     O_R   0.412520 0.948830 0.277790 -0.643309
O43   O     O_R   0.587480 0.051170 0.722210 -0.644238
O44   O     O_R   0.051170 0.412520 0.277790 -0.642910
O45   O     O_R   0.500000 0.036340 0.143790 -0.633028
O46   O     O_R   0.948830 0.587480 0.722210 -0.644914
O47   O     O_R   0.587480 0.051170 0.277790 -0.643192
O48   O     O_R   0.412520 0.948830 0.722210 -0.645763
O49   O     O_3   0.136084 0.273934 0.305016 -0.743810
O50   O     O_3   0.855397 0.722913 0.688588 -0.759817
O51   O     O_3   0.273912 0.863902 0.305046 -0.745851
O52   O     O_3   0.720712 0.146625 0.685045 -0.757185
O53   O     O_3   0.863912 0.726082 0.305022 -0.745316
O54   O     O_3   0.144594 0.282415 0.681348 -0.742453
O55   O     O_3   0.726082 0.136101 0.305032 -0.745141
O56   O     O_R   0.500000 0.963660 0.856210 -0.634249
O57   O     O_3   0.279289 0.853379 0.685060 -0.759130
O58   O     O_3   0.136084 0.726074 0.694990 -0.745853
O59   O     O_3   0.853373 0.279313 0.314945 -0.756923
O60   O     O_3   0.273686 0.141005 0.694058 -0.758669
O61   O     O_3   0.720700 0.853379 0.314947 -0.757378
O62   O     O_3   0.863909 0.273929 0.694969 -0.742795
O63   O     O_3   0.146620 0.720694 0.314952 -0.757520
O64   O     O_3   0.725976 0.864315 0.693890 -0.745128
O65   O     O_3   0.279280 0.146625 0.314952 -0.757454
O66   O     O_3   0.643797 0.775917 0.809075 -0.742821
O67   O     O_R   0.036340 0.500000 0.143790 -0.632214
O68   O     O_3   0.353383 0.220684 0.185058 -0.757482
O69   O     O_3   0.773908 0.363908 0.805039 -0.745594
O70   O     O_3   0.220712 0.646624 0.185043 -0.757125
O71   O     O_3   0.358997 0.226313 0.805941 -0.758693
O72   O     O_3   0.646623 0.779299 0.185051 -0.758122
O73   O     O_3   0.226082 0.636103 0.805029 -0.743150
O74   O     O_3   0.779298 0.353370 0.185050 -0.757525
O75   O     O_3   0.636093 0.226068 0.194979 -0.745871
O76   O     O_3   0.353372 0.779313 0.814943 -0.758477
O77   O     O_3   0.773918 0.636091 0.194974 -0.745516
O78   O     O_R   0.963660 0.500000 0.856210 -0.633297
O79   O     O_3   0.217582 0.355409 0.818652 -0.742538
O80   O     O_3   0.363911 0.773928 0.194967 -0.745777
O81   O     O_3   0.646614 0.220699 0.814946 -0.759096
O82   O     O_3   0.226094 0.363901 0.194960 -0.743876
O83   O     O_3   0.777359 0.644429 0.812420 -0.749202
O84   O     O_R   0.500000 0.963660 0.143790 -0.633188
Zn1   Zn    Zn3+2 0.448040 0.000000 0.289870 0.981995
Zn2   Zn    Zn3+2 0.051960 0.500000 0.210130 0.983553
Zn3   Zn    Zn3+2 0.500000 0.051960 0.789870 0.977696
Zn4   Zn    Zn3+2 0.500000 0.948040 0.210130 0.981808
Zn5   Zn    Zn3+2 0.051960 0.500000 0.789870 0.987492
Zn6   Zn    Zn3+2 0.948040 0.500000 0.210130 0.982513
Zn7   Zn    Zn3+2 0.500000 0.948040 0.789870 0.978713
Zn8   Zn    Zn3+2 0.500000 0.051960 0.210130 0.981894
Zn9   Zn    Zn3+2 0.551960 0.000000 0.710130 0.981966
Zn10  Zn    Zn3+2 0.000000 0.551960 0.289870 0.982537
Zn11  Zn    Zn3+2 1.000000 0.448040 0.710130 0.987628
Zn12  Zn    Zn3+2 0.551960 0.000000 0.289870 0.982567
Zn13  Zn    Zn3+2 0.448040 0.000000 0.710130 0.977824
Zn14  Zn    Zn3+2 1.000000 0.448040 0.289870 0.983616
Zn15  Zn    Zn3+2 0.000000 0.551960 0.710130 0.982269
Zn16  Zn    Zn3+2 0.948040 0.500000 0.789870 0.982328

loop_
_geom_bond_atom_site_label_1
_geom_bond_atom_site_label_2
_ccdc_geom_bond_type
C48   O53   S    
C132  C144  A    
C42   H61   S    
C150  O78   A    
C75   C82   A    
C22   H41   S    
C17   C174  A    
C65   C89   A    
O34   Zn15  S    
C12   C130  A    
O47   Zn12  S    
C135  H15   S    
C37   H55   S    
H79   O65   S    
C149  C179  S    
H74   O61   S    
C74   O80   S    
C39   C74   A    
C182  C183  S    
C5    C179  T    
C27   C68   A    
C165  O33   A    
C25   C60   A    
C8    H27   S    
C3    C184  S    
C36   C71   A    
C33   C69   A    
C53   O59   S    
C39   H58   S    
C147  C181  S    
C29   C64   A    
C62   C95   A    
H75   O62   S    
C15   C50   A    
O78   Zn16  S    
C17   C52   A    
C161  C163  S    
O28   Zn8   S    
C31   H50   S    
C67   O73   S    
C41   H60   S    
C13   C30   A    
O11   Zn13  S    
C42   C97   A    
O44   Zn14  S    
C101  C137  A    
C61   C94   A    
O23   Zn14  S    
H82   O69   S    
H95   O82   S    
O27   Zn7   S    
C166  O24   A    
C153  O10   A    
C97   C164  S    
C58   O63   S    
C54   O60   S    
C84   C105  S    
C60   O65   S    
O43   Zn9   S    
C69   C88   A    
H83   O70   S    
C1    C41   A    
C164  O46   A    
C173  C182  T    
C160  O47   A    
H62   O49   S    
C74   C81   A    
O1    Zn12  S    
C112  H1    S    
H86   O73   S    
C175  C183  T    
C162  O44   A    
C176  C184  T    
C59   O64   S    
C133  H13   S    
C26   C61   A    
C45   C81   A    
C29   H48   S    
C4    C5    S    
C22   C58   A    
C40   C75   A    
C10   H29   S    
C6    C7    S    
C21   C35   A    
O23   Zn2   S    
C101  C122  A    
C41   C76   A    
C138  H18   S    
O13   Zn12  S    
C30   H49   S    
C26   C57   A    
C147  O45   A    
C11   H30   S    
O33   Zn13  S    
C28   C63   A    
C77   O83   S    
C40   C119  A    
C159  O41   A    
C55   O61   S    
C172  O37   A    
C1    C8    A    
H71   O58   S    
C10   C108  A    
C111  C112  A    
C16   C51   A    
H76   O63   S    
O31   Zn11  S    
C23   C59   A    
C16   H35   S    
C49   C84   A    
C76   C78   A    
C140  H20   S    
C114  C126  A    
C151  C177  S    
C143  H22   S    
C172  O30   A    
C154  O11   A    
O40   Zn10  S    
C114  H23   S    
C66   O72   S    
C118  C122  A    
C126  H6    S    
C18   H37   S    
O19   Zn7   S    
H77   O64   S    
O46   Zn15  S    
C141  C159  S    
C98   C125  A    
O7    Zn9   S    
O6    Zn14  S    
C28   C35   A    
C170  O28   A    
C36   C163  A    
C78   C111  S    
C158  O40   A    
C102  C121  A    
C71   O76   S    
C63   O69   S    
C50   C85   A    
C45   O51   S    
O15   Zn3   S    
C33   H52   S    
C19   H38   S    
H90   O76   S    
C151  O5    A    
C100  C134  A    
C145  H25   S    
O21   Zn16  S    
C39   C108  A    
O16   Zn6   S    
C18   C53   A    
C136  H16   S    
O8    Zn1   S    
C7    C181  T    
C96   C126  A    
C72   C83   A    
C105  C142  A    
C124  H4    S    
C34   C152  A    
C157  O43   A    
O25   Zn16  S    
C25   H43   S    
C127  H7    S    
O37   Zn14  S    
C128  H8    S    
C60   C95   A    
C27   C62   A    
O34   Zn5   S    
C71   C86   A    
C28   H47   S    
C119  C157  S    
C79   C131  A    
C50   O55   S    
C10   C45   A    
C149  O3    A    
C14   H32   S    
C115  H34   S    
C109  C114  A    
C32   C67   A    
C19   C54   A    
O9    Zn11  S    
C38   C141  A    
H80   O66   S    
C120  C121  A    
C23   C57   A    
C38   H57   S    
C6    C180  T    
C4    C178  T    
C62   O68   S    
H88   O75   S    
O34   Zn16  S    
C48   C83   A    
C69   O74   S    
H91   O77   S    
C137  H17   S    
O30   Zn6   S    
C113  H12   S    
C131  C145  A    
C30   C65   A    
O3    Zn6   S    
C42   C77   A    
C149  O67   A    
C98   C132  A    
C159  O17   A    
C91   C99   S    
C155  O8    A    
C110  C146  A    
C70   C85   A    
C2    C172  S    
C99   C124  A    
O20   Zn2   S    
O23   Zn6   S    
O45   Zn8   S    
C11   C47   A    
C103  C120  A    
C8    C43   A    
C12   C48   A    
C43   C78   A    
C44   O50   S    
C46   C168  S    
C58   C93   A    
C75   O81   S    
C118  H67   S    
C116  H45   S    
C9    H28   S    
O26   Zn2   S    
O38   Zn9   S    
C55   C91   A    
O1    Zn4   S    
C165  O22   A    
C68   C170  S    
C26   H44   S    
C132  H11   S    
C90   C127  A    
H84   O71   S    
C59   C94   A    
C15   H33   S    
C34   C70   A    
C148  C180  S    
H66   O53   S    
C105  C117  A    
C25   C68   A    
C136  C139  A    
C51   C86   A    
C15   C152  A    
O29   Zn5   S    
C90   C94   S    
C104  C118  A    
C36   H54   S    
C135  C140  A    
C171  C174  S    
C13   C19   A    
H85   O72   S    
C44   C80   A    
O17   Zn5   S    
H64   O51   S    
C89   C100  S    
C32   C174  A    
C171  O29   A    
C167  O31   A    
C106  C116  A    
C168  O32   A    
C43   O49   S    
C52   O58   S    
C79   C95   S    
C134  C142  A    
C27   H46   S    
C106  C140  A    
C108  C156  S    
C65   O71   S    
O12   Zn3   S    
C99   C135  A    
C109  C143  A    
H96   O83   S    
C150  O4    A    
O12   Zn9   S    
C129  C146  A    
C66   C91   A    
C85   C104  S    
C169  O38   A    
C2    C33   A    
O18   Zn8   S    
C22   C46   A    
C81   C109  S    
C47   O52   S    
C120  H78   S    
C72   O77   S    
O14   Zn4   S    
C23   H42   S    
C49   O54   S    
C77   C80   A    
C9    C97   A    
C116  C124  A    
H70   O57   S    
C21   C56   A    
H94   O81   S    
C51   O57   S    
C83   C106  S    
C156  O14   A    
C29   C46   A    
C130  C158  S    
C100  C123  A    
C157  O15   A    
C24   C31   A    
C158  O16   A    
C164  O21   A    
C139  H19   S    
O34   Zn11  S    
C20   H39   S    
H69   O55   S    
C117  C123  A    
C102  C136  A    
C112  C128  A    
C40   H59   S    
C122  H2    S    
C37   C72   A    
C153  O6    A    
C12   H31   S    
C107  C144  A    
O2    Zn3   S    
C144  H24   S    
C32   H51   S    
O10   Zn10  S    
C31   C66   A    
C79   C128  A    
C152  C160  S    
O39   Zn1   S    
O35   Zn12  S    
C21   H40   S    
O48   Zn13  S    
C2    C18   A    
C24   C166  S    
C11   C119  A    
C88   C101  S    
C92   C98   S    
H92   O79   S    
C61   O66   S    
H73   O60   S    
C153  C176  S    
C148  O2    A    
C154  C175  S    
C155  O13   A    
C168  O26   A    
O67   Zn2   S    
C64   C93   A    
C111  C145  A    
C47   C82   A    
C14   C49   A    
C166  O35   A    
C37   C130  A    
C142  H21   S    
C34   H53   S    
C160  O18   A    
C76   O82   S    
C167  O25   A    
H93   O80   S    
C13   C165  S    
C170  O39   A    
O23   Zn10  S    
C20   C24   A    
C117  H56   S    
C63   C92   A    
C35   C167  S    
C73   C84   A    
O1    Zn1   S    
C150  C178  S    
H68   O54   S    
C155  C173  S    
C14   C141  A    
C64   O70   S    
O22   Zn3   S    
C90   C129  A    
C20   C55   A    
C86   C103  S    
H81   O68   S    
C146  H26   S    
C121  H89   S    
C169  O27   A    
C57   C169  S    
C16   C163  A    
C133  C143  A    
C73   O79   S    
C156  O42   A    
C54   C89   A    
O1    Zn8   S    
C161  O48   A    
O84   Zn4   S    
C151  O9    A    
O36   Zn15  S    
C103  C139  A    
C87   C102  S    
O56   Zn7   S    
C147  O84   A    
O41   Zn11  S    
C154  O7    A    
C82   C107  S    
C17   H36   S    
C110  C113  A    
C107  C115  A    
C70   O75   S    
C93   C96   S    
H72   O59   S    
C131  H10   S    
C148  O56   A    
H87   O74   S    
C161  O19   A    
C162  O20   A    
C134  H14   S    
C9    C44   A    
O24   Zn4   S    
O32   Zn10  S    
C52   C87   A    
H65   O52   S    
C1    C162  S    
C129  H9    S    
C96   C133  A    
C113  C127  A    
C137  C138  A    
C67   C87   A    
C115  C125  A    
O12   Zn13  S    
C3    C177  T    
O12   Zn7   S    
H63   O50   S    
C171  O36   A    
O5    Zn15  S    
C104  C138  A    
C53   C88   A    
O42   Zn1   S    
C123  H3    S    
O4    Zn5   S    
C56   C92   A    
C80   C110  S    
C125  H5    S    
C56   O62   S    
C38   C73   A    
