data_mof_unit_33277.cif
_audit_creation_date              2012-12-11T14:52:42-0500
_audit_creation_method            fapswitch 2.2
_symmetry_space_group_name_H-M    P1
_symmetry_Int_Tables_number       1
_space_group_crystal_system       triclinic
_cell_length_a                    19.168658
_cell_length_b                    11.18594
_cell_length_c                    18.871478
_cell_angle_alpha                 90.231932
_cell_angle_beta                  91.346309
_cell_angle_gamma                 88.38289
_cell_volume                      4043.66075352

loop_
_atom_site_label
_atom_site_type_symbol
_atom_type_description
_atom_site_fract_x
_atom_site_fract_y
_atom_site_fract_z
_atom_type_partial_charge
C1    C     C_R   0.272428 0.038954 0.854076 0.603996
C2    C     C_R   0.711227 0.511656 0.042523 -0.042538
C3    C     C_3   0.029638 0.316302 0.064167 -0.046451
C4    C     C_2   0.357287 0.787719 0.999956 0.261091
C5    C     C_2   0.645226 0.865595 0.004263 0.238501
C6    C     C_2   0.857287 0.287719 0.999956 0.261091
C7    C     C_2   0.145226 0.365595 0.004263 0.238501
C8    C     C_2   0.131263 0.539030 0.592548 0.330837
C9    C     C_2   0.797505 0.813635 0.458161 0.354767
C10   C     C_2   0.631263 0.039029 0.592548 0.330837
C11   C     C_2   0.297505 0.313635 0.458161 0.354770
C12   C     C_2   0.362931 0.639506 0.410107 0.292517
C13   C     C_R   0.812842 0.047669 0.969825 -0.037326
C14   C     C_2   0.685617 0.378092 0.550582 0.389368
C15   C     C_2   0.862931 0.139507 0.410107 0.292514
C16   C     C_2   0.185617 0.878092 0.550582 0.389368
C17   C     C_2   0.385267 0.531127 0.556967 0.323791
C18   C     C_2   0.712954 0.404569 0.401009 0.263335
C19   C     C_2   0.885267 0.031127 0.556967 0.323788
C20   C     C_2   0.212954 0.904569 0.401009 0.263334
C21   C     C_2   0.579512 0.681542 0.903548 0.322103
C22   C     C_2   0.514497 0.576380 0.035674 0.267898
C23   C     C_2   0.079512 0.181542 0.903548 0.322103
C24   C     C_R   0.211227 0.011656 0.042523 -0.042538
C25   C     C_2   0.014497 0.076380 0.035674 0.267896
C26   C     C_2   0.382948 0.501619 0.947202 0.324691
C27   C     C_2   0.674558 0.425003 0.086691 0.377343
C28   C     C_2   0.882948 0.001619 0.947202 0.324691
C29   C     C_2   0.174558 0.925003 0.086691 0.377343
C30   C     C_2   0.435985 0.000070 0.403285 0.275386
C31   C     C_2   0.428378 0.037674 0.554675 0.353287
C32   C     C_2   0.935985 0.500069 0.403285 0.275386
C33   C     C_2   0.928378 0.537674 0.554675 0.353286
C34   C     C_R   0.303232 0.546925 0.043760 0.175861
C35   C     C_R   0.709980 0.499018 0.968315 0.081109
C36   C     C_R   0.803232 0.046925 0.043760 0.175861
C37   C     C_R   0.209980 0.999018 0.968315 0.081109
C38   C     C_R   0.238559 0.576156 0.072088 0.026030
C39   C     C_R   0.751531 0.573171 0.926095 0.015603
C40   C     C_R   0.738559 0.076156 0.072088 0.026031
C41   C     C_R   0.725582 0.040737 0.145497 0.606190
C42   C     C_R   0.251531 0.073171 0.926095 0.015604
C43   C     C_R   0.182350 0.614905 0.026545 0.190819
C44   C     C_R   0.787594 0.665358 0.957932 0.263544
C45   C     C_R   0.682350 0.114905 0.026545 0.190820
C46   C     C_R   0.287594 0.165358 0.957932 0.263544
C47   C     C_R   0.190031 0.609264 0.953635 0.296999
C48   C     C_R   0.794360 0.671416 0.030855 0.240293
C49   C     C_R   0.690031 0.109264 0.953635 0.297000
C50   C     C_R   0.294360 0.171415 0.030855 0.240293
C51   C     C_R   0.255435 0.587462 0.924294 0.013000
C52   C     C_R   0.772428 0.538954 0.854076 0.603996
C53   C     C_R   0.751666 0.601052 0.074117 -0.001466
C54   C     C_R   0.755435 0.087462 0.924294 0.013000
C55   C     C_R   0.251666 0.101052 0.074117 -0.001466
C56   C     C_R   0.537645 0.748781 0.548728 0.256472
C57   C     C_R   0.542980 0.734981 0.476172 0.206058
C58   C     C_R   0.037646 0.248781 0.548728 0.256472
C59   C     C_R   0.042980 0.234981 0.476172 0.206057
C60   C     C_R   0.514580 0.824016 0.429149 -0.065410
C61   C     C_R   0.495383 0.840322 0.575302 -0.041499
C62   C     C_R   0.014580 0.324016 0.429149 -0.065409
C63   C     C_R   0.225582 0.540736 0.145497 0.606190
C64   C     C_R   0.995383 0.340322 0.575302 -0.041499
C65   C     C_R   0.473899 0.919179 0.454997 -0.067663
C66   C     C_R   0.467167 0.931350 0.528815 -0.101314
C67   C     C_R   0.973899 0.419179 0.454997 -0.067662
C68   C     C_R   0.967167 0.431350 0.528815 -0.101314
C69   C     C_R   0.444693 0.819271 0.862435 0.537747
C70   C     C_R   0.556446 0.815651 0.137816 0.532928
C71   C     C_R   0.944693 0.319271 0.862435 0.537747
C72   C     C_R   0.056446 0.315651 0.137816 0.532928
C73   C     C_R   0.189908 0.566648 0.545455 -0.018709
C74   C     C_3   0.538650 0.753993 0.957111 -0.088672
C75   C     C_R   0.772511 0.698771 0.479542 -0.016836
C76   C     C_R   0.689908 0.066648 0.545455 -0.018709
C77   C     C_R   0.272511 0.198771 0.479542 -0.016836
C78   C     C_R   0.179192 0.583290 0.473217 0.136621
C79   C     C_R   0.764770 0.683942 0.551268 0.196918
C80   C     C_R   0.679192 0.083290 0.473217 0.136621
C81   C     C_R   0.264770 0.183942 0.551268 0.196919
C82   C     C_R   0.237500 0.588954 0.427435 0.010030
C83   C     C_R   0.746397 0.573611 0.575167 0.041792
C84   C     C_R   0.737500 0.088954 0.427435 0.010032
C85   C     C_3   0.500779 0.708223 0.022511 -0.040620
C86   C     C_R   0.246397 0.073611 0.575167 0.041792
C87   C     C_R   0.305329 0.600073 0.455707 -0.057916
C88   C     C_R   0.721394 0.484778 0.527013 -0.040817
C89   C     C_R   0.805329 0.100074 0.455707 -0.057915
C90   C     C_R   0.221394 0.984778 0.527013 -0.040818
C91   C     C_R   0.316061 0.579404 0.528998 -0.117388
C92   C     C_R   0.729601 0.499348 0.454062 -0.055909
C93   C     C_R   0.816061 0.079405 0.528998 -0.117390
C94   C     C_R   0.229601 0.999348 0.454062 -0.055908
C95   C     C_R   0.256686 0.580687 0.573547 -0.013873
C96   C     C_3   0.038650 0.253993 0.957111 -0.088673
C97   C     C_R   0.752121 0.608954 0.430563 -0.035262
C98   C     C_R   0.756686 0.080687 0.573547 -0.013873
C99   C     C_R   0.252121 0.108954 0.430563 -0.035263
C100  C     C_R   0.262437 0.636339 0.852143 0.607067
C101  C     C_R   0.739477 0.640153 0.147607 0.573236
C102  C     C_R   0.762437 0.136339 0.852143 0.607067
C103  C     C_R   0.239478 0.140153 0.147607 0.573236
C104  C     C_R   0.271181 0.040682 0.645408 0.573526
C105  C     C_R   0.726751 0.046318 0.354709 0.612814
C106  C     C_R   0.771181 0.540682 0.645408 0.573526
C107  C     C_3   0.000779 0.208223 0.022511 -0.040620
C108  C     C_R   0.226751 0.546318 0.354709 0.612813
C109  C     C_R   0.467728 0.824385 0.646388 0.591133
C110  C     C_R   0.534909 0.821823 0.354991 0.557242
C111  C     C_R   0.967728 0.324385 0.646388 0.591134
C112  C     C_R   0.034909 0.321823 0.354991 0.557242
C113  C     C_R   0.261813 0.636535 0.643369 0.581303
C114  C     C_R   0.740221 0.642515 0.357243 0.524741
C115  C     C_R   0.761813 0.136535 0.643369 0.581303
C116  C     C_R   0.240221 0.142515 0.357243 0.524741
C117  C     C_3   0.465124 0.892354 0.042370 0.272880
C118  C     C_R   0.312842 0.547669 0.969825 -0.037325
C119  C     C_3   0.501572 0.937645 0.976346 0.298738
C120  C     C_3   0.965124 0.392354 0.042370 0.272880
C121  C     C_3   0.001572 0.437645 0.976346 0.298738
C122  C     C_3   0.435174 0.786440 0.000276 -0.045315
C123  C     C_3   0.567733 0.860190 0.999271 -0.008255
C124  C     C_3   0.935174 0.286440 0.000276 -0.045315
C125  C     C_3   0.067733 0.360190 0.999271 -0.008255
C126  C     C_3   0.473434 0.829221 0.935265 -0.062386
C127  C     C_3   0.529638 0.816302 0.064167 -0.046451
C128  C     C_3   0.973434 0.329221 0.935265 -0.062386
Cl1   Cl    Cl    0.091810 0.611752 0.443782 -0.444811
Cl2   Cl    Cl    0.654985 0.390638 0.930582 -0.558254
Cl3   Cl    Cl    0.875417 0.036688 0.104181 -0.410654
Cl4   Cl    Cl    0.154985 0.890638 0.930582 -0.558254
Cl5   Cl    Cl    0.098307 0.658947 0.056569 -0.404950
Cl6   Cl    Cl    0.822223 0.777645 0.905020 -0.401297
Cl7   Cl    Cl    0.598307 0.158947 0.056569 -0.404950
Cl8   Cl    Cl    0.322223 0.277645 0.905020 -0.401299
Cl9   Cl    Cl    0.114788 0.606911 0.897327 -0.308785
Cl10  Cl    Cl    0.863315 0.759282 0.063836 -0.369503
Cl11  Cl    Cl    0.614788 0.106911 0.897327 -0.308785
Cl12  Cl    Cl    0.781937 0.801257 0.612556 -0.501152
Cl13  Cl    Cl    0.363315 0.259282 0.063836 -0.369503
Cl14  Cl    Cl    0.584068 0.649796 0.607129 -0.388886
Cl15  Cl    Cl    0.575827 0.594562 0.447422 -0.387343
Cl16  Cl    Cl    0.084068 0.149796 0.607129 -0.388887
Cl17  Cl    Cl    0.075826 0.094562 0.447422 -0.387343
Cl18  Cl    Cl    0.591810 0.111752 0.443783 -0.444811
Cl19  Cl    Cl    0.281937 0.301257 0.612555 -0.501152
Cl20  Cl    Cl    0.419099 0.984215 0.104850 -0.373197
Cl21  Cl    Cl    0.471378 0.084730 0.951533 -0.316071
Cl22  Cl    Cl    0.919099 0.484215 0.104850 -0.373197
Cl23  Cl    Cl    0.971378 0.584730 0.951533 -0.316070
Cl24  Cl    Cl    0.375417 0.536688 0.104181 -0.410654
Cr1   Cr    Cr6+3 0.229630 0.835900 0.747350 1.192916
Cr2   Cr    Cr6+3 0.614200 0.677120 0.250660 1.188057
Cr3   Cr    Cr6+3 0.885800 0.177120 0.749340 1.149083
Cr4   Cr    Cr6+3 0.114200 0.177120 0.250660 1.188057
Cr5   Cr    Cr6+3 0.770370 0.835900 0.252650 1.204609
Cr6   Cr    Cr6+3 0.729630 0.335900 0.747350 1.192916
Cr7   Cr    Cr6+3 0.270370 0.335900 0.252650 1.204610
Cr8   Cr    Cr6+3 0.387410 0.989850 0.750850 1.207346
Cr9   Cr    Cr6+3 0.612590 0.989850 0.249150 1.199936
Cr10  Cr    Cr6+3 0.887410 0.489850 0.750850 1.207346
Cr11  Cr    Cr6+3 0.112590 0.489850 0.249150 1.199936
Cr12  Cr    Cr6+3 0.385800 0.677120 0.749340 1.149083
H1    H     H_    0.328324 0.790308 0.950044 0.053374
H2    H     H_    0.703030 0.292701 0.531133 0.076589
H3    H     H_    0.912652 0.161969 0.433404 0.161211
H4    H     H_    0.203030 0.792701 0.531133 0.076588
H5    H     H_    0.391392 0.498791 0.610708 0.207496
H6    H     H_    0.746498 0.390558 0.355996 0.123573
H7    H     H_    0.891393 0.998792 0.610707 0.207496
H8    H     H_    0.246498 0.890558 0.355997 0.123570
H9    H     H_    0.576484 0.585703 0.902129 0.155865
H10   H     H_    0.517023 0.515027 0.991465 0.129233
H11   H     H_    0.076484 0.085703 0.902129 0.155865
H12   H     H_    0.671467 0.866025 0.055652 0.035256
H13   H     H_    0.017023 0.015027 0.991465 0.129232
H14   H     H_    0.411649 0.440703 0.982051 0.221351
H15   H     H_    0.624770 0.391834 0.069110 0.217442
H16   H     H_    0.911649 0.940703 0.982052 0.221350
H17   H     H_    0.124770 0.891833 0.069110 0.217442
H18   H     H_    0.416139 0.963929 0.353532 0.124786
H19   H     H_    0.377341 0.057046 0.532538 0.094988
H20   H     H_    0.916139 0.463929 0.353532 0.124787
H21   H     H_    0.877341 0.557046 0.532538 0.094988
H22   H     H_    0.828324 0.290307 0.950044 0.053374
H23   H     H_    0.171467 0.366025 0.055652 0.035256
H24   H     H_    0.078460 0.564790 0.578055 0.201560
H25   H     H_    0.762192 0.886699 0.465291 0.070530
H26   H     H_    0.578460 0.064790 0.578056 0.201560
H27   H     H_    0.262191 0.386698 0.465288 0.070528
H28   H     H_    0.412652 0.661972 0.433404 0.161206
O1    O     O_R   0.214270 0.709000 0.827470 -0.408200
O2    O     O_R   0.543270 0.717630 0.330160 -0.425393
O3    O     O_R   0.956730 0.217630 0.669840 -0.466405
O4    O     O_R   0.043270 0.217630 0.330160 -0.425393
O5    O     O_R   0.320620 0.625640 0.672920 -0.534342
O6    O     O_R   0.679380 0.625640 0.327080 -0.455765
O7    O     O_R   0.820620 0.125640 0.672920 -0.534341
O8    O     O_R   0.179380 0.125640 0.327080 -0.455765
O9    O     O_3   0.334280 0.834290 0.749180 -0.387857
O10   O     O_3   0.665720 0.834290 0.250820 -0.388883
O11   O     O_3   0.834280 0.334290 0.749180 -0.387857
O12   O     O_R   0.785730 0.709000 0.172530 -0.428129
O13   O     O_3   0.165720 0.334290 0.250820 -0.388883
O14   O     O_R   0.236160 0.958490 0.823130 -0.454634
O15   O     O_R   0.763840 0.958490 0.176870 -0.443740
O16   O     O_R   0.736160 0.458490 0.823130 -0.454634
O17   O     O_R   0.263840 0.458490 0.176870 -0.443740
O18   O     O_R   0.332080 0.075470 0.831280 -0.426498
O19   O     O_R   0.667920 0.075470 0.168720 -0.456554
O20   O     O_R   0.832080 0.575470 0.831280 -0.426498
O21   O     O_R   0.167920 0.575470 0.168720 -0.456554
O22   O     O_R   0.446300 0.918110 0.826620 -0.424202
O23   O     O_R   0.714270 0.209000 0.827470 -0.408200
O24   O     O_R   0.553700 0.918110 0.173380 -0.438037
O25   O     O_R   0.946300 0.418110 0.826620 -0.424202
O26   O     O_R   0.053700 0.418110 0.173380 -0.438037
O27   O     O_R   0.457110 0.716200 0.831760 -0.445458
O28   O     O_R   0.542890 0.716200 0.168240 -0.405242
O29   O     O_R   0.957110 0.216200 0.831760 -0.445459
O30   O     O_R   0.042890 0.216200 0.168240 -0.405242
O31   O     O_R   0.320980 0.624310 0.823030 -0.458853
O32   O     O_R   0.679020 0.624310 0.176970 -0.505442
O33   O     O_R   0.820980 0.124310 0.823030 -0.458853
O34   O     O_R   0.285730 0.209000 0.172530 -0.428129
O35   O     O_R   0.179020 0.124310 0.176970 -0.505442
O36   O     O_R   0.213890 0.710430 0.665540 -0.472085
O37   O     O_R   0.786110 0.710430 0.334460 -0.467462
O38   O     O_R   0.713890 0.210430 0.665540 -0.472085
O39   O     O_R   0.286110 0.210430 0.334460 -0.467464
O40   O     O_R   0.235810 0.959820 0.673020 -0.481324
O41   O     O_R   0.764190 0.959820 0.326980 -0.465718
O42   O     O_R   0.735810 0.459820 0.673020 -0.481324
O43   O     O_R   0.264190 0.459820 0.326980 -0.465717
O44   O     O_R   0.331700 0.076900 0.669350 -0.443808
O45   O     O_R   0.445950 0.919440 0.676520 -0.471385
O46   O     O_R   0.668300 0.076900 0.330650 -0.430545
O47   O     O_R   0.831700 0.576900 0.669350 -0.443807
O48   O     O_R   0.168300 0.576900 0.330650 -0.430546
O49   O     O_2   0.325828 0.794593 0.055318 -0.408646
O50   O     O_2   0.679711 0.862486 0.950980 -0.430486
O51   O     O_2   0.825828 0.294594 0.055318 -0.408646
O52   O     O_2   0.179711 0.362486 0.950980 -0.430486
O53   O     O_2   0.141760 0.484976 0.648070 -0.398400
O54   O     O_2   0.856577 0.825828 0.437062 -0.336815
O55   O     O_2   0.641760 0.984975 0.648070 -0.398400
O56   O     O_R   0.554050 0.919440 0.323480 -0.468671
O57   O     O_2   0.356577 0.325829 0.437064 -0.336815
O58   O     O_2   0.354516 0.654988 0.346442 -0.460713
O59   O     O_2   0.634135 0.386218 0.587347 -0.330193
O60   O     O_2   0.854515 0.154993 0.346442 -0.460718
O61   O     O_2   0.134135 0.886218 0.587347 -0.330193
O62   O     O_2   0.435268 0.514909 0.519038 -0.393591
O63   O     O_2   0.659976 0.347295 0.404500 -0.365576
O64   O     O_2   0.935268 0.014907 0.519038 -0.393591
O65   O     O_2   0.159976 0.847296 0.404500 -0.365575
O66   O     O_2   0.610602 0.731025 0.856730 -0.353600
O67   O     O_R   0.945950 0.419440 0.676520 -0.471384
O68   O     O_2   0.525398 0.535935 0.094800 -0.393316
O69   O     O_2   0.110602 0.231025 0.856730 -0.353599
O70   O     O_2   0.025398 0.035935 0.094800 -0.393315
O71   O     O_2   0.409309 0.521751 0.890835 -0.445052
O72   O     O_2   0.700678 0.387537 0.142233 -0.409373
O73   O     O_2   0.909308 0.021749 0.890835 -0.445050
O74   O     O_2   0.200678 0.887537 0.142233 -0.409373
O75   O     O_2   0.429118 0.107290 0.413975 -0.372711
O76   O     O_2   0.454969 0.108139 0.596055 -0.391158
O77   O     O_2   0.929118 0.607291 0.413975 -0.372710
O78   O     O_R   0.054050 0.419440 0.323480 -0.468671
O79   O     O_2   0.954969 0.608139 0.596055 -0.391158
O80   O     O_R   0.456730 0.717630 0.669840 -0.466405

loop_
_geom_bond_atom_site_label_1
_geom_bond_atom_site_label_2
_ccdc_geom_bond_type
C70   C127  S    
C34   C118  A    
C31   C66   S    
C79   C83   A    
C6    H22   S    
C119  Cl21  S    
C71   O29   A    
C87   C91   A    
C62   C112  S    
C97   C114  S    
Cr1   O36   S    
C17   C91   S    
Cr2   O32   S    
C6    C124  S    
C3    C120  S    
C80   C84   A    
C61   C109  S    
Cr6   O38   S    
C114  O37   A    
Cr5   O37   S    
Cr12  O5    S    
C100  O1    A    
C8    H24   S    
C103  O34   A    
C16   C90   S    
Cr9   O19   S    
C11   O57   D    
C75   C79   A    
C29   H17   S    
C62   C67   A    
Cr9   O46   S    
C117  Cl20  S    
C64   C68   A    
C7    H23   S    
Cr4   O4    S    
C78   Cl1   S    
C27   H15   S    
C38   C63   S    
C109  O80   A    
C117  C119  S    
C116  O8    A    
C25   H13   S    
C21   O66   D    
C104  O40   A    
C23   H11   S    
C8    O53   D    
C23   O69   D    
C103  O35   A    
C49   C54   A    
C55   C103  S    
C75   C97   A    
C51   C118  A    
C12   O58   D    
C56   C57   A    
C96   C128  S    
Cr4   O30   S    
C42   C46   A    
C22   C85   S    
C37   C42   A    
C43   Cl5   S    
C24   C29   S    
C112  O4    A    
C115  O38   A    
C20   C94   S    
C11   C77   S    
C22   H10   S    
C10   C76   S    
C61   C66   A    
C88   C92   A    
C53   C101  S    
C81   Cl19  S    
Cr5   O15   S    
C7    O52   D    
C110  O2    A    
C73   C78   A    
C64   C111  S    
C13   C28   S    
C90   C94   A    
C2    C27   S    
C82   C108  S    
C5    O50   D    
C14   H2    S    
C43   C47   A    
C1    C42   S    
C81   C86   A    
C19   C93   S    
C50   Cl13  S    
C20   O65   D    
C124  C128  S    
C56   Cl14  S    
C25   O70   D    
C80   Cl18  S    
C83   C88   A    
Cr12  O80   S    
C108  O43   A    
C72   O30   A    
C34   C38   A    
C33   O79   D    
C44   Cl6   S    
Cr6   O11   S    
C30   H18   S    
C15   H3    S    
C32   O77   D    
Cr4   O8    S    
Cr7   O43   S    
C107  C124  S    
C63   O17   A    
Cr5   O10   S    
Cr3   O11   S    
C95   C113  S    
C111  O67   A    
Cr2   O10   S    
C17   H5    S    
C32   H20   S    
C23   C96   S    
Cr7   O13   S    
Cr1   O9    S    
C26   H14   S    
C58   C64   A    
C48   C53   A    
C12   H28   S    
C17   O62   D    
C45   Cl7   S    
Cr8   O45   S    
C57   Cl15  S    
Cr11  O78   S    
C4    C122  S    
C67   C68   A    
C2    C53   A    
C108  O48   A    
Cr9   O10   S    
C36   C40   A    
C60   C110  S    
C18   C92   S    
Cr9   O56   S    
C86   C90   A    
C36   Cl3   S    
C112  O78   A    
C99   C116  S    
Cr7   O34   S    
C2    C35   A    
C34   Cl24  S    
C57   C60   A    
C47   C51   A    
C26   O71   D    
C100  O31   A    
C22   O68   D    
C58   C59   A    
C115  O7    A    
C21   C74   S    
Cr11  O13   S    
C102  O33   A    
C70   O28   A    
C28   O73   D    
C121  Cl23  S    
C39   C52   S    
C24   C55   A    
Cr7   O39   S    
C122  C126  S    
C77   C99   A    
C35   C39   A    
C117  C122  S    
C119  C126  S    
C121  C125  S    
C1    O14   A    
Cr6   O16   S    
C63   O21   A    
C28   H16   S    
C16   O61   D    
C78   C82   A    
C123  C127  S    
C45   C49   A    
C77   C81   A    
C105  O46   A    
Cr8   O22   S    
C47   Cl9   S    
C24   C37   A    
C86   C104  S    
Cr1   O1    S    
C85   C122  S    
Cr1   O40   S    
Cr5   O12   S    
C10   H26   S    
C7    C125  S    
Cr4   O13   S    
C117  C127  S    
C35   Cl2   S    
C69   O27   A    
Cr8   O18   S    
C121  C128  S    
C32   C67   S    
C59   Cl17  S    
Cr12  O27   S    
Cr4   O35   S    
C40   C41   S    
C20   H8    S    
C96   C107  S    
C69   C126  S    
C65   C66   A    
C21   H9    S    
C106  O47   A    
C49   Cl11  S    
C116  O39   A    
Cr8   O44   S    
C5    H12   S    
C82   C87   A    
C6    O51   D    
C85   C127  S    
C84   C105  S    
C84   C89   A    
C73   C95   A    
Cr2   O28   S    
C102  O23   A    
C4    O49   D    
Cr8   O9    S    
C72   O26   A    
C120  C121  S    
C25   C107  S    
C13   C54   A    
C110  O56   A    
C51   C100  S    
C29   O74   D    
C46   C50   A    
Cr3   O33   S    
C59   C62   A    
C79   Cl12  S    
C106  O42   A    
C12   C87   S    
C31   H19   S    
C1    O18   A    
C52   O16   A    
C105  O41   A    
C54   C102  S    
C69   O22   A    
C26   C118  S    
C19   H7    S    
C30   O75   D    
C101  O12   A    
C71   O25   A    
C13   C36   A    
Cr10  O67   S    
C76   C80   A    
C3    C125  S    
C39   C44   A    
C14   O59   D    
C119  C123  S    
C18   O63   D    
C15   C89   S    
C60   C65   A    
C5    C123  S    
C120  Cl22  S    
C50   C55   A    
Cr7   O17   S    
C83   C106  S    
C48   Cl10  S    
Cr10  O11   S    
C9    H25   S    
C3    C107  S    
C37   Cl4   S    
C3    C72   S    
Cr6   O23   S    
C14   C88   S    
C38   C43   A    
Cr6   O42   S    
C101  O32   A    
Cr10  O47   S    
Cr11  O21   S    
Cr12  O31   S    
Cr5   O41   S    
C98   C115  S    
C74   C126  S    
Cr10  O20   S    
C94   C99   A    
C16   H4    S    
Cr2   O6    S    
C27   O72   D    
C8    C73   S    
C120  C124  S    
C96   C125  S    
C74   C123  S    
C76   C98   A    
C11   H27   S    
C70   O24   A    
C74   C85   S    
C89   C93   A    
C15   O60   D    
C71   C128  S    
Cr3   O7    S    
C10   O55   D    
Cr10  O25   S    
C30   C65   S    
Cr3   O3    S    
Cr12  O9    S    
C46   Cl8   S    
Cr1   O14   S    
C41   O19   A    
Cr11  O26   S    
C58   Cl16  S    
C19   O64   D    
C104  O44   A    
C92   C97   A    
C40   C45   A    
C33   C68   S    
C91   C95   A    
C113  O36   A    
C109  O45   A    
C114  O6    A    
C18   H6    S    
C52   O20   A    
Cr3   O29   S    
C113  O5    A    
C56   C61   A    
C33   H21   S    
C41   O15   A    
C9    C75   S    
C4    H1    S    
Cr9   O24   S    
C31   O76   D    
C93   C98   A    
C9    O54   D    
Cr11  O48   S    
C44   C48   A    
Cr2   O2    S    
C111  O3    A    
