data_mof_unit_35519.cif
_audit_creation_date              2012-10-26T19:40:42-0400
_audit_creation_method            fapswitch 2.2
_symmetry_space_group_name_H-M    P1
_symmetry_Int_Tables_number       1
_space_group_crystal_system       triclinic
_cell_length_a                    9.85609
_cell_length_b                    10.966116
_cell_length_c                    13.534018
_cell_angle_alpha                 88.448635
_cell_angle_beta                  74.577194
_cell_angle_gamma                 90.101963
_cell_volume                      1409.54366218

loop_
_atom_site_label
_atom_site_type_symbol
_atom_type_description
_atom_site_fract_x
_atom_site_fract_y
_atom_site_fract_z
_atom_type_partial_charge
C1    C     C_R   0.501080 0.733906 0.499110 0.569882
C2    C     C_R   0.378703 0.457194 0.811812 -0.001822
C3    C     C_2   0.617511 0.064523 0.480625 0.196705
C4    C     C_R   0.424832 0.485502 0.698666 0.526476
C5    C     C_2   0.508422 0.136174 0.472672 0.168880
C6    C     C_2   0.617946 0.933729 0.462339 0.275128
C7    C     C_2   0.502353 0.865384 0.504723 -0.045226
C8    C     C_2   0.068229 0.594282 0.509397 0.400205
C9    C     C_2   0.911247 0.580639 0.541439 0.408070
C10   C     C_R   0.502077 0.266004 0.494739 0.571691
C11   C     C_R   0.573768 0.500310 0.301278 0.559363
C12   C     C_R   0.428279 0.459510 0.979792 0.028257
C13   C     C_R   0.764859 0.552983 0.019977 0.021265
C14   C     C_R   0.608042 0.502623 0.188598 -0.011415
C15   C     C_R   0.233908 0.446013 0.862648 0.044493
C16   C     C_R   0.187279 0.452665 0.969084 -0.065869
C17   C     C_R   0.283292 0.469465 0.026292 -0.041232
C18   C     C_2   0.819702 0.636226 0.175264 0.662315
C19   C     C_2   0.873641 0.633708 0.951065 0.639801
C20   C     C_2   0.131611 0.417058 0.805859 0.659881
C21   C     C_2   0.642431 0.306605 0.753402 0.663538
C22   C     C_R   0.475318 0.443871 0.872073 -0.029745
C23   C     C_R   0.531071 0.471848 0.034719 0.002919
C24   C     C_R   0.670000 0.490783 0.977493 -0.006929
C25   C     C_R   0.712810 0.423929 0.888374 0.229160
C26   C     C_R   0.614213 0.401426 0.832406 0.076175
C27   C     C_R   0.507147 0.456592 0.141014 0.208892
C28   C     C_R   0.732082 0.560580 0.127662 -0.014414
Cl1   Cl    Cl    0.374883 0.082713 0.418074 -0.384629
Cl2   Cl    Cl    0.779286 0.872062 0.391313 -0.328131
Cl3   Cl    Cl    0.130548 0.741753 0.466359 -0.386370
Cl4   Cl    Cl    0.080498 0.363076 0.557967 -0.271187
Cl5   Cl    Cl    0.814294 0.678813 0.634207 -0.424838
Cl6   Cl    Cl    0.940679 0.434412 0.388206 -0.305758
Cl7   Cl    Cl    0.836914 0.310529 0.893138 -0.453717
Cl8   Cl    Cl    0.377077 0.348840 0.206959 -0.419081
Cl9   Cl    Cl    0.769386 0.118255 0.513367 -0.319470
Cu1   Cu    Cu3+1 0.361370 0.499980 0.499980 1.254804
Cu2   Cu    Cu3+1 0.638630 0.500020 0.500020 1.243072
H1    H     H_    0.406532 0.906821 0.549608 0.143051
H2    H     H_    0.242707 0.488737 0.106555 0.211000
H3    H     H_    0.075993 0.447003 0.007704 0.203259
H4    H     H_    0.998974 0.653188 0.218738 0.381645
H5    H     H_    0.059330 0.723607 0.924346 0.374937
H6    H     H_    0.984458 0.480676 0.738957 0.380680
H7    H     H_    0.565774 0.162497 0.694504 0.360701
N1    N     N_2   0.152660 0.501340 0.501130 -0.070377
N2    N     N_2   0.846520 0.501370 0.501160 -0.051553
O1    O     O_R   0.382960 0.678040 0.499980 -0.474107
O2    O     O_R   0.948188 0.592316 0.185832 -0.620442
O3    O     O_2   0.853275 0.674701 0.871300 -0.402620
O4    O     O_R   0.995376 0.667987 0.978007 -0.663490
O5    O     O_2   0.129459 0.314622 0.772796 -0.360925
O6    O     O_R   0.049443 0.509784 0.780213 -0.636882
O7    O     O_2   0.759767 0.297121 0.694874 -0.365974
O8    O     O_R   0.534020 0.226833 0.747705 -0.670473
O9    O     O_R   0.617100 0.678080 0.500020 -0.448613
O10   O     O_R   0.325800 0.499940 0.650950 -0.486125
O11   O     O_R   0.559930 0.499980 0.650990 -0.504445
O12   O     O_R   0.382900 0.321920 0.499980 -0.406469
O13   O     O_R   0.617040 0.321960 0.500020 -0.458709
O14   O     O_R   0.440070 0.500020 0.349010 -0.459224
O15   O     O_R   0.674200 0.500060 0.349050 -0.460925
O16   O     O_2   0.780136 0.738092 0.203220 -0.415059

loop_
_geom_bond_atom_site_label_1
_geom_bond_atom_site_label_2
_ccdc_geom_bond_type
C12   C17   A    
C2    C22   A    
C21   O8    S    
C10   O12   A    
C23   C24   A    
C13   C28   A    
C6    C7    D    
C1    O9    A    
C14   C27   A    
Cu2   O15   S    
Cu2   N2    S    
C2    C4    S    
C7    H1    S    
C3    C6    S    
Cu2   O11   S    
C11   O14   A    
C8    C9    S    
C8    N1    D    
C18   C28   S    
C5    C10   S    
H4    O2    S    
Cu1   O1    S    
Cu1   O10   S    
C9    Cl5   S    
C2    C15   A    
C12   C23   A    
H5    O4    S    
Cu1   N1    S    
Cu1   Cu2   S    
C25   Cl7   S    
Cu1   O12   S    
C13   C24   A    
C4    O11   A    
C6    Cl2   S    
C21   C26   S    
H6    O6    S    
C11   O15   A    
C23   C27   A    
C15   C20   S    
C27   Cl8   S    
Cl4   N1    S    
C17   H2    S    
C10   O13   A    
Cl6   N2    S    
C13   C19   S    
C4    O10   A    
C15   C16   A    
C18   O16   D    
C5    Cl1   S    
C19   O3    D    
Cu2   O13   S    
C12   C22   A    
C24   C25   A    
C18   O2    S    
C9    N2    D    
C20   O6    S    
C22   C26   A    
H7    O8    S    
C11   C14   S    
C21   O7    D    
C16   C17   A    
C3    C5    D    
C14   C28   A    
C25   C26   A    
C1    C7    S    
C8    Cl3   S    
C1    O1    A    
C19   O4    S    
C16   H3    S    
C3    Cl9   S    
C20   O5    D    
Cu1   O14   S    
Cu2   O9    S    
