data_mof_unit_65409.cif
_audit_creation_date              2012-10-26T20:52:21-0400
_audit_creation_method            fapswitch 2.2
_symmetry_space_group_name_H-M    P1
_symmetry_Int_Tables_number       1
_space_group_crystal_system       triclinic
_cell_length_a                    15.995859
_cell_length_b                    14.757764
_cell_length_c                    10.960401
_cell_angle_alpha                 90.000616
_cell_angle_beta                  90.048292
_cell_angle_gamma                 89.996605
_cell_volume                      2587.3454462

loop_
_atom_site_label
_atom_site_type_symbol
_atom_type_description
_atom_site_fract_x
_atom_site_fract_y
_atom_site_fract_z
_atom_type_partial_charge
C1    C     C_R   0.340832 0.499972 0.500075 0.557391
C2    C     C_1   0.500000 0.197274 0.499999 0.197761
C3    C     C_R   0.501286 0.499691 0.264609 0.578931
C4    C     C_R   0.498676 0.499697 0.735381 0.579451
C5    C     C_2   0.486434 0.426855 0.936310 0.249114
C6    C     C_2   0.512949 0.426721 0.063612 0.248786
C7    C     C_2   0.507588 0.498467 0.866692 -0.136273
C8    C     C_2   0.492260 0.498472 0.133300 -0.136551
C9    C     C_R   0.956363 0.566293 0.434698 -0.097658
C10   C     C_R   0.043609 0.566314 0.434814 -0.100504
C11   C     C_R   0.912790 0.499802 0.499833 0.039327
C12   C     C_R   0.659169 0.499966 0.499934 0.556822
C13   C     C_R   0.087214 0.499846 0.500067 0.038073
C14   C     C_R   0.956394 0.433320 0.565071 -0.096962
C15   C     C_R   0.043644 0.433342 0.565189 -0.094204
C16   C     C_1   0.823335 0.499849 0.499812 -0.039633
C17   C     C_1   0.176668 0.499883 0.500158 -0.039852
C18   C     C_1   0.251713 0.499935 0.500155 0.006663
C19   C     C_1   0.748288 0.499915 0.499844 0.006163
C20   C     C_R   0.498909 0.952143 0.610079 -0.107071
C21   C     C_R   0.501091 0.952136 0.389922 -0.107386
C22   C     C_R   0.500000 0.902906 0.500001 0.003438
C23   C     C_R   0.501097 0.047955 0.389919 -0.099589
C24   C     C_R   0.498903 0.047962 0.610082 -0.099987
C25   C     C_R   0.500000 0.097168 0.499999 -0.000377
C26   C     C_1   0.500000 0.802750 0.500001 0.132213
Cu1   Cu    Cu3+1 0.500000 0.589220 0.500000 1.006296
Cu2   Cu    Cu3+1 0.500000 0.410780 0.500000 1.158302
H1    H     H_    0.540105 0.555867 0.907001 0.056056
H2    H     H_    0.501942 0.916434 0.303590 0.119605
H3    H     H_    0.347896 0.232119 0.973183 0.363799
H4    H     H_    0.649379 0.230312 0.026254 0.363969
H5    H     H_    0.460053 0.556096 0.093035 0.056184
H6    H     H_    0.076989 0.617971 0.384230 0.119163
H7    H     H_    0.922959 0.617941 0.384040 0.120777
H8    H     H_    0.923010 0.381672 0.615667 0.126607
H9    H     H_    0.077053 0.381706 0.615863 0.132265
H10   H     H_    0.498043 0.083673 0.696411 0.157215
H11   H     H_    0.501958 0.083658 0.303588 0.157467
H12   H     H_    0.498058 0.916449 0.696412 0.119874
N1    N     N_1   0.500000 0.276710 0.500000 -0.148078
N2    N     N_1   0.500000 0.723290 0.500000 -0.192765
O1    O     O_R   0.380310 0.575320 0.500020 -0.502587
O2    O     O_2   0.475130 0.268025 0.817761 -0.248561
O3    O     O_3   0.379176 0.284178 0.007432 -0.484014
O4    O     O_2   0.644795 0.368958 0.195646 -0.292746
O5    O     O_2   0.523273 0.267808 0.182083 -0.248731
O6    O     O_3   0.619173 0.283185 0.992229 -0.484945
O7    O     O_R   0.619690 0.575320 0.499980 -0.502652
O8    O     O_R   0.380310 0.424640 0.499970 -0.477465
O9    O     O_R   0.619690 0.424640 0.500030 -0.477872
O10   O     O_R   0.500000 0.575320 0.321940 -0.511443
O11   O     O_R   0.500000 0.575320 0.678060 -0.510804
O12   O     O_R   0.500000 0.424640 0.321880 -0.425201
O13   O     O_R   0.500000 0.424640 0.678120 -0.425791
O14   O     O_2   0.354337 0.370188 0.803981 -0.296241
S1    S     S_3+6 0.422582 0.335514 0.886043 0.066712
S2    S     S_3+6 0.576231 0.334863 0.113715 0.067519

loop_
_geom_bond_atom_site_label_1
_geom_bond_atom_site_label_2
_ccdc_geom_bond_type
C24   H10   S    
C3    O10   A    
Cu1   O11   S    
O6    S2    S    
C7    H1    S    
C13   C17   S    
C4    O11   A    
H4    O6    S    
C21   H2    S    
C6    S2    S    
C5    S1    S    
O2    S1    D    
C20   C24   A    
C13   C15   A    
C12   O7    A    
C10   H6    S    
C21   C22   A    
O4    S2    D    
O5    S2    D    
C9    C11   A    
Cu1   N2    S    
O3    S1    S    
C1    C18   S    
C3    O12   A    
C4    C7    S    
C23   H11   S    
C6    C8    D    
C9    C10   A    
Cu2   O9    S    
Cu2   O13   S    
C20   C22   A    
C17   C18   T    
C2    C25   S    
C8    H5    S    
C23   C25   A    
C21   C23   A    
C14   H8    S    
C5    C6    S    
C20   H12   S    
C11   C14   A    
C11   C16   S    
O14   S1    D    
C2    N1    T    
H3    O3    S    
Cu1   O1    S    
Cu2   N1    S    
Cu1   Cu2   S    
C12   O9    A    
C24   C25   A    
C26   N2    T    
C5    C7    D    
C3    C8    S    
C1    O8    A    
C4    O13   A    
C9    H7    S    
Cu2   O12   S    
C14   C15   A    
C15   H9    S    
C22   C26   S    
C12   C19   S    
Cu2   O8    S    
Cu1   O10   S    
C1    O1    A    
Cu1   O7    S    
C10   C13   A    
C16   C19   T    
