data_mof_unit_48737.cif
_audit_creation_date              2013-03-05T16:47:47-0500
_audit_creation_method            fapswitch 2.2
_symmetry_space_group_name_H-M    P1
_symmetry_Int_Tables_number       1
_space_group_crystal_system       triclinic
_cell_length_a                    15.796154
_cell_length_b                    8.933309
_cell_length_c                    8.114423
_cell_angle_alpha                 89.967754
_cell_angle_beta                  90.023461
_cell_angle_gamma                 89.965742
_cell_volume                      1145.04136514

loop_
_atom_site_label
_atom_site_type_symbol
_atom_site_description
_atom_site_fract_x
_atom_site_fract_y
_atom_site_fract_z
_atom_type_partial_charge
O1    O     O_R   0.500000 0.285340 0.636850 -0.612737
O2    O     O_R   0.500000 0.714660 0.363150 -0.612737
O3    O     O_R   0.500000 0.285340 0.363150 -0.611952
O4    O     O_R   0.500000 0.714660 0.636850 -0.611952
C1    C     C_1   0.500002 0.065185 0.500045 -0.141490
C2    C     C_1   0.499998 0.934815 0.499955 -0.141491
C3    C     C_R   0.500005 0.218010 0.500030 0.940619
C4    C     C_R   0.499995 0.781990 0.499970 0.940619
O5    O     O_R   0.376770 0.500000 0.636850 -0.613761
O6    O     O_R   0.623230 0.500000 0.363150 -0.613761
O7    O     O_R   0.376780 0.500000 0.363100 -0.601276
O8    O     O_R   0.623220 0.500000 0.636900 -0.601276
C5    C     C_R   0.337613 0.500107 0.499937 0.896336
C6    C     C_R   0.662387 0.499893 0.500063 0.896338
Zn1   Zn    Zn3+2 0.499990 0.500000 0.682780 1.045710
Zn2   Zn    Zn3+2 0.500010 0.500000 0.317220 1.045710
N1    N     N_1   0.500010 0.500000 0.073640 -0.012179
N2    N     N_1   0.499990 0.500000 0.926360 -0.012179
C7    C     C_3   0.972891 0.366828 0.547698 0.248760
C8    C     C_3   0.027109 0.633172 0.452301 0.248760
C9    C     C_3   0.027522 0.397007 0.395977 0.242944
C10   C     C_3   0.972478 0.602993 0.604023 0.242944
H1    H     H_    0.946974 0.555160 0.219101 0.227717
H2    H     H_    0.053026 0.444840 0.780899 0.227717
C11   C     C_1   0.249175 0.500422 0.499833 -0.082893
C12   C     C_1   0.750825 0.499578 0.500167 -0.082892
C13   C     C_3   0.029401 0.469585 0.654897 -0.347332
C14   C     C_3   0.970599 0.530415 0.345103 -0.347332
C15   C     C_3   0.083846 0.500497 0.499494 -0.106055
C16   C     C_3   0.916154 0.499503 0.500506 -0.106055
C17   C     C_1   0.174275 0.500614 0.499629 0.168756
C18   C     C_1   0.825725 0.499386 0.500371 0.168756
N3    N     N_R   0.055882 0.281069 0.282372 0.256442
O9    O     O_R   0.000452 0.203567 0.200204 -0.265005
O10   O     O_R   0.136157 0.255571 0.260595 -0.331885
N4    N     N_R   0.944118 0.718931 0.717628 0.256442
O11   O     O_R   0.999548 0.796433 0.799796 -0.265005
O12   O     O_R   0.863843 0.744429 0.739405 -0.331885
N5    N     N_R   0.945090 0.218235 0.598177 0.265438
O13   O     O_R   0.000925 0.117632 0.638316 -0.236771
O14   O     O_R   0.864963 0.185724 0.605482 -0.329388
N6    N     N_R   0.054910 0.781765 0.401823 0.265438
O15   O     O_R   0.999075 0.882368 0.361684 -0.236771
O16   O     O_R   0.135037 0.814276 0.394518 -0.329388

loop_
_geom_bond_atom_site_label_1
_geom_bond_atom_site_label_2
_geom_bond_distance
_ccdc_geom_bond_type
C11   C17   1.183142 T    
Zn1   N2    1.976511 S    
C8    N6    1.457029 S    
O8    Zn1   1.981993 S    
C12   C18   1.183142 T    
O1    Zn1   1.953712 S    
C10   C16   1.533981 S    
O2    Zn2   1.953712 S    
C13   C15   1.551390 S    
C7    C13   1.548332 S    
O7    Zn2   1.981990 S    
C10   C13   1.548254 S    
H2    C13   1.110329 S    
O4    C4    1.262810 A    
O4    Zn1   1.953300 S    
N4    O12   1.300342 A    
N3    O9    1.300510 A    
O5    Zn1   1.981611 S    
N5    O14   1.300129 A    
O6    Zn2   1.981614 S    
H1    C14   1.110329 S    
C6    C12   1.396977 S    
C16   C18   1.428427 S    
O7    C5    1.271309 A    
C5    C11   1.396977 S    
N6    O16   1.300129 A    
C7    N5    1.457029 S    
C14   C16   1.551390 S    
N4    O11   1.300510 A    
C7    C9    1.527693 S    
C9    C14   1.548255 S    
O8    C6    1.271308 A    
N1    N2    1.195091 T    
O3    C3    1.262810 A    
C8    C15   1.533807 S    
C1    C2    1.164633 T    
C9    N3    1.457405 S    
N6    O15   1.300061 A    
C10   N4    1.457406 S    
C15   C17   1.428427 S    
O6    C6    1.271326 A    
N5    O13   1.300061 A    
C1    C3    1.365233 S    
O5    C5    1.271327 A    
C2    C4    1.365233 S    
C8    C14   1.548332 S    
N3    O10   1.300342 A    
O1    C3    1.262974 A    
C7    C16   1.533807 S    
C9    C15   1.533980 S    
O2    C4    1.262974 A    
O3    Zn2   1.953301 S    
C8    C10   1.527692 S    
Zn2   N1    1.976511 S    
