data_mof_unit_19176.cif
_audit_creation_date              2013-03-05T16:35:37-0500
_audit_creation_method            fapswitch 2.2
_symmetry_space_group_name_H-M    P1
_symmetry_Int_Tables_number       1
_space_group_crystal_system       triclinic
_cell_length_a                    7.778051
_cell_length_b                    9.096603
_cell_length_c                    17.249108
_cell_angle_alpha                 90.009808
_cell_angle_beta                  86.417374
_cell_angle_gamma                 89.992005
_cell_volume                      1218.05555203

loop_
_atom_site_label
_atom_site_type_symbol
_atom_site_description
_atom_site_fract_x
_atom_site_fract_y
_atom_site_fract_z
_atom_type_partial_charge
O1    O     O_R   0.357240 0.711600 0.500000 -0.575694
O2    O     O_R   0.642760 0.288400 0.500000 -0.575694
O3    O     O_R   0.642760 0.711600 0.500000 -0.577585
O4    O     O_R   0.357240 0.288400 0.500000 -0.577586
C1    C     C_R   0.499994 0.780003 0.499992 0.849016
C2    C     C_R   0.500006 0.219997 0.500008 0.849016
O5    O     O_R   0.340660 0.500000 0.613590 -0.587484
O6    O     O_R   0.659340 0.500000 0.386410 -0.587481
O7    O     O_R   0.626230 0.500000 0.613600 -0.587656
O8    O     O_R   0.373770 0.500000 0.386400 -0.587655
C3    C     C_R   0.478575 0.503807 0.650559 0.796660
C4    C     C_R   0.521424 0.496193 0.349441 0.796658
Cu1   Cu    Cu3+1 0.330920 0.500000 0.500000 0.998854
Cu2   Cu    Cu3+1 0.669080 0.500000 0.500000 0.998855
H1    H     H_    0.272063 0.390231 0.120640 0.148250
H2    H     H_    0.727940 0.609678 0.879371 0.148241
N1    N     N_1   0.923170 0.500000 0.500010 -0.052959
N2    N     N_1   0.076830 0.500000 0.499990 -0.052960
C5    C     C_R   0.469643 0.519473 0.735125 -0.071048
C6    C     C_R   0.530352 0.480517 0.264875 -0.071056
C7    C     C_R   0.617743 0.561602 0.771869 -0.198846
C8    C     C_R   0.382261 0.438351 0.228135 -0.198846
C9    C     C_R   0.611799 0.578846 0.851750 -0.225357
C10   C     C_R   0.388197 0.421093 0.148255 -0.225374
C11   C     C_R   0.458779 0.551963 0.896266 0.175151
C12   C     C_R   0.541199 0.448002 0.103735 0.175188
C13   C     C_R   0.307490 0.512050 0.860296 0.203053
C14   C     C_R   0.692479 0.487952 0.139699 0.203088
C15   C     C_R   0.314228 0.496898 0.779325 -0.195000
C16   C     C_R   0.685751 0.503115 0.220671 -0.194997
C17   C     C_2   0.464174 0.556552 0.981046 0.127078
C18   C     C_2   0.535794 0.443401 0.018957 0.127070
C19   C     C_1   0.499991 0.934639 0.499998 -0.177298
C20   C     C_1   0.500009 0.065361 0.500002 -0.177298
H3    H     H_    0.738569 0.581690 0.738876 0.166576
H4    H     H_    0.261447 0.418243 0.261132 0.166583
H5    H     H_    0.800585 0.534597 0.249077 0.155971
H6    H     H_    0.199389 0.465442 0.750916 0.155972
C21   C     C_3   0.141379 0.482393 0.907382 -0.909816
H7    H     H_    0.036773 0.448870 0.870074 0.227841
H8    H     H_    0.160670 0.392602 0.949576 0.237779
H9    H     H_    0.099013 0.583225 0.939394 0.244441
C22   C     C_3   0.858574 0.517627 0.092608 -0.909991
H10   H     H_    0.963161 0.551155 0.129907 0.227879
H11   H     H_    0.900946 0.416815 0.060599 0.244468
H12   H     H_    0.839279 0.607401 0.050416 0.237797
C23   C     C_3   0.606099 0.307930 0.977232 -0.887108
H13   H     H_    0.650350 0.225556 0.019173 0.235972
H14   H     H_    0.504293 0.256244 0.943993 0.239946
H15   H     H_    0.717751 0.337512 0.937049 0.239275
C24   C     C_3   0.393844 0.692016 0.022774 -0.887048
H16   H     H_    0.349576 0.774378 0.980831 0.235963
H17   H     H_    0.282192 0.662420 0.062961 0.239262
H18   H     H_    0.495647 0.743728 0.056012 0.239937

loop_
_geom_bond_atom_site_label_1
_geom_bond_atom_site_label_2
_geom_bond_distance
_ccdc_geom_bond_type
C15   H6    1.083785 S    
C11   C17   1.466179 S    
C24   H17   1.109987 S    
O7    Cu2   1.967001 S    
C12   C18   1.466171 S    
C7    H3    1.083385 S    
C13   C15   1.401157 A    
C8    H4    1.083360 S    
C14   C22   1.506879 S    
C12   C14   1.411633 A    
C23   H13   1.111115 S    
O6    C4    1.282206 A    
C24   H18   1.110727 S    
C3    C5    1.462928 S    
H2    C9    1.084207 S    
C4    C6    1.462935 S    
C14   C16   1.401173 A    
C19   C20   1.189122 T    
C21   H8    1.110493 S    
C6    C16   1.403404 A    
Cu1   Cu2   2.630226 S    
O5    C3    1.282203 A    
C22   H11   1.109700 S    
Cu2   N1    1.976335 S    
O7    C3    1.278703 A    
O2    C2    1.272882 A    
O3    Cu2   1.935669 S    
O8    C4    1.278699 A    
Cu1   N2    1.976336 S    
C22   H10   1.110914 S    
O1    C1    1.272881 A    
O4    C2    1.272822 A    
H1    C10   1.084185 S    
C22   H12   1.110362 S    
C10   C12   1.397078 A    
N1    N2    1.195155 T    
C23   H15   1.109910 S    
C9    C11   1.397108 A    
C7    C9    1.384647 A    
O2    Cu2   1.935726 S    
C18   C23   1.511943 S    
C8    C10   1.384644 A    
C11   C13   1.411649 A    
C21   H7    1.111103 S    
C13   C21   1.506911 S    
C24   H16   1.111099 S    
C5    C15   1.403439 A    
O5    Cu1   1.965515 S    
O1    Cu1   1.935725 S    
C23   H14   1.110654 S    
C17   C24   1.511982 S    
O4    Cu1   1.935670 S    
C21   H9    1.109858 S    
O6    Cu2   1.965515 S    
C5    C7    1.402425 A    
C17   C18   1.357565 D    
C2    C20   1.406665 S    
C16   H5    1.083784 S    
C6    C8    1.402422 A    
O3    C1    1.272822 A    
O8    Cu1   1.967002 S    
C1    C19   1.406665 S    
