data_mof_unit_39641.cif
_audit_creation_date              2012-12-10T18:57:08-0500
_audit_creation_method            fapswitch 2.2
_symmetry_space_group_name_H-M    P1
_symmetry_Int_Tables_number       1
_space_group_crystal_system       triclinic
_cell_length_a                    8.754417
_cell_length_b                    10.872808
_cell_length_c                    9.556479
_cell_angle_alpha                 89.911656
_cell_angle_beta                  97.760885
_cell_angle_gamma                 90.375293
_cell_volume                      901.282816708

loop_
_atom_site_label
_atom_site_type_symbol
_atom_type_description
_atom_site_fract_x
_atom_site_fract_y
_atom_site_fract_z
_atom_type_partial_charge
C1    C     C_R   0.500336 0.262831 0.500019 0.842961
C2    C     C_R   0.516934 0.936884 0.372023 0.594655
C3    C     C_R   0.503607 0.870179 0.497536 -0.184912
C4    C     C_R   0.492455 0.937765 0.618812 -0.074425
C5    C     C_3   0.471233 0.927830 0.770615 -0.420721
C6    C     C_3   0.470343 0.069443 0.770915 0.518439
C7    C     C_R   0.567538 0.594440 0.081856 0.140939
C8    C     C_R   0.417636 0.415093 0.064038 0.702615
C9    C     C_R   0.417787 0.415205 0.915305 -0.005687
C10   C     C_R   0.569282 0.593494 0.934885 0.091597
C11   C     C_3   0.735248 0.630984 0.951948 0.471168
C12   C     C_R   0.204071 0.499102 0.464334 0.908128
C13   C     C_3   0.731621 0.634912 0.110005 -0.481823
C14   C     C_R   0.500904 0.737347 0.499647 0.822852
C15   C     C_R   0.795802 0.500202 0.536204 0.762937
C16   C     C_2   0.038611 0.495776 0.446227 -0.495258
C17   C     C_2   0.960997 0.502442 0.557534 0.467160
C18   C     C_R   0.491933 0.061705 0.619285 0.040895
C19   C     C_R   0.502926 0.130414 0.498711 -0.196161
C20   C     C_R   0.516642 0.065815 0.373182 -0.216907
Cu1   Cu    Cu3+1 0.499990 0.499980 0.640670 1.060630
Cu2   Cu    Cu3+1 0.500010 0.500020 0.359330 1.043940
N1    N     N_R   0.500980 0.500930 0.148050 -0.237655
N2    N     N_R   0.500990 0.500890 0.852140 -0.205428
O1    O     O_R   0.500000 0.319640 0.618810 -0.574592
O2    O     O_R   0.500020 0.319680 0.381230 -0.539999
O3    O     O_R   0.274830 0.499980 0.591380 -0.526186
O4    O     O_R   0.274850 0.500020 0.353800 -0.547429
O5    O     O_R   0.499980 0.680320 0.618770 -0.602031
O6    O     O_R   0.500000 0.680360 0.381190 -0.528000
O7    O     O_R   0.725150 0.499980 0.646200 -0.475835
O8    O     O_R   0.725170 0.500020 0.408620 -0.639274
H1    H     H_    0.979928 0.486153 0.339511 0.158387
H2    H     H_    0.353285 0.345415 0.851509 0.163410
F1    F     F_    0.829953 0.538014 0.916045 -0.560494
H3    H     H_    0.756227 0.721581 0.903950 0.078279
H4    H     H_    0.806778 0.565137 0.168200 0.229054
H5    H     H_    0.743975 0.729414 0.154400 0.210209
F2    F     F_    0.032772 0.512841 0.692766 -0.587312
H6    H     H_    0.526584 0.114306 0.275661 0.229788
F3    F     F_    0.529550 0.879216 0.248252 -0.658408
H7    H     H_    0.358197 0.886017 0.785006 0.176229
H8    H     H_    0.572999 0.887321 0.836122 0.218096
H9    H     H_    0.358821 0.110933 0.788393 0.071803
F4    F     F_    0.598424 0.119477 0.852300 -0.609678
F5    F     F_    0.335198 0.327806 0.122705 -0.635957

loop_
_geom_bond_atom_site_label_1
_geom_bond_atom_site_label_2
_ccdc_geom_bond_type
C8    C9    A    
C7    C10   A    
C5    H7    S    
C9    N2    A    
C15   O7    A    
C6    F4    S    
C16   H1    S    
C11   C13   S    
C13   H4    S    
C19   C20   A    
C4    C18   A    
C11   F1    S    
C2    C3    A    
Cu1   O3    S    
C15   O8    A    
Cu2   O4    S    
Cu1   Cu2   S    
C1    O1    A    
Cu1   O7    S    
C13   H5    S    
C9    H2    S    
C3    C14   S    
Cu2   O8    S    
C14   O6    A    
C7    N1    A    
C5    C6    S    
C12   O3    A    
C11   H3    S    
C12   O4    A    
C5    H8    S    
C1    O2    A    
C20   H6    S    
C6    C18   S    
C8    F5    S    
C1    C19   S    
C10   C11   S    
C2    F3    S    
C2    C20   A    
C3    C4    A    
C7    C13   S    
C8    N1    A    
C6    H9    S    
C18   C19   A    
Cu2   O2    S    
Cu1   N2    S    
C15   C17   S    
C17   F2    S    
Cu2   N1    S    
C4    C5    S    
Cu1   O1    S    
Cu2   O6    S    
C10   N2    A    
Cu1   O5    S    
C12   C16   S    
C14   O5    A    
C16   C17   D    
