data_mof_unit_16559.cif
_audit_creation_date              2012-12-11T17:09:34-0500
_audit_creation_method            fapswitch 2.2
_symmetry_space_group_name_H-M    P1
_symmetry_Int_Tables_number       1
_space_group_crystal_system       triclinic
_cell_length_a                    14.769491
_cell_length_b                    6.920324
_cell_length_c                    13.529022
_cell_angle_alpha                 89.999861
_cell_angle_beta                  99.823434
_cell_angle_gamma                 90.000159
_cell_volume                      1362.5224904

loop_
_atom_site_label
_atom_site_type_symbol
_atom_type_description
_atom_site_fract_x
_atom_site_fract_y
_atom_site_fract_z
_atom_type_partial_charge
O1    O     O_R   0.586930 0.505770 0.416350 -0.537617
O2    O     O_R   0.413070 0.005770 0.583650 -0.537616
O3    O     O_R   0.397900 0.173100 0.389630 -0.535054
O4    O     O_R   0.602100 0.673100 0.610370 -0.535057
C1    C     C_R   0.364193 0.345423 0.362897 0.726920
C2    C     C_R   0.635807 0.845423 0.637103 0.726911
O5    O     O_R   0.585280 0.175870 0.404330 -0.544749
O6    O     O_R   0.414720 0.675870 0.595670 -0.544752
O7    O     O_R   0.601790 0.008380 0.598460 -0.535362
O8    O     O_R   0.398210 0.508380 0.401540 -0.535366
C3    C     C_R   0.614629 0.344627 0.382795 0.706116
C4    C     C_R   0.385372 0.844626 0.617206 0.706114
O9    O     O_3   0.505200 0.340120 0.563670 -0.367598
O10   O     O_3   0.494800 0.840120 0.436330 -0.367596
V1    V     V_3+5 0.499040 0.064180 0.488190 1.416694
V2    V     V_3+5 0.500960 0.564180 0.511810 1.416683
C5    C     C_R   0.324259 0.991788 0.762703 0.033695
C6    C     C_R   0.675739 0.491785 0.237294 0.033685
C7    C     C_R   0.319163 0.851321 0.687727 -0.093171
C8    C     C_R   0.680838 0.351324 0.312274 -0.093172
C9    C     C_R   0.251495 0.706931 0.686740 -0.197230
C10   C     C_R   0.748507 0.206935 0.313264 -0.197210
H1    H     H_    0.246766 0.589534 0.633224 0.120963
H2    H     H_    0.753237 0.089541 0.366782 0.120961
C11   C     C_R   0.185419 0.719559 0.750763 -0.209311
C12   C     C_R   0.814582 0.219561 0.249240 -0.209322
H3    H     H_    0.132025 0.610874 0.744854 0.130079
H4    H     H_    0.867978 0.110878 0.255151 0.130077
C13   C     C_R   0.185791 0.875964 0.818071 -0.164448
C14   C     C_R   0.814208 0.375960 0.181928 -0.164443
C15   C     C_R   0.260872 0.002449 0.826915 0.107524
C16   C     C_R   0.739125 0.502440 0.173081 0.107520
C17   C     C_3   0.271491 0.216440 0.837968 0.275107
C18   C     C_3   0.728506 0.716427 0.162020 0.275104
C19   C     C_3   0.340092 0.204190 0.764757 -0.452470
C20   C     C_3   0.659910 0.704191 0.235236 -0.452392
H5    H     H_    0.206501 0.295887 0.810128 0.053067
H6    H     H_    0.793498 0.795873 0.189855 0.053037
H7    H     H_    0.411896 0.241635 0.798720 0.189901
H8    H     H_    0.588106 0.741643 0.201275 0.189915
H9    H     H_    0.314508 0.273110 0.691130 0.142576
H10   H     H_    0.685498 0.773116 0.308861 0.142560
C21   C     C_1   0.783628 0.877038 0.782697 -0.180243
C22   C     C_1   0.216371 0.377037 0.217303 -0.180271
C23   C     C_1   0.716360 0.860074 0.716606 -0.193087
C24   C     C_1   0.283640 0.360074 0.283394 -0.193071
O11   O     O_R   0.101720 0.231700 0.098560 -0.530757
O12   O     O_R   0.898280 0.731700 0.901440 -0.530764
O13   O     O_R   0.914700 0.558980 0.095690 -0.540185
O14   O     O_R   0.085300 0.058980 0.904310 -0.540178
C25   C     C_R   0.884629 0.389803 0.116394 0.706978
C26   C     C_R   0.115371 0.889804 0.883605 0.706997
O15   O     O_R   0.102080 0.561590 0.110390 -0.541455
O16   O     O_R   0.897920 0.061590 0.889610 -0.541459
O17   O     O_R   0.086950 0.728940 0.916330 -0.546450
O18   O     O_R   0.913050 0.228940 0.083670 -0.546462
C27   C     C_R   0.136087 0.391887 0.137495 0.745366
C28   C     C_R   0.863913 0.891887 0.862505 0.745322
O19   O     O_3   0.994770 0.394510 0.936380 -0.371905
O20   O     O_3   0.005230 0.894510 0.063620 -0.371913
V3    V     V_3+5 0.000970 0.670520 0.011800 1.423755
V4    V     V_3+5 0.999030 0.170520 0.988200 1.423759
O21   O     O_3   0.314960 0.263325 0.936318 -0.544328
C29   C     C_3   0.320697 0.466076 0.947116 0.108374
H11   H     H_    0.252536 0.525007 0.956057 0.131453
H12   H     H_    0.344024 0.537051 0.881871 0.135990
C30   C     C_3   0.390145 0.515656 0.040179 -0.702538
H13   H     H_    0.459350 0.462263 0.031685 0.229080
H14   H     H_    0.393342 0.674813 0.050803 0.184007
H15   H     H_    0.369884 0.447750 0.107396 0.220373
O22   O     O_3   0.685028 0.763298 0.063672 -0.544327
C31   C     C_3   0.679368 0.966046 0.052837 0.108383
H16   H     H_    0.747547 0.024833 0.043865 0.131442
H17   H     H_    0.656087 0.037130 0.118080 0.135998
C32   C     C_3   0.609919 0.015668 0.959781 -0.702633
H18   H     H_    0.540670 0.962692 0.968371 0.229019
H19   H     H_    0.606890 0.174796 0.949036 0.183990
H20   H     H_    0.630055 0.947403 0.892592 0.220468

loop_
_geom_bond_atom_site_label_1
_geom_bond_atom_site_label_2
_ccdc_geom_bond_type
C14   C25   S    
C2    C23   S    
C20   H10   S    
O1    C3    A    
O2    C4    A    
O11   V4    S    
O5    C3    A    
C10   H2    S    
C7    C9    A    
O20   V4    S    
C25   O18   A    
C21   C28   S    
C5    C7    A    
O15   V3    S    
O13   C25   A    
O14   C26   A    
C15   C17   S    
O10   V2    S    
C6    C8    A    
C26   O17   A    
O6    C4    A    
O5    V1    S    
O6    V2    S    
C2    O7    A    
C31   C32   S    
C22   C24   T    
C11   C13   A    
C3    C8    S    
O19   V3    S    
O13   V3    S    
C30   H13   S    
C29   C30   S    
C20   H8    S    
C31   H17   S    
O15   C27   A    
O16   V4    S    
C17   H5    S    
O20   V3    S    
C30   H14   S    
C16   C18   S    
O4    V2    S    
C19   H7    S    
C32   H18   S    
O11   C27   A    
C32   H19   S    
C22   C27   S    
C17   O21   S    
O1    V2    S    
O2    V1    S    
C21   C23   T    
O4    C2    A    
C8    C10   A    
C12   C14   A    
O9    V1    S    
O14   V4    S    
O18   V4    S    
C6    C16   A    
O3    V1    S    
O16   C28   A    
C9    C11   A    
O19   V4    S    
C18   H6    S    
C31   H16   S    
O3    C1    A    
O12   C28   A    
C11   H3    S    
C1    C24   S    
C12   H4    S    
C30   H15   S    
C29   H11   S    
C9    H1    S    
O7    V1    S    
O22   C31   S    
C13   C15   A    
O8    V2    S    
C14   C16   A    
O12   V3    S    
C5    C15   A    
O17   V3    S    
C4    C7    S    
C17   C19   S    
C18   C20   S    
C19   H9    S    
C32   H20   S    
O21   C29   S    
C1    O8    A    
C10   C12   A    
O9    V2    S    
O10   V1    S    
C5    C19   S    
C6    C20   S    
C18   O22   S    
C29   H12   S    
C13   C26   S    
