data_mof_unit_48958.cif
_audit_creation_date              2012-12-11T15:50:28-0500
_audit_creation_method            fapswitch 2.2
_symmetry_space_group_name_H-M    P1
_symmetry_Int_Tables_number       1
_space_group_crystal_system       triclinic
_cell_length_a                    18.954833
_cell_length_b                    10.901699
_cell_length_c                    18.788476
_cell_angle_alpha                 90.124106
_cell_angle_beta                  91.266515
_cell_angle_gamma                 90.017322
_cell_volume                      3881.49066521

loop_
_atom_site_label
_atom_site_type_symbol
_atom_type_description
_atom_site_fract_x
_atom_site_fract_y
_atom_site_fract_z
_atom_type_partial_charge
C1    C     C_R   0.273976 0.039407 0.854971 0.541403
C2    C     C_R   0.726012 0.039221 0.145005 0.540850
C3    C     C_R   0.773976 0.539407 0.854971 0.541403
C4    C     C_R   0.226012 0.539221 0.145005 0.540850
C5    C     C_3   0.523423 0.726152 0.965793 -0.108729
C6    C     C_3   0.478631 0.724306 0.033071 -0.108499
C7    C     C_3   0.023423 0.226152 0.965793 -0.108729
C8    C     C_3   0.978631 0.224306 0.033071 -0.108499
C9    C     C_R   0.240013 0.573384 0.071858 0.018005
C10   C     C_R   0.759997 0.573628 0.928143 0.017952
C11   C     C_R   0.740013 0.073384 0.071858 0.018005
C12   C     C_R   0.259997 0.073628 0.928143 0.017952
C13   C     C_R   0.304534 0.551506 0.039499 0.002699
C14   C     C_R   0.695434 0.551735 0.960393 0.001991
C15   C     C_R   0.804534 0.051506 0.039499 0.002699
C16   C     C_R   0.195434 0.051735 0.960393 0.001991
C17   C     C_R   0.310727 0.562423 0.966121 0.019518
C18   C     C_R   0.689227 0.562429 0.033792 0.020058
C19   C     C_R   0.810727 0.062423 0.966121 0.019518
C20   C     C_R   0.189227 0.062429 0.033792 0.020058
C21   C     C_R   0.187004 0.612325 0.955375 -0.176541
C22   C     C_R   0.813042 0.611879 0.044728 -0.176312
C23   C     C_R   0.687004 0.112325 0.955375 -0.176541
C24   C     C_R   0.313042 0.111879 0.044728 -0.176312
C25   C     C_R   0.181874 0.608589 0.028622 -0.172007
C26   C     C_R   0.818184 0.608468 0.971490 -0.171791
C27   C     C_R   0.681874 0.108589 0.028622 -0.172007
C28   C     C_R   0.318184 0.108468 0.971490 -0.171791
C29   C     C_3   0.349916 0.440059 0.042731 -0.269557
C30   C     C_3   0.649965 0.440315 0.956781 -0.269643
C31   C     C_3   0.849916 0.940059 0.042731 -0.269557
C32   C     C_3   0.149965 0.940315 0.956781 -0.269643
C33   C     C_3   0.357331 0.452057 0.962943 -0.277666
C34   C     C_3   0.642519 0.452139 0.036591 -0.277757
C35   C     C_3   0.857331 0.952057 0.962943 -0.277666
C36   C     C_3   0.142519 0.952139 0.036591 -0.277757
C37   C     C_R   0.251437 0.588791 0.922903 0.017087
C38   C     C_R   0.748556 0.588428 0.077083 0.017508
C39   C     C_R   0.751436 0.088791 0.922903 0.017087
C40   C     C_R   0.248556 0.088428 0.077083 0.017508
C41   C     C_R   0.493837 0.829658 0.420622 0.017158
C42   C     C_R   0.482463 0.829892 0.569662 0.018286
C43   C     C_R   0.993837 0.329658 0.420622 0.017158
C44   C     C_R   0.982463 0.329892 0.569662 0.018286
C45   C     C_R   0.443668 0.817949 0.863161 0.557808
C46   C     C_R   0.556668 0.817688 0.136872 0.557923
C47   C     C_R   0.943668 0.317949 0.863161 0.557808
C48   C     C_R   0.056668 0.317688 0.136872 0.557923
C49   C     C_R   0.481423 0.720767 0.457881 0.027048
C50   C     C_R   0.476587 0.721647 0.530556 0.039515
C51   C     C_R   0.981423 0.220767 0.457881 0.027048
C52   C     C_R   0.976587 0.221647 0.530556 0.039515
C53   C     C_R   0.482367 0.941446 0.531998 -0.163684
C54   C     C_R   0.486784 0.941276 0.457386 -0.169810
C55   C     C_R   0.982367 0.441446 0.531998 -0.163684
C56   C     C_R   0.986784 0.441276 0.457386 -0.169810
C57   C     C_3   0.520468 0.601082 0.459711 -0.269467
C58   C     C_3   0.515659 0.604009 0.539868 -0.279194
C59   C     C_3   0.020468 0.101082 0.459711 -0.269467
C60   C     C_3   0.015659 0.104009 0.539868 -0.279194
C61   C     C_R   0.251548 0.607760 0.418117 0.019322
C62   C     C_R   0.747143 0.592477 0.578673 0.016349
C63   C     C_R   0.751548 0.107760 0.418117 0.019322
C64   C     C_R   0.247143 0.092477 0.578673 0.016349
C65   C     C_R   0.202621 0.679246 0.454761 0.021369
C66   C     C_R   0.782781 0.688599 0.546409 0.015749
C67   C     C_R   0.702621 0.179246 0.454761 0.021369
C68   C     C_R   0.282781 0.188599 0.546409 0.015749
C69   C     C_R   0.206214 0.685088 0.527239 0.036605
C70   C     C_R   0.782714 0.695704 0.473826 0.049590
C71   C     C_R   0.706214 0.185088 0.527239 0.036605
C72   C     C_R   0.282714 0.195704 0.473826 0.049590
C73   C     C_R   0.316167 0.575377 0.528448 -0.153272
C74   C     C_R   0.702119 0.525612 0.463101 -0.175574
C75   C     C_R   0.816167 0.075377 0.528448 -0.153272
C76   C     C_R   0.202119 0.025612 0.463101 -0.175574
C77   C     C_R   0.313154 0.569659 0.454150 -0.155588
C78   C     C_R   0.701144 0.518615 0.536944 -0.165815
C79   C     C_R   0.813154 0.069659 0.454150 -0.155588
C80   C     C_R   0.201144 0.018615 0.536944 -0.165815
C81   C     C_3   0.123287 0.674943 0.455931 -0.269323
C82   C     C_3   0.857965 0.731513 0.552255 -0.271896
C83   C     C_3   0.623287 0.174943 0.455931 -0.269323
C84   C     C_3   0.357965 0.231513 0.552255 -0.271896
C85   C     C_3   0.128371 0.681454 0.535949 -0.279107
C86   C     C_3   0.857956 0.735248 0.471948 -0.266003
C87   C     C_3   0.628371 0.181454 0.535949 -0.279107
C88   C     C_3   0.357956 0.235248 0.471948 -0.266003
C89   C     C_R   0.260834 0.635305 0.851330 0.538893
C90   C     C_R   0.739174 0.635112 0.148686 0.537771
C91   C     C_R   0.760834 0.135305 0.851330 0.538893
C92   C     C_R   0.239174 0.135112 0.148686 0.537771
C93   C     C_R   0.258521 0.622904 0.565472 0.022567
C94   C     C_R   0.746776 0.610038 0.431173 0.025801
C95   C     C_R   0.758521 0.122904 0.565472 0.022567
C96   C     C_R   0.246776 0.110038 0.431173 0.025801
C97   C     C_R   0.270767 0.046658 0.646592 0.556741
C98   C     C_R   0.729342 0.049391 0.352507 0.551779
C99   C     C_R   0.770767 0.546658 0.646592 0.556741
C100  C     C_R   0.229342 0.549391 0.352507 0.551779
C101  C     C_R   0.467184 0.823395 0.645114 0.554288
C102  C     C_R   0.528843 0.823388 0.352366 0.554431
C103  C     C_R   0.967184 0.323395 0.645114 0.554288
C104  C     C_R   0.028844 0.323388 0.352366 0.554431
C105  C     C_R   0.261758 0.643066 0.641045 0.549503
C106  C     C_R   0.739972 0.638336 0.357016 0.547549
C107  C     C_R   0.761758 0.143066 0.641045 0.549503
C108  C     C_R   0.239972 0.138336 0.357016 0.547549
C109  C     C_3   0.477446 0.925759 0.034571 -0.115068
C110  C     C_3   0.521814 0.927597 0.966376 -0.115710
C111  C     C_3   0.977446 0.425758 0.034571 -0.115068
C112  C     C_3   0.021814 0.427597 0.966376 -0.115710
C113  C     C_3   0.429503 0.824372 0.001845 -0.135462
C114  C     C_3   0.571163 0.827530 0.998092 -0.136049
C115  C     C_3   0.929503 0.324372 0.001845 -0.135462
C116  C     C_3   0.071163 0.327530 0.998092 -0.136049
C117  C     C_3   0.474439 0.825860 0.935113 0.056626
C118  C     C_3   0.526202 0.825348 0.064802 0.056893
C119  C     C_3   0.974440 0.325860 0.935113 0.056626
C120  C     C_3   0.026202 0.325348 0.064802 0.056893
Cr1   Cr    Cr6+3 0.229640 0.835880 0.747370 1.003280
Cr2   Cr    Cr6+3 0.770360 0.835880 0.252630 1.004295
Cr3   Cr    Cr6+3 0.729640 0.335880 0.747370 1.003280
Cr4   Cr    Cr6+3 0.270360 0.335880 0.252630 1.004295
Cr5   Cr    Cr6+3 0.387390 0.989720 0.750850 1.005841
Cr6   Cr    Cr6+3 0.612610 0.989720 0.249150 1.004628
Cr7   Cr    Cr6+3 0.887390 0.489720 0.750850 1.005841
Cr8   Cr    Cr6+3 0.112610 0.489720 0.249150 1.004628
Cr9   Cr    Cr6+3 0.385770 0.677220 0.749340 1.008530
Cr10  Cr    Cr6+3 0.614230 0.677220 0.250660 1.006126
Cr11  Cr    Cr6+3 0.885770 0.177220 0.749340 1.008530
Cr12  Cr    Cr6+3 0.114230 0.177220 0.250660 1.006126
H1    H     H_    0.370911 0.823381 0.001896 0.115102
H2    H     H_    0.629754 0.828851 0.998073 0.115339
H3    H     H_    0.870911 0.323381 0.001896 0.115102
H4    H     H_    0.129754 0.328851 0.998073 0.115339
H5    H     H_    0.481836 0.027766 0.560165 0.117844
H6    H     H_    0.490227 0.027455 0.429400 0.113773
H7    H     H_    0.981836 0.527766 0.560165 0.117844
H8    H     H_    0.990227 0.527455 0.429400 0.113773
H9    H     H_    0.075232 0.110149 0.441520 0.175205
H10   H     H_    0.982727 0.029055 0.561263 0.130525
H11   H     H_    0.575232 0.610149 0.441520 0.175205
H12   H     H_    0.482727 0.529055 0.561263 0.130525
H13   H     H_    0.361706 0.539192 0.556700 0.128081
H14   H     H_    0.669356 0.464229 0.431245 0.123151
H15   H     H_    0.861707 0.039192 0.556700 0.128081
H16   H     H_    0.169356 0.964229 0.431245 0.123151
H17   H     H_    0.355228 0.525809 0.425775 0.118282
H18   H     H_    0.670070 0.447142 0.560640 0.141371
H19   H     H_    0.855228 0.025809 0.425775 0.118282
H20   H     H_    0.170070 0.947142 0.560640 0.141371
H21   H     H_    0.101935 0.585758 0.437536 0.173789
H22   H     H_    0.895567 0.663007 0.573836 0.163410
H23   H     H_    0.601935 0.085758 0.437536 0.173789
H24   H     H_    0.395567 0.163007 0.573836 0.163410
H25   H     H_    0.098378 0.757303 0.431263 0.125615
H26   H     H_    0.862413 0.823483 0.577399 0.126684
H27   H     H_    0.598378 0.257303 0.431263 0.125615
H28   H     H_    0.362413 0.323483 0.577399 0.126684
H29   H     H_    0.106625 0.767716 0.557948 0.133637
H30   H     H_    0.864413 0.828389 0.450216 0.140833
H31   H     H_    0.606625 0.267716 0.557948 0.133637
H32   H     H_    0.364413 0.328389 0.450216 0.140833
H33   H     H_    0.460122 0.007570 0.064625 0.115298
H34   H     H_    0.538003 0.010964 0.937264 0.114519
H35   H     H_    0.960123 0.507570 0.064625 0.115298
H36   H     H_    0.038003 0.510964 0.937264 0.114519
H37   H     H_    0.541813 0.644335 0.936517 0.129423
H38   H     H_    0.461470 0.640813 0.061362 0.128281
H39   H     H_    0.041813 0.144335 0.936517 0.129423
H40   H     H_    0.961470 0.140813 0.061362 0.128281
H41   H     H_    0.140737 0.638799 0.924233 0.130652
H42   H     H_    0.859311 0.638268 0.075969 0.130380
H43   H     H_    0.640737 0.138799 0.924233 0.130652
H44   H     H_    0.359311 0.138268 0.075969 0.130380
H45   H     H_    0.130449 0.625973 0.050579 0.143676
H46   H     H_    0.869632 0.625803 0.949598 0.143374
H47   H     H_    0.630449 0.125973 0.050579 0.143676
H48   H     H_    0.369632 0.125803 0.949598 0.143374
H49   H     H_    0.819874 0.857610 0.058364 0.173130
H50   H     H_    0.179954 0.857865 0.940917 0.173595
H51   H     H_    0.319874 0.357610 0.058364 0.173130
H52   H     H_    0.679955 0.357865 0.940917 0.173595
H53   H     H_    0.400005 0.455199 0.073213 0.125152
H54   H     H_    0.599884 0.455489 0.926340 0.124836
H55   H     H_    0.900005 0.955199 0.073213 0.125152
H56   H     H_    0.099884 0.955489 0.926340 0.124836
H57   H     H_    0.411782 0.476198 0.947138 0.137691
H58   H     H_    0.588084 0.476336 0.052447 0.137437
H59   H     H_    0.911782 0.976198 0.947138 0.137691
H60   H     H_    0.088084 0.976336 0.052447 0.137437
H61   H     H_    0.332795 0.375102 0.932324 0.144320
H62   H     H_    0.666966 0.375085 0.066976 0.144259
H63   H     H_    0.832795 0.875102 0.932324 0.144320
H64   H     H_    0.166966 0.875085 0.066976 0.144259
O1    O     O_R   0.214300 0.709080 0.827500 -0.531999
O2    O     O_R   0.785700 0.709080 0.172500 -0.532534
O3    O     O_R   0.714300 0.209080 0.827500 -0.531999
O4    O     O_R   0.285700 0.209080 0.172500 -0.532534
O5    O     O_R   0.445900 0.919370 0.676500 -0.503446
O6    O     O_R   0.554100 0.919370 0.323500 -0.505073
O7    O     O_R   0.945900 0.419370 0.676500 -0.503446
O8    O     O_R   0.054100 0.419370 0.323500 -0.505073
O9    O     O_R   0.456660 0.717710 0.669820 -0.516274
O10   O     O_R   0.543340 0.717710 0.330180 -0.520915
O11   O     O_R   0.956660 0.217710 0.669820 -0.516274
O12   O     O_R   0.043340 0.217710 0.330180 -0.520915
O13   O     O_R   0.320590 0.625770 0.672930 -0.510644
O14   O     O_R   0.679410 0.625770 0.327070 -0.511736
O15   O     O_R   0.820590 0.125770 0.672930 -0.510644
O16   O     O_R   0.179410 0.125770 0.327070 -0.511736
O17   O     O_3   0.334270 0.834280 0.749190 -0.263290
O18   O     O_3   0.665730 0.834280 0.250810 -0.261070
O19   O     O_3   0.834270 0.334280 0.749190 -0.263290
O20   O     O_3   0.165730 0.334280 0.250810 -0.261070
O21   O     O_R   0.236190 0.958390 0.823150 -0.503512
O22   O     O_R   0.763810 0.958390 0.176850 -0.503854
O23   O     O_R   0.736190 0.458390 0.823150 -0.503512
O24   O     O_R   0.263810 0.458390 0.176850 -0.503854
O25   O     O_R   0.332090 0.075280 0.831290 -0.535544
O26   O     O_R   0.667910 0.075280 0.168710 -0.535636
O27   O     O_R   0.832090 0.575280 0.831290 -0.535544
O28   O     O_R   0.167910 0.575280 0.168710 -0.535636
O29   O     O_R   0.446280 0.918040 0.826620 -0.504244
O30   O     O_R   0.553720 0.918040 0.173380 -0.504914
O31   O     O_R   0.946280 0.418040 0.826620 -0.504244
O32   O     O_R   0.053720 0.418040 0.173380 -0.504914
O33   O     O_R   0.457080 0.716270 0.831760 -0.522628
O34   O     O_R   0.542920 0.716270 0.168240 -0.522636
O35   O     O_R   0.957080 0.216270 0.831760 -0.522628
O36   O     O_R   0.042920 0.216270 0.168240 -0.522636
O37   O     O_R   0.320980 0.624440 0.823040 -0.509545
O38   O     O_R   0.679020 0.624440 0.176960 -0.510006
O39   O     O_R   0.820980 0.124440 0.823040 -0.509545
O40   O     O_R   0.179020 0.124440 0.176960 -0.510006
O41   O     O_R   0.213880 0.710510 0.665560 -0.518373
O42   O     O_R   0.786120 0.710510 0.334440 -0.517432
O43   O     O_R   0.713880 0.210510 0.665560 -0.518373
O44   O     O_R   0.286120 0.210510 0.334440 -0.517432
O45   O     O_R   0.235800 0.959720 0.673040 -0.508825
O46   O     O_R   0.764200 0.959720 0.326960 -0.502768
O47   O     O_R   0.735800 0.459720 0.673040 -0.508825
O48   O     O_R   0.264200 0.459720 0.326960 -0.502768
O49   O     O_R   0.331670 0.076720 0.669350 -0.525240
O50   O     O_R   0.668330 0.076720 0.330650 -0.526541
O51   O     O_R   0.831670 0.576720 0.669350 -0.525240
O52   O     O_R   0.168330 0.576720 0.330650 -0.526541
H65   H     H_    0.489584 0.525234 0.434568 0.123165
H66   H     H_    0.567419 0.617002 0.567786 0.143153
H67   H     H_    0.989584 0.025234 0.434568 0.123165
H68   H     H_    0.067419 0.117002 0.567786 0.143153
H69   H     H_    0.110652 0.596227 0.562617 0.139393
H70   H     H_    0.892403 0.664677 0.447961 0.134489
H71   H     H_    0.610652 0.096227 0.562617 0.139393
H72   H     H_    0.392403 0.164677 0.447961 0.134489

loop_
_geom_bond_atom_site_label_1
_geom_bond_atom_site_label_2
_ccdc_geom_bond_type
C87   H31   S    
C55   C56   A    
Cr4   O24   S    
C67   C83   S    
C110  H34   S    
C57   H65   S    
C7    H39   S    
C5    C114  S    
Cr6   O50   S    
C85   H29   S    
C14   C18   A    
C83   C87   S    
C111  C112  S    
Cr12  O16   S    
C73   C93   A    
C39   C91   S    
C59   H67   S    
C98   O46   A    
Cr11  O11   S    
Cr8   O28   S    
Cr3   O47   S    
C84   H28   S    
C18   C38   A    
C9    C25   A    
C7    C8    S    
Cr2   O46   S    
C63   C79   A    
C53   C54   A    
Cr6   O6    S    
C23   H43   S    
Cr1   O45   S    
Cr10  O10   S    
C111  C115  S    
Cr1   O17   S    
Cr5   O5    S    
C78   H18   S    
C55   H7    S    
C17   C33   S    
C12   C28   A    
C53   H5    S    
C104  O8    A    
C32   H50   S    
C16   C20   A    
C70   C94   A    
C103  O11   A    
C98   O50   A    
C63   C98   S    
Cr3   O19   S    
Cr8   O32   S    
C42   C53   A    
C97   O49   A    
C5    C6    S    
Cr4   O44   S    
C72   C96   A    
Cr1   O41   S    
C107  O15   A    
Cr10  O34   S    
C86   H70   S    
C45   C117  S    
C22   C38   A    
Cr9   O33   S    
C2    O26   A    
C49   C57   S    
C41   C102  S    
C90   O38   A    
C33   H57   S    
Cr8   O8    S    
C89   O37   A    
C19   C35   S    
C9    C13   A    
C43   C104  S    
C1    O25   A    
C21   C25   A    
C83   H27   S    
C52   C60   S    
C8    C115  S    
C108  O16   A    
C43   C51   A    
C64   C80   A    
C11   C15   A    
Cr4   O20   S    
C12   C16   A    
C29   C33   S    
C61   C77   A    
C4    O24   A    
C60   H68   S    
Cr5   O17   S    
C76   C80   A    
C24   H44   S    
Cr12  O20   S    
C91   O39   A    
C23   C27   A    
Cr4   O48   S    
Cr6   O18   S    
C110  C114  S    
C67   C71   A    
C100  O48   A    
Cr7   O27   S    
C83   H23   S    
C91   O3    A    
C81   C85   S    
C10   C26   A    
C47   C119  S    
C96   C108  S    
C33   H61   S    
C59   C60   S    
C113  H1    S    
C95   C107  S    
C115  H3    S    
C99   O47   A    
C29   H51   S    
C46   O34   A    
Cr7   O7    S    
Cr6   O30   S    
C1    C12   S    
C45   O33   A    
C14   C30   S    
Cr5   O29   S    
C2    C11   S    
Cr12  O36   S    
C110  C117  S    
C41   C49   A    
C22   H42   S    
C44   C103  S    
C62   C78   A    
C109  C118  S    
Cr3   O43   S    
C26   H46   S    
C114  H2    S    
Cr11  O15   S    
C63   C67   A    
C81   H25   S    
C30   C34   S    
C75   C95   A    
C51   C52   A    
C68   C84   S    
C7    C119  S    
C34   H58   S    
C22   C26   A    
C48   C120  S    
C10   C14   A    
C77   H17   S    
C102  O10   A    
C62   C66   A    
C20   C36   S    
C17   C37   A    
Cr11  O39   S    
C6    C118  S    
C4    O28   A    
C107  O43   A    
C15   C31   S    
C92   O40   A    
C40   C92   S    
C116  C120  S    
C5    C117  S    
C111  C120  S    
Cr8   O52   S    
C7    C116  S    
C60   H10   S    
C15   C19   A    
C36   H64   S    
Cr11  O19   S    
C100  O52   A    
C58   H12   S    
C66   C82   S    
C47   O31   A    
Cr9   O9    S    
C38   C90   S    
C102  O6    A    
C65   C81   S    
C5    H37   S    
C56   H8    S    
C11   C27   A    
C88   H32   S    
C68   C72   A    
Cr6   O26   S    
C46   O30   A    
C50   C58   S    
C21   C37   A    
C82   H26   S    
C108  O44   A    
Cr2   O2    S    
C46   C118  S    
C35   H59   S    
C109  C113  S    
C28   H48   S    
Cr1   O1    S    
C114  C118  S    
Cr7   O51   S    
C109  H33   S    
Cr8   O20   S    
C86   H30   S    
Cr7   O19   S    
Cr7   O31   S    
C47   O35   A    
C64   C97   S    
C42   C50   A    
C54   H6    S    
C115  C119  S    
C71   C87   S    
C113  C117  S    
C58   H66   S    
C61   C100  S    
C51   C59   S    
C20   C40   A    
C13   C29   S    
C105  O13   A    
Cr9   O13   S    
C48   O36   A    
C70   C86   S    
C42   C101  S    
C64   C68   A    
C112  C116  S    
C69   C85   S    
C81   H21   S    
C8    C120  S    
C79   H19   S    
C6    H38   S    
C69   C93   A    
Cr11  O35   S    
C80   H20   S    
C48   O32   A    
Cr3   O23   S    
C19   C39   A    
C94   C106  S    
C3    O27   A    
Cr2   O22   S    
C36   H60   S    
C30   H52   S    
C74   H14   S    
C24   C28   A    
C27   H47   S    
C106  O14   A    
Cr10  O38   S    
C44   C52   A    
Cr3   O3    S    
C112  C119  S    
C101  O9    A    
C32   C36   S    
Cr12  O12   S    
C116  H4    S    
C35   H63   S    
C16   C32   S    
Cr1   O21   S    
C89   O1    A    
C90   O2    A    
Cr4   O4    S    
C21   H41   S    
C37   C89   S    
C72   C88   S    
C75   H15   S    
C45   O29   A    
C93   C105  S    
C3    C10   S    
C101  O5    A    
C109  C110  S    
C76   C96   A    
Cr5   O25   S    
C82   C86   S    
C62   C99   S    
C84   H24   S    
C44   C55   A    
C34   H62   S    
C57   C58   S    
Cr2   O42   S    
C84   C88   S    
C75   C79   A    
C18   C34   S    
C65   C69   A    
Cr9   O37   S    
C32   H56   S    
C87   H71   S    
C24   C40   A    
Cr12  O40   S    
C29   H53   S    
Cr10  O18   S    
C31   C35   S    
C104  O12   A    
C61   C65   A    
Cr9   O17   S    
C59   H9    S    
C103  O7    A    
C41   C54   A    
C88   H72   S    
Cr10  O14   S    
C111  H35   S    
C97   O45   A    
C13   C17   A    
C82   H22   S    
Cr2   O18   S    
C43   C56   A    
C30   H54   S    
C71   C95   A    
C66   C70   A    
C76   H16   S    
C73   C77   A    
C3    O23   A    
C49   C50   A    
C106  O42   A    
C73   H13   S    
C74   C94   A    
C2    O22   A    
C105  O41   A    
C1    O21   A    
C74   C78   A    
Cr5   O49   S    
C31   H55   S    
C4    C9    S    
C92   O4    A    
C25   H45   S    
C99   O51   A    
C23   C39   A    
C31   H49   S    
C8    H40   S    
C57   H11   S    
C6    C113  S    
C85   H69   S    
C112  H36   S    
