data_mof_unit_8417.cif
_audit_creation_date              2012-12-11T14:30:17-0500
_audit_creation_method            fapswitch 2.2
_symmetry_space_group_name_H-M    P1
_symmetry_Int_Tables_number       1
_space_group_crystal_system       triclinic
_cell_length_a                    12.78877
_cell_length_b                    12.788658
_cell_length_c                    27.050736
_cell_angle_alpha                 89.999662
_cell_angle_beta                  90.000141
_cell_angle_gamma                 120.000189
_cell_volume                      3831.44539803

loop_
_atom_site_label
_atom_site_type_symbol
_atom_type_description
_atom_site_fract_x
_atom_site_fract_y
_atom_site_fract_z
_atom_type_partial_charge
C1    C     C_R   0.559489 0.455765 0.822657 0.586687
C2    C     C_R   0.456793 0.555685 0.178727 0.566397
C3    C     C_R   0.985074 0.308945 0.470205 0.429587
C4    C     C_R   0.323875 0.014933 0.029795 0.429624
C5    C     C_R   0.691054 0.676126 0.470205 0.429586
C6    C     C_R   0.330454 0.032178 0.520666 0.439189
C7    C     C_R   0.967865 0.298294 0.979334 0.439284
C8    C     C_R   0.701711 0.669561 0.520665 0.439244
C9    C     C_R   0.330447 0.032167 0.979334 0.439225
C10   C     C_R   0.967851 0.298287 0.520666 0.439265
C11   C     C_R   0.701720 0.669553 0.979334 0.439215
C12   C     C_R   0.444314 0.901108 0.321273 0.566396
C13   C     C_R   0.098891 0.543206 0.178727 0.566397
C14   C     C_R   0.989381 0.498584 0.975977 -0.102279
C15   C     C_R   0.509201 0.010620 0.524023 -0.102252
C16   C     C_R   0.501418 0.490799 0.975977 -0.102264
C17   C     C_R   0.989375 0.498581 0.524022 -0.102271
C18   C     C_R   0.509203 0.010625 0.975978 -0.102259
C19   C     C_R   0.501415 0.490798 0.524022 -0.102275
C20   C     C_R   0.506197 0.999696 0.471954 -0.108070
C21   C     C_R   0.896279 0.440513 0.677343 0.586573
C22   C     C_R   0.000297 0.506500 0.028047 -0.108075
C23   C     C_R   0.493498 0.493798 0.471953 -0.108075
C24   C     C_R   0.506201 0.999704 0.028047 -0.108071
C25   C     C_R   0.000293 0.506498 0.471952 -0.108073
C26   C     C_R   0.493499 0.493801 0.028046 -0.108073
C27   C     C_R   0.021889 0.701863 0.972874 -0.012445
C28   C     C_R   0.679952 0.978084 0.527128 -0.012464
C29   C     C_R   0.298129 0.320047 0.972873 -0.012423
C30   C     C_R   0.021879 0.701858 0.527124 -0.012482
C31   C     C_R   0.679965 0.978105 0.972874 -0.012490
C32   C     C_R   0.544234 0.103723 0.822657 0.586656
C33   C     C_R   0.298131 0.320039 0.527127 -0.012415
C34   C     C_R   0.679999 0.972061 0.475475 -0.039921
C35   C     C_R   0.027913 0.707932 0.024527 -0.039902
C36   C     C_R   0.292062 0.319990 0.475474 -0.039910
C37   C     C_R   0.680010 0.972080 0.024527 -0.039912
C38   C     C_R   0.027906 0.707928 0.475471 -0.039894
C39   C     C_R   0.292061 0.319998 0.024526 -0.039921
C40   C     C_R   0.992228 0.587008 0.895140 0.199560
C41   C     C_R   0.594768 0.007765 0.604860 0.199467
C42   C     C_R   0.412995 0.405229 0.895140 0.199486
C43   C     C_R   0.559488 0.455767 0.677344 0.586639
C44   C     C_R   0.992224 0.587005 0.604858 0.199554
C45   C     C_R   0.594773 0.007771 0.895141 0.199482
C46   C     C_R   0.412992 0.405225 0.604860 0.199551
C47   C     C_R   0.590445 0.975518 0.394296 0.154792
C48   C     C_R   0.024470 0.614924 0.105706 0.154794
C49   C     C_R   0.385073 0.409548 0.394295 0.154794
C50   C     C_R   0.590450 0.975528 0.105706 0.154792
C51   C     C_R   0.024467 0.614922 0.394293 0.154795
C52   C     C_R   0.385072 0.409552 0.105704 0.154794
C53   C     C_R   0.033978 0.522402 0.130894 -0.014264
C54   C     C_R   0.896281 0.440514 0.822656 0.586556
C55   C     C_R   0.488419 0.966016 0.369107 -0.014263
C56   C     C_R   0.477596 0.511579 0.130894 -0.014264
C57   C     C_R   0.033977 0.522401 0.369105 -0.014264
C58   C     C_R   0.488422 0.966022 0.130894 -0.014263
C59   C     C_R   0.477596 0.511575 0.369106 -0.014263
C60   C     C_R   0.524216 0.052936 0.626596 -0.014291
C61   C     C_R   0.947086 0.471291 0.873401 -0.014584
C62   C     C_R   0.528711 0.475791 0.626598 -0.014475
C63   C     C_R   0.524212 0.052931 0.873403 -0.014405
C64   C     C_R   0.947077 0.471287 0.626597 -0.014519
C65   C     C_R   0.544235 0.103725 0.677343 0.586719
C66   C     C_R   0.528717 0.475786 0.873403 -0.014375
C67   C     C_R   0.001773 0.597197 0.947633 0.011435
C68   C     C_R   0.595411 0.998215 0.552368 0.011398
C69   C     C_R   0.402802 0.404586 0.947632 0.011407
C70   C     C_R   0.001767 0.597194 0.552366 0.011430
C71   C     C_R   0.595418 0.998226 0.947634 0.011405
C72   C     C_R   0.402801 0.404582 0.552368 0.011429
C73   C     C_R   0.594511 0.984059 0.446867 -0.008154
C74   C     C_R   0.015924 0.610448 0.053135 -0.008155
C75   C     C_R   0.389549 0.405481 0.446866 -0.008159
C76   C     C_R   0.456793 0.555684 0.321273 0.566396
C77   C     C_R   0.594518 0.984072 0.053135 -0.008153
C78   C     C_R   0.015920 0.610445 0.446864 -0.008153
C79   C     C_R   0.389548 0.405486 0.053134 -0.008158
C80   C     C_R   0.936370 0.375240 0.902723 0.354414
C81   C     C_R   0.438915 0.063699 0.597271 0.354578
C82   C     C_R   0.624776 0.561096 0.902727 0.354532
C83   C     C_R   0.936349 0.375232 0.597275 0.354450
C84   C     C_R   0.438900 0.063678 0.902727 0.354517
C85   C     C_R   0.624766 0.561114 0.597275 0.354475
C86   C     C_R   0.412383 0.997565 0.393888 0.404322
C87   C     C_R   0.444315 0.901109 0.178727 0.566394
C88   C     C_R   0.002427 0.414816 0.106113 0.404335
C89   C     C_R   0.585182 0.587609 0.393887 0.404332
C90   C     C_R   0.412387 0.997572 0.106113 0.404326
C91   C     C_R   0.002427 0.414815 0.393887 0.404332
C92   C     C_R   0.585182 0.587614 0.106112 0.404327
C93   C     C_R   0.965742 0.390904 0.952416 -0.022492
C94   C     C_R   0.425183 0.034294 0.547582 -0.022476
C95   C     C_R   0.609107 0.574822 0.952418 -0.022477
C96   C     C_R   0.965728 0.390897 0.547583 -0.022491
C97   C     C_R   0.425177 0.034287 0.952418 -0.022484
C98   C     C_R   0.098890 0.543206 0.321273 0.566398
C99   C     C_R   0.609100 0.574830 0.547582 -0.022482
C100  C     C_R   0.415121 0.006409 0.445092 -0.044834
C101  C     C_R   0.993588 0.408712 0.054909 -0.044834
C102  C     C_R   0.591287 0.584874 0.445091 -0.044832
C103  C     C_R   0.415124 0.006415 0.054909 -0.044835
C104  C     C_R   0.993585 0.408710 0.445091 -0.044836
C105  C     C_R   0.591288 0.584877 0.054908 -0.044832
C106  C     C_R   0.985080 0.308949 0.029795 0.429561
C107  C     C_R   0.323876 0.014934 0.470206 0.429657
C108  C     C_R   0.691057 0.676125 0.029794 0.429625
Cr1   Cr    Cr6+3 0.487630 0.241180 0.750000 1.233550
Cr2   Cr    Cr6+3 0.753550 0.512370 0.750000 1.233533
Cr3   Cr    Cr6+3 0.758820 0.246450 0.750000 1.233511
Cr4   Cr    Cr6+3 0.241180 0.487630 0.250000 1.234843
Cr5   Cr    Cr6+3 0.512370 0.753550 0.250000 1.234843
Cr6   Cr    Cr6+3 0.246450 0.758820 0.250000 1.234844
F1    F     F_    0.979277 0.315145 0.132344 -0.489183
F2    F     F_    0.372914 0.110764 0.883930 -0.544714
F3    F     F_    0.889309 0.262170 0.616077 -0.544566
F4    F     F_    0.737849 0.627076 0.883932 -0.544718
F5    F     F_    0.001860 0.225106 0.053220 -0.531548
F6    F     F_    0.223246 0.998143 0.446783 -0.531534
F7    F     F_    0.774900 0.776753 0.053217 -0.531538
F8    F     F_    0.001859 0.225104 0.446782 -0.531543
F9    F     F_    0.223246 0.998144 0.053218 -0.531537
F10   F     F_    0.774899 0.776749 0.446780 -0.531542
F11   F     F_    0.240405 0.041387 0.543192 -0.513992
F12   F     F_    0.335865 0.020718 0.367657 -0.489188
F13   F     F_    0.958681 0.199044 0.956809 -0.513654
F14   F     F_    0.800963 0.759622 0.543191 -0.513790
F15   F     F_    0.240392 0.041368 0.956808 -0.513853
F16   F     F_    0.958660 0.199035 0.543192 -0.513722
F17   F     F_    0.800975 0.759607 0.956807 -0.513900
F18   F     F_    0.684853 0.664133 0.132343 -0.489180
F19   F     F_    0.979277 0.315144 0.367656 -0.489185
F20   F     F_    0.335868 0.020724 0.132344 -0.489185
F21   F     F_    0.684853 0.664127 0.367655 -0.489183
F22   F     F_    0.372961 0.110823 0.616063 -0.544831
F23   F     F_    0.889356 0.262184 0.883919 -0.544477
F24   F     F_    0.737830 0.627124 0.616074 -0.544588
H1    H     H_    0.046260 0.791675 0.041357 0.259338
H2    H     H_    0.749318 0.970345 0.953188 0.266305
H3    H     H_    0.029632 0.778970 0.546810 0.266275
H4    H     H_    0.221010 0.250702 0.953186 0.266396
H5    H     H_    0.934719 0.841849 0.130607 0.414002
H6    H     H_    0.907124 0.065286 0.369398 0.414014
H7    H     H_    0.158156 0.092870 0.130605 0.414009
H8    H     H_    0.934707 0.841839 0.369386 0.414006
H9    H     H_    0.907128 0.065292 0.130607 0.414012
H10   H     H_    0.158157 0.092867 0.369393 0.414009
H11   H     H_    0.684227 0.789078 0.641360 0.424848
H12   H     H_    0.745389 0.953707 0.458645 0.259336
H13   H     H_    0.210711 0.895291 0.858707 0.424982
H14   H     H_    0.104905 0.315911 0.641383 0.424797
H15   H     H_    0.684658 0.789340 0.858724 0.425006
H16   H     H_    0.210446 0.895462 0.641209 0.425139
H17   H     H_    0.105017 0.316185 0.858569 0.424699
H18   H     H_    0.208317 0.254607 0.041356 0.259342
H19   H     H_    0.046252 0.791671 0.458640 0.259339
H20   H     H_    0.745403 0.953730 0.041358 0.259336
H21   H     H_    0.208319 0.254598 0.458643 0.259342
H22   H     H_    0.749300 0.970315 0.546815 0.266348
H23   H     H_    0.029649 0.778977 0.953187 0.266324
H24   H     H_    0.221013 0.250691 0.546814 0.266370
O1    O     O_R   0.460870 0.120930 0.805240 -0.426358
O2    O     O_R   0.120930 0.460870 0.194760 -0.402412
O3    O     O_R   0.539130 0.660060 0.305240 -0.402411
O4    O     O_R   0.339940 0.879070 0.194760 -0.402412
O5    O     O_R   0.498910 0.350470 0.801870 -0.447428
O6    O     O_R   0.851560 0.501090 0.698130 -0.447418
O7    O     O_R   0.649530 0.148440 0.801870 -0.447442
O8    O     O_R   0.498910 0.350470 0.698130 -0.447398
O9    O     O_R   0.851560 0.501090 0.801870 -0.447392
O10   O     O_R   0.649530 0.148440 0.698130 -0.447456
O11   O     O_R   0.350470 0.498910 0.301870 -0.465189
O12   O     O_R   0.660060 0.539130 0.694760 -0.426387
O13   O     O_R   0.501090 0.851560 0.198130 -0.465188
O14   O     O_R   0.148440 0.649530 0.301870 -0.465187
O15   O     O_R   0.350470 0.498910 0.198130 -0.465189
O16   O     O_R   0.501090 0.851560 0.301870 -0.465188
O17   O     O_R   0.148440 0.649530 0.198130 -0.465187
O18   O     O_3   0.666667 0.333333 0.750000 -0.371461
O19   O     O_3   0.333333 0.666667 0.250000 -0.369962
O20   O     O_2   0.946868 0.669304 0.189280 -0.191817
O21   O     O_2   0.129148 0.830807 0.150553 -0.187276
O22   O     O_3   0.923940 0.771126 0.111409 -0.391232
O23   O     O_R   0.879070 0.339940 0.805240 -0.426432
O24   O     O_2   0.701655 0.870848 0.349447 -0.187273
O25   O     O_2   0.722437 0.053136 0.310725 -0.191820
O26   O     O_3   0.847176 0.076051 0.388598 -0.391240
O27   O     O_2   0.330695 0.277559 0.189276 -0.191821
O28   O     O_2   0.169193 0.298343 0.150554 -0.187270
O29   O     O_3   0.228870 0.152819 0.111404 -0.391236
O30   O     O_2   0.129146 0.830805 0.349444 -0.187274
O31   O     O_2   0.946866 0.669301 0.310718 -0.191822
O32   O     O_3   0.923937 0.771124 0.388587 -0.391234
O33   O     O_2   0.722437 0.053137 0.189278 -0.191822
O34   O     O_R   0.460870 0.120930 0.694760 -0.426316
O35   O     O_2   0.701656 0.870853 0.150555 -0.187271
O36   O     O_3   0.847181 0.076060 0.111407 -0.391239
O37   O     O_2   0.169192 0.298342 0.349446 -0.187270
O38   O     O_2   0.330693 0.277559 0.310723 -0.191824
O39   O     O_3   0.228869 0.152814 0.388594 -0.391235
O40   O     O_2   0.797330 0.036582 0.648251 -0.121454
O41   O     O_2   0.607517 0.915231 0.693153 -0.227644
O42   O     O_3   0.649130 0.820439 0.616909 -0.507298
O43   O     O_2   0.084774 0.692312 0.806851 -0.227556
O44   O     O_2   0.963387 0.760738 0.851748 -0.121673
O45   O     O_R   0.660060 0.539130 0.805240 -0.426353
O46   O     O_3   0.179528 0.828712 0.883099 -0.507373
O47   O     O_2   0.239224 0.202651 0.648240 -0.121547
O48   O     O_2   0.307707 0.392453 0.693155 -0.227733
O49   O     O_3   0.171317 0.350886 0.616909 -0.507275
O50   O     O_2   0.607505 0.915205 0.806854 -0.227492
O51   O     O_2   0.797330 0.036614 0.851740 -0.121573
O52   O     O_3   0.649183 0.820474 0.883101 -0.507398
O53   O     O_2   0.963357 0.760698 0.648266 -0.121796
O54   O     O_2   0.084809 0.692318 0.693142 -0.227379
O55   O     O_3   0.179495 0.828732 0.616893 -0.507464
O56   O     O_R   0.879070 0.339940 0.694760 -0.426414
O57   O     O_2   0.307718 0.392452 0.806843 -0.227835
O58   O     O_2   0.239207 0.202656 0.851767 -0.121348
O59   O     O_3   0.171334 0.350923 0.883088 -0.507217
O60   O     O_R   0.120930 0.460870 0.305240 -0.402413
O61   O     O_R   0.539130 0.660060 0.194760 -0.402411
O62   O     O_R   0.339940 0.879070 0.305240 -0.402411
S1    S     S_3+6 0.007379 0.723592 0.140829 0.094879
S2    S     S_3+6 0.665209 0.946943 0.857137 0.097778
S3    S     S_3+6 0.053045 0.718272 0.642862 0.097742
S4    S     S_3+6 0.281729 0.334798 0.857137 0.097833
S5    S     S_3+6 0.716207 0.992615 0.359174 0.094877
S6    S     S_3+6 0.276406 0.283789 0.140827 0.094880
S7    S     S_3+6 0.007377 0.723590 0.359169 0.094878
S8    S     S_3+6 0.716210 0.992621 0.140829 0.094877
S9    S     S_3+6 0.276405 0.283787 0.359172 0.094879
S10   S     S_3+6 0.665200 0.946933 0.642866 0.097821
S11   S     S_3+6 0.053050 0.718276 0.857137 0.097766
S12   S     S_3+6 0.281725 0.334788 0.642863 0.097802

loop_
_geom_bond_atom_site_label_1
_geom_bond_atom_site_label_2
_ccdc_geom_bond_type
C3    C104  A    
O30   S7    D    
C12   O16   A    
C32   O7    A    
C4    C103  A    
C35   C74   A    
C89   F21   S    
C106  F5    S    
C86   F12   S    
C108  F7    S    
C52   S6    S    
C58   C87   S    
O21   S1    D    
C15   C94   A    
C88   C101  A    
C34   H12   S    
C64   C83   A    
O24   S5    D    
C44   C64   A    
C5    F10   S    
C30   C38   A    
C22   C101  A    
C46   C62   A    
Cr3   O56   S    
C18   C24   A    
C84   C97   A    
C76   O11   A    
C28   C68   A    
C8    C99   A    
O37   S9    D    
Cr5   O3    S    
C90   F20   S    
C43   O12   A    
O36   S8    S    
C87   O4    A    
C66   C82   A    
C41   S10   S    
C1    O5    A    
C61   C80   A    
C80   F23   S    
C32   O1    A    
C28   H22   S    
C33   C36   A    
O49   S12   S    
O58   S4    D    
Cr1   O34   S    
Cr3   O10   S    
C59   C89   A    
C12   O62   A    
C21   C64   S    
O42   S10   S    
O51   S2    D    
Cr1   O5    S    
C33   C72   A    
C35   H1    S    
Cr2   O18   S    
C45   C71   A    
Cr2   O6    S    
C8    F14   S    
Cr5   O61   S    
C6    C94   A    
C40   C67   A    
C20   C100  A    
C20   C73   A    
C49   S9    S    
C14   C67   A    
C49   C75   A    
C50   S8    S    
Cr2   O45   S    
C51   C57   A    
C18   C97   A    
O48   S12   D    
O57   S4    D    
H8    O32   S    
C52   C79   A    
C86   C100  A    
C91   C104  A    
C14   C93   A    
C46   C72   A    
C36   H21   S    
C3    F8    S    
Cr5   O13   S    
C65   O34   A    
O50   S2    D    
Cr2   O9    S    
C31   C71   A    
Cr4   O11   S    
C28   C34   A    
C17   C70   A    
C84   F2    S    
C59   C76   S    
H7    O29   S    
Cr5   O16   S    
C38   H19   S    
C19   C72   A    
C15   C20   A    
O22   S1    S    
C40   S11   S    
C7    C93   A    
O32   S7    S    
C26   C105  A    
H15   O52   S    
C105  C108  A    
C43   O8    A    
H10   O39   S    
Cr6   O4    S    
C41   C68   A    
C29   C69   A    
Cr2   O12   S    
C16   C26   A    
C48   C53   A    
Cr4   O2    S    
C62   C85   A    
Cr5   O19   S    
Cr3   O23   S    
O54   S3    D    
C65   O10   A    
C51   S7    S    
C25   C78   A    
C50   C58   A    
C48   C74   A    
O43   S11   D    
C48   S1    S    
O38   S9    D    
C32   C63   S    
O41   S10   D    
Cr1   O1    S    
C19   C99   A    
C38   C78   A    
C27   C35   A    
C13   O17   A    
C30   H3    S    
C45   C63   A    
C42   C69   A    
C40   C61   A    
C31   C37   A    
C4    F9    S    
O44   S11   D    
O28   S6    D    
C46   S12   S    
C37   H20   S    
C19   C23   A    
C10   F16   S    
C13   C53   S    
C85   C99   A    
C36   C75   A    
O40   S10   D    
C98   O14   A    
C60   C81   A    
C24   C77   A    
O39   S9    S    
C81   F22   S    
C91   F19   S    
C10   C96   A    
C6    C107  A    
C29   C39   A    
C89   C102  A    
C1    C66   S    
C7    C106  A    
C76   O3    A    
O20   S1    D    
C17   C96   A    
H16   O55   S    
C44   C70   A    
C21   O6    A    
H11   O42   S    
C47   C73   A    
C33   H24   S    
C58   C90   A    
C80   C93   A    
C2    O15   A    
H14   O49   S    
O55   S3    S    
C60   C65   S    
C9    F15   S    
C21   O56   A    
Cr3   O18   S    
H13   O46   S    
H17   O59   S    
C82   F4    S    
O26   S5    S    
C50   C77   A    
C107  F6    S    
C101  C106  A    
Cr1   O8    S    
C13   O2    A    
C47   C55   A    
H6    O26   S    
O35   S8    D    
C11   C95   A    
C18   C71   A    
C23   C102  A    
C37   C77   A    
C5    C102  A    
C100  C107  A    
C9    C97   A    
C82   C95   A    
C57   C91   A    
C92   F18   S    
Cr4   O60   S    
C54   O9    A    
C16   C69   A    
C41   C60   A    
C23   C75   A    
C11   F17   S    
C5    C8    A    
C25   C104  A    
O46   S11   S    
Cr4   O19   S    
C47   S5    S    
C54   C61   S    
C42   S4    S    
Cr6   O19   S    
C87   O13   A    
C63   C84   A    
O52   S2    S    
C15   C68   A    
C26   C79   A    
C49   C59   A    
C39   H18   S    
Cr6   O62   S    
C24   C103  A    
C17   C25   A    
H5    O22   S    
C14   C22   A    
C88   F1    S    
O27   S6    D    
C4    C9    A    
C51   C78   A    
C3    C10   A    
C2    C56   S    
C27   H23   S    
C81   C94   A    
C16   C95   A    
Cr1   O18   S    
C83   F3    S    
C83   C96   A    
C55   C86   A    
O29   S6    S    
C29   H4    S    
C98   O60   A    
Cr6   O14   S    
C2    O61   A    
O33   S8    D    
O59   S4    S    
C53   C88   A    
O53   S3    D    
C45   S2    S    
C1    O45   A    
C44   S3    S    
C57   C98   S    
C90   C103  A    
O47   S12   D    
C12   C55   S    
C27   C67   A    
C34   C73   A    
O25   S5    D    
C92   C105  A    
C30   C70   A    
Cr6   O17   S    
C11   C108  A    
C42   C66   A    
C22   C74   A    
H9    O36   S    
Cr3   O7    S    
C85   F24   S    
O31   S7    D    
C7    F13   S    
C31   H2    S    
C56   C92   A    
C54   O23   A    
C6    F11   S    
C52   C56   A    
C43   C62   S    
C39   C79   A    
Cr4   O15   S    
