data_mof_unit_55655.cif
_audit_creation_date              2012-12-11T14:14:37-0500
_audit_creation_method            fapswitch 2.2
_symmetry_space_group_name_H-M    P1
_symmetry_Int_Tables_number       1
_space_group_crystal_system       triclinic
_cell_length_a                    24.507097
_cell_length_b                    17.266583
_cell_length_c                    15.901859
_cell_angle_alpha                 88.7816
_cell_angle_beta                  129.288833
_cell_angle_gamma                 90.572985
_cell_volume                      5206.71939533

loop_
_atom_site_label
_atom_site_type_symbol
_atom_type_description
_atom_site_fract_x
_atom_site_fract_y
_atom_site_fract_z
_atom_type_partial_charge
C1    C     C_R   0.336547 0.383260 0.212019 -0.128658
C2    C     C_R   0.658526 0.371204 0.776551 -0.154435
C3    C     C_R   0.836942 0.882289 0.212991 -0.128650
C4    C     C_R   0.158692 0.871508 0.777055 -0.155479
C5    C     C_R   0.404197 0.637839 0.587313 0.511153
C6    C     C_R   0.610036 0.617789 0.411290 0.492483
C7    C     C_R   0.904284 0.137352 0.587891 0.496661
C8    C     C_R   0.110487 0.116961 0.411425 0.488582
C9    C     C_R   0.353977 0.681625 0.493263 0.076915
C10   C     C_R   0.675302 0.641726 0.502271 0.055079
C11   C     C_R   0.854490 0.181663 0.494314 0.072606
C12   C     C_R   0.175761 0.140724 0.502379 0.056789
C13   C     C_R   0.350641 0.627437 0.138994 0.093622
C14   C     C_R   0.647496 0.631863 0.854506 0.120682
C15   C     C_R   0.850942 0.128060 0.139412 0.096244
C16   C     C_R   0.147364 0.132600 0.854014 0.126466
C17   C     C_2   0.749078 0.647082 0.447282 0.714672
C18   C     C_2   0.333213 0.795936 0.559179 0.720010
C19   C     C_2   0.250292 0.145961 0.448772 0.720703
C20   C     C_2   0.835335 0.294994 0.563796 0.726554
C21   C     C_2   0.729645 0.676872 0.502621 -0.250363
C22   C     C_2   0.313862 0.748883 0.479204 -0.298976
C23   C     C_2   0.229804 0.176267 0.502396 -0.241083
C24   C     C_2   0.816417 0.250667 0.481525 -0.320160
C25   C     C_2   0.287875 0.198828 0.427121 -0.424027
C26   C     C_2   0.779386 0.332071 0.557025 -0.475470
C27   C     C_2   0.787916 0.698650 0.427016 -0.403099
C28   C     C_2   0.277002 0.833077 0.552134 -0.486430
C29   C     C_2   0.348379 0.230665 0.510493 0.414994
C30   C     C_2   0.718248 0.295976 0.516712 0.462122
C31   C     C_2   0.848020 0.730854 0.510826 0.408277
C32   C     C_2   0.217702 0.795158 0.517381 0.463199
C33   C     C_2   0.663875 0.267706 0.895966 -0.302881
C34   C     C_2   0.325383 0.293900 0.080691 -0.359613
C35   C     C_2   0.163988 0.768083 0.896502 -0.304873
C36   C     C_2   0.826179 0.792188 0.082562 -0.358857
C37   C     C_2   0.691012 0.208269 0.879814 0.523759
C38   C     C_2   0.302457 0.229669 0.098377 0.529780
C39   C     C_2   0.190904 0.708531 0.880110 0.525788
C40   C     C_2   0.802351 0.728398 0.099395 0.528250
C41   C     C_2   0.303334 0.654513 0.025996 -0.150708
C42   C     C_2   0.694332 0.663581 0.963219 -0.169931
C43   C     C_2   0.803749 0.155374 0.026531 -0.151810
C44   C     C_2   0.194232 0.164855 0.962468 -0.175256
C45   C     C_R   0.604172 0.369038 0.415692 -0.158621
C46   C     C_R   0.414688 0.354474 0.589957 -0.130421
C47   C     C_R   0.103802 0.868585 0.415677 -0.159621
C48   C     C_R   0.914777 0.854453 0.590006 -0.127945
C49   C     C_2   0.233542 0.653041 0.968707 -0.202578
C50   C     C_2   0.762417 0.674344 0.012059 -0.196810
C51   C     C_2   0.733920 0.153041 0.968674 -0.202461
C52   C     C_2   0.262343 0.175480 0.011220 -0.202275
C53   C     C_R   0.678619 0.374874 0.596496 -0.058323
C54   C     C_R   0.339565 0.355728 0.410394 -0.085799
C55   C     C_R   0.178047 0.874045 0.596547 -0.053291
C56   C     C_R   0.839420 0.855795 0.410487 -0.086074
C57   C     C_R   0.572664 0.373926 0.786496 0.498822
C58   C     C_R   0.422941 0.389022 0.201933 0.473026
C59   C     C_R   0.072742 0.874216 0.786794 0.499127
C60   C     C_R   0.923261 0.887973 0.202761 0.470839
C61   C     C_R   0.359778 0.354277 0.160389 0.155784
C62   C     C_R   0.632878 0.334689 0.822930 0.096050
C63   C     C_R   0.860564 0.852537 0.162273 0.156714
C64   C     C_R   0.133078 0.835116 0.823558 0.095287
C65   C     C_R   0.665607 0.338628 0.510065 0.102154
C66   C     C_R   0.366301 0.310274 0.501884 0.053794
C67   C     C_R   0.164760 0.837460 0.510156 0.106647
C68   C     C_R   0.866250 0.810284 0.502006 0.052553
C69   C     C_R   0.335671 0.640920 0.405470 -0.207534
C70   C     C_R   0.683280 0.616183 0.592297 -0.223987
C71   C     C_R   0.836000 0.141263 0.406013 -0.197285
C72   C     C_R   0.183494 0.115745 0.592356 -0.222070
C73   C     C_R   0.420983 0.609109 0.198274 -0.028313
C74   C     C_R   0.577880 0.610428 0.798844 -0.152062
C75   C     C_R   0.921295 0.109696 0.198747 -0.034219
C76   C     C_R   0.077794 0.110890 0.798571 -0.178396
C77   C     C_R   0.666830 0.610098 0.793596 -0.100267
C78   C     C_R   0.331785 0.606530 0.201370 -0.133345
C79   C     C_R   0.166718 0.110513 0.793238 -0.099314
C80   C     C_R   0.831897 0.106816 0.201488 -0.133177
H1    H     H_    0.283671 0.379447 0.185291 0.132552
H2    H     H_    0.709394 0.361980 0.797890 0.152524
H3    H     H_    0.784019 0.878424 0.186039 0.133932
H4    H     H_    0.209658 0.862421 0.798687 0.151766
H5    H     H_    0.751725 0.731145 0.545185 0.135116
H6    H     H_    0.261008 0.754375 0.401380 0.138379
H7    H     H_    0.249735 0.232014 0.541449 0.130076
H8    H     H_    0.764522 0.258916 0.402768 0.143695
H9    H     H_    0.256601 0.225157 0.346462 0.172486
H10   H     H_    0.789149 0.390385 0.588131 0.124008
H11   H     H_    0.757766 0.723777 0.345804 0.178998
H12   H     H_    0.284436 0.892902 0.577285 0.127014
H13   H     H_    0.209711 0.625509 0.000286 0.123603
H14   H     H_    0.785919 0.655930 0.976643 0.117115
H15   H     H_    0.710051 0.124835 0.999799 0.123883
H16   H     H_    0.285839 0.156691 0.975951 0.118416
H17   H     H_    0.326174 0.684144 0.993815 0.173236
H18   H     H_    0.671595 0.685427 0.998707 0.174756
H19   H     H_    0.826604 0.185595 0.994751 0.172715
H20   H     H_    0.171559 0.187013 0.997904 0.172309
H21   H     H_    0.666367 0.267885 0.966738 0.144319
H22   H     H_    0.319482 0.301219 0.007188 0.154695
H23   H     H_    0.166479 0.768242 0.967273 0.143430
H24   H     H_    0.821217 0.799062 0.009821 0.155100
H25   H     H_    0.584399 0.354416 0.336213 0.095706
H26   H     H_    0.444024 0.333761 0.670912 0.216426
H27   H     H_    0.084127 0.854152 0.336166 0.093058
H28   H     H_    0.944254 0.833723 0.670975 0.216692
H29   H     H_    0.726844 0.372468 0.679549 0.111635
H30   H     H_    0.299437 0.338974 0.327797 0.134174
H31   H     H_    0.226283 0.871417 0.679566 0.111474
H32   H     H_    0.798920 0.839231 0.327944 0.133511
H33   H     H_    0.295194 0.656233 0.320837 0.135423
H34   H     H_    0.731129 0.617253 0.675894 0.144863
H35   H     H_    0.795984 0.157303 0.321522 0.135752
H36   H     H_    0.231277 0.116882 0.676002 0.144172
H37   H     H_    0.446607 0.607148 0.163822 0.159481
H38   H     H_    0.551513 0.608750 0.833037 0.162746
H39   H     H_    0.947314 0.108544 0.164856 0.159929
H40   H     H_    0.051369 0.109573 0.832673 0.167671
H41   H     H_    0.718716 0.609281 0.816479 0.092231
H42   H     H_    0.279218 0.602767 0.175789 0.098964
H43   H     H_    0.218563 0.109890 0.815974 0.091358
H44   H     H_    0.779291 0.103224 0.175800 0.099371
N1    N     N_R   0.389060 0.424180 0.294540 -0.069168
N2    N     N_R   0.610940 0.424180 0.705460 -0.073271
N3    N     N_R   0.889060 0.924180 0.294540 -0.069616
N4    N     N_R   0.110940 0.924180 0.705460 -0.072843
N5    N     N_R   0.579670 0.423790 0.443360 -0.059558
N6    N     N_R   0.420330 0.423790 0.556640 -0.059080
N7    N     N_R   0.079670 0.923790 0.443360 -0.058881
N8    N     N_R   0.920330 0.923790 0.556640 -0.058911
N9    N     N_R   0.625470 0.423490 0.556600 -0.043361
N10   N     N_R   0.374530 0.423490 0.443400 -0.038580
N11   N     N_R   0.125470 0.923490 0.556600 -0.044327
N12   N     N_R   0.874530 0.923490 0.443400 -0.038293
N13   N     N_R   0.555250 0.423100 0.705420 -0.119577
N14   N     N_R   0.444750 0.423100 0.294580 -0.098091
N15   N     N_R   0.055250 0.923100 0.705420 -0.118810
N16   N     N_R   0.944750 0.923100 0.294580 -0.098221
N17   N     N_R   0.375210 0.577180 0.443400 -0.063873
N18   N     N_R   0.624790 0.577180 0.556600 -0.068322
N19   N     N_R   0.875210 0.077180 0.443400 -0.064138
N20   N     N_R   0.124790 0.077180 0.556600 -0.068603
N21   N     N_R   0.445430 0.577570 0.294580 -0.054534
N22   N     N_R   0.554570 0.577570 0.705420 -0.064686
N23   N     N_R   0.945430 0.077570 0.294580 -0.054167
N24   N     N_R   0.054570 0.077570 0.705420 -0.063933
N25   N     N_R   0.611620 0.576500 0.705460 -0.046049
N26   N     N_R   0.388380 0.576500 0.294540 -0.048314
N27   N     N_R   0.111620 0.076500 0.705460 -0.045765
N28   N     N_R   0.888380 0.076500 0.294540 -0.048922
N29   N     N_R   0.421010 0.576890 0.556640 -0.108094
N30   N     N_R   0.578990 0.576890 0.443360 -0.101497
N31   N     N_R   0.921010 0.076890 0.556640 -0.106239
N32   N     N_R   0.078990 0.076890 0.443360 -0.100088
Ni1   Ni    Ni4+2 0.383200 0.500680 0.370150 0.226134
Ni2   Ni    Ni4+2 0.616800 0.500680 0.629850 0.207713
Ni3   Ni    Ni4+2 0.883200 0.000680 0.370150 0.226353
Ni4   Ni    Ni4+2 0.116800 0.000680 0.629850 0.207721
Ni5   Ni    Ni4+2 0.512440 0.500680 0.370150 0.243253
Ni6   Ni    Ni4+2 0.487560 0.500680 0.629850 0.225141
Ni7   Ni    Ni4+2 0.012440 0.000680 0.370150 0.243962
Ni8   Ni    Ni4+2 0.987560 0.000680 0.629850 0.224212
Cl1   Cl    Cl    0.401336 0.182908 0.639580 -0.697746
Cl2   Cl    Cl    0.700090 0.197142 0.481971 -0.562334
Cl3   Cl    Cl    0.900036 0.683808 0.640407 -0.695032
Cl4   Cl    Cl    0.203425 0.694619 0.493365 -0.555564
Cl5   Cl    Cl    0.684072 0.198357 0.762865 -0.582895
Cl6   Cl    Cl    0.317351 0.208241 0.220668 -0.721573
Cl7   Cl    Cl    0.183943 0.698701 0.763124 -0.579476
Cl8   Cl    Cl    0.815333 0.707647 0.220306 -0.716671
O1    O     O_3   0.541554 0.368122 0.835019 -0.650474
C81   C     C_3   0.513559 0.440148 0.831785 0.186302
H45   H     H_    0.482526 0.470286 0.751929 0.120458
H46   H     H_    0.557782 0.478110 0.893764 0.076452
C82   C     C_3   0.464833 0.429243 0.859413 -0.307257
H47   H     H_    0.492507 0.393742 0.935154 0.222324
H48   H     H_    0.452592 0.488046 0.870496 0.204404
C83   C     C_3   0.394959 0.390115 0.771626 -0.789196
H49   H     H_    0.367439 0.420913 0.692201 0.260464
H50   H     H_    0.360469 0.392015 0.794320 0.247035
H51   H     H_    0.403587 0.328326 0.765141 0.284237
O2    O     O_3   0.425705 0.426975 0.127070 -0.666723
C84   C     C_3   0.495107 0.437027 0.167106 0.121506
H52   H     H_    0.516277 0.379565 0.169968 0.119932
H53   H     H_    0.527547 0.467153 0.245860 0.138670
C85   C     C_3   0.494806 0.487198 0.087348 -0.209586
H54   H     H_    0.454192 0.463794 0.006065 0.199701
H55   H     H_    0.478693 0.547234 0.084531 0.233452
C86   C     C_3   0.567513 0.488385 0.116690 -0.968227
H56   H     H_    0.607487 0.510382 0.199923 0.326807
H57   H     H_    0.566451 0.526938 0.058911 0.273269
H58   H     H_    0.583667 0.429283 0.113912 0.244095
O3    O     O_3   0.041470 0.868472 0.835091 -0.651219
C87   C     C_3   0.013312 0.940486 0.831546 0.186022
H59   H     H_    0.982638 0.970720 0.751820 0.122839
H60   H     H_    0.057431 0.978418 0.893834 0.077445
C88   C     C_3   0.964071 0.929561 0.858237 -0.306897
H61   H     H_    0.991086 0.893331 0.933240 0.222458
H62   H     H_    0.952297 0.988296 0.870271 0.206213
C89   C     C_3   0.893856 0.891547 0.769281 -0.789148
H63   H     H_    0.867084 0.922841 0.690368 0.261816
H64   H     H_    0.858986 0.893876 0.791243 0.247466
H65   H     H_    0.901810 0.829658 0.762152 0.283721
O4    O     O_3   0.925307 0.925195 0.126816 -0.666914
C90   C     C_3   0.994443 0.936297 0.166233 0.122948
H66   H     H_    0.016279 0.879186 0.169550 0.119073
H67   H     H_    0.026794 0.966746 0.244761 0.139827
C91   C     C_3   0.992993 0.986584 0.085482 -0.199264
H68   H     H_    0.952400 0.962724 0.004442 0.199157
H69   H     H_    0.976289 0.046354 0.082529 0.231389
C92   C     C_3   0.065387 0.988810 0.113938 -0.985240
H70   H     H_    0.105422 0.010244 0.197427 0.326038
H71   H     H_    0.063918 0.028240 0.056479 0.274752
H72   H     H_    0.081744 0.930102 0.110262 0.244793
Cl9   Cl    Cl    0.416496 0.638527 0.708816 -0.626785
Cl10  Cl    Cl    0.577245 0.634229 0.277649 -0.718162
Cl11  Cl    Cl    0.915712 0.136135 0.708739 -0.629158
Cl12  Cl    Cl    0.078748 0.131551 0.278111 -0.728593
O5    O     O_3   0.721569 0.577317 0.393886 -0.636562
C93   C     C_3   0.776033 0.527148 0.420468 0.144581
H73   H     H_    0.764222 0.468546 0.435064 0.113655
H74   H     H_    0.829437 0.542423 0.496592 0.136391
C94   C     C_3   0.776825 0.522579 0.325286 -0.249573
H75   H     H_    0.724526 0.503316 0.251606 0.209564
H76   H     H_    0.787631 0.580656 0.307914 0.265236
C95   C     C_3   0.833058 0.465897 0.350513 -0.959982
H77   H     H_    0.886142 0.485522 0.421824 0.279710
H78   H     H_    0.831757 0.463068 0.279571 0.286174
H79   H     H_    0.823237 0.406996 0.367803 0.243904
O6    O     O_3   0.402795 0.801489 0.652638 -0.602975
C96   C     C_3   0.431021 0.873237 0.652297 0.214164
H80   H     H_    0.475250 0.887410 0.738185 0.159612
H81   H     H_    0.392761 0.922264 0.618707 0.066625
C97   C     C_3   0.460093 0.867162 0.591088 -0.420859
H82   H     H_    0.498895 0.818798 0.626682 0.232067
H83   H     H_    0.416435 0.854632 0.504331 0.192390
C98   C     C_3   0.495843 0.942248 0.597519 -0.838602
H84   H     H_    0.457987 0.991422 0.562692 0.266241
H85   H     H_    0.514976 0.936676 0.550600 0.273174
H86   H     H_    0.541559 0.954538 0.683343 0.271115
O7    O     O_3   0.226699 0.073252 0.402021 -0.641559
C99   C     C_3   0.279109 0.032635 0.408067 0.175008
H87   H     H_    0.278021 0.971163 0.428934 0.099437
H88   H     H_    0.333809 0.052999 0.473914 0.137251
C100  C     C_3   0.262736 0.034933 0.297734 -0.282704
H89   H     H_    0.215752 0.998917 0.239553 0.196658
H90   H     H_    0.250682 0.095120 0.264753 0.262764
C101  C     C_3   0.324329 0.003970 0.306636 -0.887295
H91   H     H_    0.371702 0.040520 0.361599 0.296869
H92   H     H_    0.310200 0.005199 0.225061 0.281089
H93   H     H_    0.336643 0.943301 0.338287 0.238175
O8    O     O_3   0.904098 0.298550 0.659621 -0.600095
C102  C     C_3   0.940521 0.358516 0.651769 0.203027
H94   H     H_    0.977241 0.384871 0.733181 0.159538
H95   H     H_    0.905588 0.406504 0.593996 0.056705
C103  C     C_3   0.983744 0.325262 0.621611 -0.373641
H96   H     H_    0.014704 0.274378 0.675200 0.232777
H97   H     H_    0.947691 0.305903 0.536094 0.195926
C104  C     C_3   0.034301 0.385289 0.633694 -0.869093
H98   H     H_    0.004725 0.436862 0.581002 0.270876
H99   H     H_    0.063734 0.359732 0.609318 0.268253
H100  H     H_    0.072794 0.403485 0.719560 0.266376

loop_
_geom_bond_atom_site_label_1
_geom_bond_atom_site_label_2
_ccdc_geom_bond_type
C15   C75   A    
C86   H57   S    
C102  H95   S    
N2    N13   A    
C45   N5    A    
N26   Ni1   S    
C74   N22   A    
N30   Ni5   S    
C19   C23   D    
C98   H84   S    
N24   N27   A    
N17   N29   A    
C72   N20   A    
C95   H78   S    
C57   C62   A    
C48   H28   S    
C92   H70   S    
C99   H87   S    
N16   Ni7   S    
C7    C11   A    
N22   Ni6   S    
C12   C23   S    
C69   H33   S    
C59   C64   A    
C76   H40   S    
C89   H64   S    
C60   C63   A    
C33   H21   S    
C14   C74   A    
C79   N27   A    
N15   Ni8   S    
N4    N15   A    
C9    C69   A    
C46   N6    A    
C46   C66   A    
C35   H23   S    
C42   H18   S    
C37   Cl5   S    
C104  H98   S    
C37   C51   S    
C11   C71   A    
C9    C22   S    
C84   H53   S    
C38   C52   S    
C1    H1    S    
O7    C99   S    
C54   N10   A    
C40   C50   S    
C11   C24   S    
C94   C95   S    
O2    C84   S    
C54   H30   S    
C85   H55   S    
N9    Ni2   S    
C14   C77   A    
C29   Cl1   S    
C81   H45   S    
C3    N3    A    
C39   Cl7   S    
C6    Cl10  S    
N12   Ni3   S    
C41   C49   D    
C5    Cl9   S    
C20   C24   D    
N32   Ni7   S    
C83   H50   S    
C33   C62   S    
C82   H48   S    
C89   H65   S    
C90   C91   S    
C27   H11   S    
C35   C64   S    
C59   N15   A    
N20   Ni4   S    
C36   C63   S    
C53   C65   A    
N25   Ni2   S    
C16   C44   S    
N21   N26   A    
C83   H51   S    
C19   O7    S    
C14   C42   S    
C7    Cl11  S    
N6    Ni6   S    
C58   C61   A    
C92   H71   S    
C12   C72   A    
C102  C103  S    
C43   C51   D    
C88   H61   S    
C23   H7    S    
C4    C64   A    
N6    N10   A    
N18   Ni2   S    
C87   C88   S    
C78   H42   S    
C57   N13   A    
C28   C32   D    
C47   C67   A    
C95   H77   S    
C56   N12   A    
C45   H25   S    
C38   Cl6   S    
C55   N11   A    
C100  H90   S    
C10   C21   S    
C25   C29   D    
C31   C68   S    
C74   H38   S    
C21   H5    S    
C70   N18   A    
C73   H37   S    
C89   H63   S    
C4    N4    A    
C27   C31   D    
C86   H56   S    
N24   Ni8   S    
N5    Ni5   S    
C36   C40   D    
C18   C28   S    
C30   Cl2   S    
C87   H60   S    
C97   H82   S    
C77   N25   A    
C104  H99   S    
O4    C90   S    
C50   H14   S    
C84   C85   S    
O3    C87   S    
C93   C94   S    
C59   O3    S    
C101  H91   S    
O1    C81   S    
C79   H43   S    
C71   H35   S    
C34   C61   S    
C33   C37   D    
C103  H96   S    
C90   H66   S    
C73   N21   A    
C85   H54   S    
C17   C27   S    
N20   N32   A    
N21   Ni5   S    
C103  H97   S    
N8    Ni8   S    
C5    C9    A    
O5    C93   S    
C8    Cl12  S    
C88   C89   S    
N22   N25   A    
C96   H81   S    
N2    Ni2   S    
N19   N31   A    
C15   C80   A    
C4    H4    S    
N7    Ni7   S    
C8    C12   A    
C82   C83   S    
C70   H34   S    
C94   H75   S    
C53   N9    A    
C98   H85   S    
C78   N26   A    
C34   H22   S    
N18   N30   A    
C93   H74   S    
C24   H8    S    
C81   C82   S    
C88   H62   S    
C6    N30   A    
C42   C50   D    
C32   C67   S    
C57   O1    S    
C2    N2    A    
N17   Ni1   S    
C39   C49   S    
C31   Cl3   S    
C13   C73   A    
C58   N14   A    
C91   H68   S    
C101  H92   S    
C47   H27   S    
C85   C86   S    
C45   C65   A    
N1    N14   A    
N5    N9    A    
C2    H2    S    
C103  C104  S    
C60   N16   A    
C102  H94   S    
N3    Ni3   S    
C40   Cl8   S    
C83   H49   S    
N4    Ni4   S    
C71   N19   A    
C80   H44   S    
C100  C101  S    
C53   H29   S    
C80   N28   A    
C99   H88   S    
N8    N12   A    
C13   C78   A    
C58   O2    S    
N11   Ni4   S    
C17   O5    S    
C55   H31   S    
C16   C76   A    
N1    Ni1   S    
C25   H9    S    
N7    N11   A    
C10   C70   A    
C1    N1    A    
C87   H59   S    
C48   C68   A    
C1    C61   A    
C44   C52   D    
C6    C10   A    
C104  H100  S    
C55   C67   A    
C100  H89   S    
C97   C98   S    
C20   O8    S    
C92   H72   S    
C54   C66   A    
C18   C22   D    
C3    C63   A    
N31   Ni8   S    
C26   H10   S    
C91   C92   S    
C72   H36   S    
C91   H69   S    
C99   C100  S    
N29   Ni6   S    
C36   H24   S    
C16   C79   A    
C75   N23   A    
N27   Ni4   S    
O8    C102  S    
C32   Cl4   S    
N23   N28   A    
C86   H58   S    
C15   C43   S    
C75   H39   S    
C56   C68   A    
C43   H19   S    
C3    H3    S    
C44   H20   S    
C60   O4    S    
C84   H52   S    
N13   Ni6   S    
C20   C26   S    
C101  H93   S    
C5    N29   A    
C35   C39   D    
C46   H26   S    
O6    C96   S    
C94   H76   S    
C97   H83   S    
C52   H16   S    
N14   Ni5   S    
C41   H17   S    
N19   Ni3   S    
C22   H6    S    
N23   Ni7   S    
C93   H73   S    
C8    N32   A    
C96   C97   S    
C81   H46   S    
N28   Ni3   S    
C30   C65   S    
C77   H41   S    
C19   C25   S    
C29   C66   S    
C28   H12   S    
C98   H86   S    
N10   Ni1   S    
C7    N31   A    
C76   N24   A    
C82   H47   S    
N3    N16   A    
C47   N7    A    
C90   H67   S    
C13   C41   S    
C48   N8    A    
C18   O6    S    
C49   H13   S    
C34   C38   D    
C69   N17   A    
C56   H32   S    
C95   H79   S    
C2    C62   A    
C96   H80   S    
C51   H15   S    
C26   C30   D    
C17   C21   D    
