data_mof_unit_50231.cif
_audit_creation_date              2012-12-10T17:21:12-0500
_audit_creation_method            fapswitch 2.2
_symmetry_space_group_name_H-M    P1
_symmetry_Int_Tables_number       1
_space_group_crystal_system       triclinic
_cell_length_a                    10.182777
_cell_length_b                    10.848678
_cell_length_c                    10.746288
_cell_angle_alpha                 88.595205
_cell_angle_beta                  97.702791
_cell_angle_gamma                 80.298687
_cell_volume                      1158.25460457

loop_
_atom_site_label
_atom_site_type_symbol
_atom_type_description
_atom_site_fract_x
_atom_site_fract_y
_atom_site_fract_z
_atom_type_partial_charge
C1    C     C_R   0.440378 0.510204 0.265710 0.900972
C2    C     C_3   0.495089 0.880545 0.500597 -0.052493
C3    C     C_3   0.616674 0.909672 0.604775 0.170812
C4    C     C_3   0.349699 0.951045 0.541330 0.359532
C5    C     C_2   0.398697 0.506091 0.129795 -0.011653
C6    C     C_2   0.486204 0.527145 0.051606 0.210059
C7    C     C_2   0.601254 0.470853 0.868820 0.013605
C8    C     C_2   0.508215 0.450510 0.940548 0.121869
C9    C     C_2   0.060839 0.515327 0.478052 0.326225
C10   C     C_2   0.936128 0.485476 0.523893 0.192615
C11   C     C_R   0.498434 0.258758 0.499009 0.917976
C12   C     C_R   0.559520 0.485030 0.733512 0.897773
C13   C     C_R   0.499021 0.742517 0.500261 0.890557
C14   C     C_3   0.536851 0.073576 0.366065 0.281191
C15   C     C_3   0.517114 0.929937 0.360124 0.329502
C16   C     C_3   0.602440 0.056426 0.609011 -0.073828
C17   C     C_3   0.343088 0.097893 0.517022 0.214494
C18   C     C_3   0.492724 0.123661 0.497983 -0.097122
H1    H     H_    0.698252 0.081922 0.588450 0.188824
N1    N     N_2   0.157300 0.551950 0.551120 -0.063060
N2    N     N_2   0.842730 0.448000 0.448950 -0.102685
O1    O     O_R   0.568940 0.489540 0.307530 -0.614419
O2    O     O_R   0.348880 0.522880 0.340350 -0.610653
O3    O     O_R   0.610030 0.298130 0.483570 -0.610063
O4    O     O_R   0.389960 0.331470 0.516390 -0.599496
O5    O     O_R   0.651120 0.477120 0.659650 -0.633284
O6    O     O_R   0.431060 0.510460 0.692470 -0.610414
O7    O     O_R   0.610040 0.668530 0.483610 -0.630004
O8    O     O_R   0.389970 0.701870 0.516430 -0.618855
Zn1   Zn    Zn3+2 0.646940 0.477740 0.478080 0.903890
Zn2   Zn    Zn3+2 0.353060 0.522260 0.521920 0.921542
N3    N     N_3   0.679661 0.087529 0.361921 -0.454420
H2    H     H_    0.751529 0.022574 0.416955 0.181354
H3    H     H_    0.706273 0.080743 0.271278 0.192120
C19   C     C_3   0.338598 0.917096 0.682995 -0.881979
H4    H     H_    0.366210 0.815167 0.705928 0.253214
H5    H     H_    0.398529 0.963313 0.752937 0.243274
H6    H     H_    0.234538 0.944242 0.705904 0.214650
C20   C     C_3   0.606441 0.111511 0.741820 -0.925440
H7    H     H_    0.578406 0.214809 0.735873 0.249677
H8    H     H_    0.544679 0.073461 0.804548 0.250797
H9    H     H_    0.710892 0.089889 0.792602 0.230368
N4    N     N_3   0.612390 0.852203 0.729988 -0.469523
H10   H     H_    0.620198 0.755173 0.725580 0.163639
H11   H     H_    0.695792 0.866172 0.792801 0.192541
N5    N     N_3   0.432912 0.352464 0.905866 -0.489141
H12   H     H_    0.431724 0.295324 0.985201 0.190802
H13   H     H_    0.335312 0.389751 0.864774 0.205330
C21   C     C_3   0.549430 0.643342 0.069155 -0.943699
H14   H     H_    0.558218 0.688054 0.977344 0.248808
H15   H     H_    0.482992 0.714557 0.114081 0.232729
H16   H     H_    0.649815 0.620647 0.126902 0.254039
C22   C     C_3   0.742983 0.483335 0.922872 -0.957194
H17   H     H_    0.815298 0.414214 0.880874 0.247736
H18   H     H_    0.761821 0.578922 0.901405 0.240148
H19   H     H_    0.763042 0.461830 0.025839 0.257096
C23   C     C_3   0.257906 0.486190 0.082179 -0.988505
H20   H     H_    0.185063 0.548968 0.129384 0.262833
H21   H     H_    0.228558 0.514772 0.981429 0.248075
H22   H     H_    0.247280 0.387522 0.100706 0.245285
N6    N     N_3   0.919147 0.497925 0.653089 -0.494113
H23   H     H_    0.900202 0.412985 0.688191 0.202119
H24   H     H_    0.840027 0.570328 0.660635 0.213109
C24   C     C_3   0.068142 0.521725 0.339470 -0.863506
H25   H     H_    0.967155 0.538609 0.282492 0.213726
H26   H     H_    0.111536 0.605234 0.316546 0.241260
H27   H     H_    0.128426 0.434599 0.311731 0.250512
N7    N     N_3   0.884138 0.355831 0.368032 -0.431129
H28   H     H_    0.857491 0.273135 0.400311 0.207282
H29   H     H_    0.825893 0.380256 0.280540 0.202383
C25   C     C_3   0.461525 0.156574 0.246731 -0.900802
H30   H     H_    0.481845 0.253452 0.252498 0.234851
H31   H     H_    0.501265 0.119835 0.161022 0.226945
H32   H     H_    0.352367 0.163256 0.223467 0.234719
C26   C     C_3   0.137702 0.609438 0.669253 -0.664989
H33   H     H_    0.219112 0.663467 0.696251 0.231603
H34   H     H_    0.042514 0.678440 0.659607 0.177763
H35   H     H_    0.143923 0.536781 0.745265 0.213840
C27   C     C_3   0.396174 0.912922 0.259545 -0.908276
H36   H     H_    0.419242 0.924080 0.162069 0.241622
H37   H     H_    0.370443 0.818020 0.269204 0.225366
H38   H     H_    0.305559 0.982910 0.259919 0.256444
C28   C     C_3   0.637361 0.849553 0.303812 -0.860254
H39   H     H_    0.737920 0.837204 0.358634 0.245558
H40   H     H_    0.618721 0.754173 0.285775 0.265842
H41   H     H_    0.648277 0.890917 0.210869 0.221244
N8    N     N_3   0.751079 0.860986 0.571518 -0.505100
H42   H     H_    0.776020 0.764720 0.588540 0.204955
H43   H     H_    0.824972 0.895850 0.630968 0.157270
N9    N     N_3   0.288603 0.169659 0.620202 -0.425217
H44   H     H_    0.351775 0.160930 0.704926 0.206040
H45   H     H_    0.194871 0.149213 0.634562 0.173921
N10   N     N_3   0.247875 0.143503 0.402415 -0.476153
H46   H     H_    0.252294 0.236020 0.378504 0.212517
H47   H     H_    0.147999 0.150980 0.418337 0.185416
C29   C     C_3   0.213485 0.910985 0.476537 -0.802776
H48   H     H_    0.200399 0.898477 0.375524 0.224999
H49   H     H_    0.190214 0.824257 0.518458 0.261360
H50   H     H_    0.124715 0.977910 0.496455 0.191627

loop_
_geom_bond_atom_site_label_1
_geom_bond_atom_site_label_2
_ccdc_geom_bond_type
O4    Zn2   S    
N8    H42   S    
C11   C18   S    
N10   H46   S    
C9    C24   S    
C14   C25   S    
C14   C18   S    
C19   H4    S    
C26   H33   S    
C23   H20   S    
C7    C8    D    
C20   H8    S    
C22   H17   S    
C3    N4    S    
C1    C5    S    
C13   O8    A    
C19   H5    S    
C5    C6    D    
C23   H21   S    
C11   O4    A    
C29   H50   S    
C11   O3    A    
N6    H24   S    
C2    C13   S    
C4    C29   S    
C15   C27   S    
N7    H28   S    
C21   H15   S    
C29   H49   S    
C13   O7    A    
C9    C10   S    
C4    C19   S    
C1    O1    A    
N10   H47   S    
C20   H9    S    
C8    N5    S    
C22   H18   S    
C10   N2    D    
C7    C12   S    
N5    H13   S    
C12   O6    A    
O6    Zn2   S    
C24   H27   S    
C19   H6    S    
C20   H7    S    
C27   H37   S    
C23   H22   S    
C6    C8    S    
C3    N8    S    
N1    C26   S    
C12   O5    A    
O2    Zn2   S    
C2    C4    S    
N4    H10   S    
C27   H38   S    
C26   H34   S    
C9    N1    D    
N9    H45   S    
C28   H39   S    
C21   H16   S    
C29   H48   S    
C17   C18   S    
C2    C15   S    
N4    H11   S    
C24   H26   S    
C4    C17   S    
C16   C18   S    
C28   H40   S    
C1    O2    A    
N8    H43   S    
N2    N7    S    
C10   N6    S    
C17   N10   S    
C7    C22   S    
C25   H31   S    
C22   H19   S    
N5    H12   S    
O1    Zn1   S    
C17   N9    S    
C14   N3    S    
C25   H32   S    
C15   C28   S    
O5    Zn1   S    
N2    Zn1   S    
C5    C23   S    
N3    H2    S    
O7    Zn1   S    
C2    C3    S    
C25   H30   S    
O8    Zn2   S    
C24   H25   S    
N9    H44   S    
C16   H1    S    
C6    C21   S    
N6    H23   S    
C26   H35   S    
O3    Zn1   S    
C16   C20   S    
C27   H36   S    
C28   H41   S    
N7    H29   S    
C21   H14   S    
C14   C15   S    
C3    C16   S    
N3    H3    S    
N1    Zn2   S    
