data_mof_unit_42618.cif
_audit_creation_date              2012-12-10T17:40:29-0500
_audit_creation_method            fapswitch 2.2
_symmetry_space_group_name_H-M    P1
_symmetry_Int_Tables_number       1
_space_group_crystal_system       triclinic
_cell_length_a                    13.692288
_cell_length_b                    15.112221
_cell_length_c                    15.873118
_cell_angle_alpha                 90.027542
_cell_angle_beta                  70.16809
_cell_angle_gamma                 90.441026
_cell_volume                      3089.58410503

loop_
_atom_site_label
_atom_site_type_symbol
_atom_type_description
_atom_site_fract_x
_atom_site_fract_y
_atom_site_fract_z
_atom_type_partial_charge
C1    C     C_R   0.500388 0.671566 0.500241 0.860192
C2    C     C_R   0.499613 0.328435 0.499756 0.859959
C3    C     C_R   0.373310 0.475615 0.094969 -0.216224
C4    C     C_R   0.624942 0.469127 0.905779 -0.214262
C5    C     C_R   0.302112 0.475233 0.050246 -0.225877
C6    C     C_R   0.696101 0.467614 0.950516 -0.224276
C7    C     C_R   0.582233 0.186072 0.510835 -0.332316
C8    C     C_R   0.417767 0.813935 0.489163 -0.332399
C9    C     C_R   0.498616 0.231527 0.499513 -0.191875
C10   C     C_R   0.501388 0.768478 0.500478 -0.192564
C11   C     C_R   0.414986 0.184062 0.488131 0.545525
C12   C     C_R   0.585026 0.815946 0.511845 0.545503
C13   C     C_R   0.415127 0.091603 0.488319 -0.006257
C14   C     C_R   0.584883 0.908406 0.511661 -0.006297
C15   C     C_R   0.499597 0.046441 0.499864 0.015638
C16   C     C_R   0.500409 0.953567 0.500120 0.015630
C17   C     C_R   0.583305 0.093990 0.511125 0.116863
C18   C     C_R   0.416699 0.906018 0.488865 0.116891
C19   C     C_R   0.332363 0.043398 0.477108 -0.149843
C20   C     C_R   0.667647 0.956611 0.522872 -0.149708
C21   C     C_R   0.333192 0.951246 0.477398 -0.207923
C22   C     C_R   0.666813 0.048763 0.522590 -0.208029
C23   C     C_R   0.437258 0.499285 0.672284 0.797094
C24   C     C_R   0.562733 0.499495 0.327710 0.795578
C25   C     C_R   0.231081 0.550448 0.438871 0.008308
C26   C     C_R   0.768886 0.449595 0.561182 0.008720
C27   C     C_R   0.182191 0.449790 0.561322 0.058956
C28   C     C_R   0.817806 0.550222 0.438703 0.058393
C29   C     C_R   0.078480 0.448656 0.562874 -0.006859
C30   C     C_R   0.921493 0.551383 0.437197 -0.007795
C31   C     C_R   0.051797 0.500031 0.500051 0.089307
C32   C     C_R   0.948170 0.500005 0.500023 0.089478
C33   C     C_R   0.128681 0.551462 0.437275 -0.005650
C34   C     C_R   0.871274 0.448598 0.562816 -0.004042
C35   C     C_R   0.001151 0.397624 0.625459 -0.187538
C36   C     C_R   0.998795 0.602478 0.374671 -0.187557
C37   C     C_R   0.898476 0.397621 0.625456 -0.206646
C38   C     C_R   0.101454 0.602505 0.374697 -0.205845
C39   C     C_R   0.400321 0.494436 0.770479 -0.048301
C40   C     C_R   0.599515 0.494306 0.229551 -0.048202
C41   C     C_R   0.262205 0.482818 0.913507 -0.193743
C42   C     C_R   0.736649 0.476806 0.086923 -0.193592
C43   C     C_R   0.294363 0.489125 0.820535 -0.191068
C44   C     C_R   0.704995 0.485204 0.179688 -0.191584
C45   C     C_R   0.473493 0.492668 0.814168 -0.245792
C46   C     C_R   0.526379 0.495138 0.185817 -0.239817
C47   C     C_R   0.443370 0.482898 0.907497 0.087591
C48   C     C_R   0.555697 0.483043 0.092839 0.088499
C49   C     C_R   0.335643 0.480263 0.957293 0.165096
C50   C     C_R   0.663072 0.475863 0.043207 0.164646
C51   C     C_R   0.517134 0.477781 0.952623 0.067607
C52   C     C_R   0.481600 0.479495 0.047888 0.065881
Cu1   Cu    Cu3+1 0.402580 0.500010 0.499990 0.971118
Cu2   Cu    Cu3+1 0.597420 0.499990 0.500010 0.970921
H1    H     H_    0.219947 0.471936 0.088954 0.144910
H2    H     H_    0.777878 0.460642 0.912007 0.142994
H3    H     H_    0.290904 0.590027 0.391316 0.123855
H4    H     H_    0.709047 0.410046 0.608760 0.123587
H5    H     H_    0.204101 0.410477 0.608970 0.132328
H6    H     H_    0.795907 0.589536 0.391051 0.133458
H7    H     H_    0.020046 0.357728 0.674415 0.140550
H8    H     H_    0.979887 0.642414 0.325749 0.142037
H9    H     H_    0.840368 0.357767 0.674451 0.135746
H10   H     H_    0.159531 0.642438 0.325771 0.138359
H11   H     H_    0.446800 0.506962 0.225881 0.148894
H12   H     H_    0.553844 0.501077 0.773841 0.155412
H13   H     H_    0.762848 0.484411 0.212262 0.152563
H14   H     H_    0.236488 0.490166 0.787988 0.151214
H15   H     H_    0.179796 0.479889 0.951278 0.131698
H16   H     H_    0.818731 0.470564 0.049301 0.131867
H17   H     H_    0.340464 0.470042 0.166754 0.149157
H18   H     H_    0.657175 0.460528 0.834297 0.139872
H19   H     H_    0.646630 0.222318 0.519859 0.181576
H20   H     H_    0.353365 0.777689 0.480149 0.181700
H21   H     H_    0.266791 0.076697 0.468135 0.198309
H22   H     H_    0.733220 0.923312 0.531841 0.198451
H23   H     H_    0.268491 0.915329 0.468658 0.145918
H24   H     H_    0.731512 0.084680 0.531334 0.145812
N1    N     N_R   0.256170 0.500070 0.500040 -0.183327
N2    N     N_R   0.743830 0.499930 0.499960 -0.183467
O1    O     O_R   0.417730 0.629750 0.499970 -0.603301
O2    O     O_R   0.582270 0.370250 0.500030 -0.603777
O3    O     O_R   0.582270 0.629730 0.499980 -0.513658
O4    O     O_R   0.417730 0.370270 0.500020 -0.514080
O5    O     O_R   0.371590 0.500020 0.629830 -0.597767
O6    O     O_R   0.628410 0.499980 0.370170 -0.598274
O7    O     O_R   0.536130 0.499990 0.629840 -0.588703
O8    O     O_R   0.463870 0.500010 0.370160 -0.588476
F1    F     F_    0.333890 0.227267 0.476131 -0.668637
F2    F     F_    0.666130 0.772741 0.523830 -0.668313

loop_
_geom_bond_atom_site_label_1
_geom_bond_atom_site_label_2
_ccdc_geom_bond_type
C27   C29   A    
C18   C21   A    
C2    O4    A    
C4    H18   S    
C19   H21   S    
C7    H19   S    
Cu1   Cu2   S    
C40   C46   A    
C20   H22   S    
C25   H3    S    
Cu1   O4    S    
C12   F2    S    
C35   C37   A    
C27   N1    A    
Cu2   O7    S    
C1    O1    A    
C15   C16   A    
C34   C37   A    
C42   H16   S    
Cu1   N1    S    
Cu1   O1    S    
C45   C47   A    
C26   C34   A    
C43   H14   S    
C7    C17   A    
C31   C33   A    
C38   H10   S    
C39   C45   A    
C48   C50   A    
C23   O7    A    
C24   O8    A    
C41   C43   A    
C5    C49   A    
C42   C44   A    
C36   H8    S    
C41   C49   A    
Cu2   O3    S    
C37   H9    S    
Cu2   N2    S    
C28   H6    S    
C46   C48   A    
C13   C19   A    
C4    C51   A    
C51   C52   A    
C14   C20   A    
C22   H24   S    
C46   H11   S    
C4    C6    A    
C6    H2    S    
Cu2   O6    S    
C47   C51   A    
C8    C18   A    
C32   C34   A    
C3    H17   S    
C9    C11   A    
C11   F1    S    
C31   C32   A    
C40   C44   A    
C8    H20   S    
C35   H7    S    
C6    C50   A    
C26   H4    S    
C10   C12   A    
C42   C50   A    
C16   C18   A    
C12   C14   A    
C13   C15   A    
C14   C16   A    
C2    O2    A    
Cu2   O2    S    
C41   H15   S    
C15   C17   A    
C19   C21   A    
C25   N1    A    
C5    H1    S    
C1    C10   S    
C33   C38   A    
C20   C22   A    
C3    C5    A    
C39   C43   A    
C3    C52   A    
C1    O3    A    
C29   C35   A    
C17   C22   A    
C30   C36   A    
C28   C30   A    
C29   C31   A    
C27   H5    S    
C47   C49   A    
C30   C32   A    
C11   C13   A    
C23   C39   S    
C36   C38   A    
C24   C40   S    
Cu1   O8    S    
C28   N2    A    
C26   N2    A    
C7    C9    A    
C48   C52   A    
C8    C10   A    
C23   O5    A    
C21   H23   S    
C45   H12   S    
C44   H13   S    
Cu1   O5    S    
C2    C9    S    
C24   O6    A    
C25   C33   A    
