data_mof_unit_43498.cif
_audit_creation_date              2013-03-05T16:03:59-0500
_audit_creation_method            fapswitch 2.2
_symmetry_space_group_name_H-M    P1
_symmetry_Int_Tables_number       1
_space_group_crystal_system       triclinic
_cell_length_a                    13.074201
_cell_length_b                    10.746934
_cell_length_c                    9.588722
_cell_angle_alpha                 90.280881
_cell_angle_beta                  96.291875
_cell_angle_gamma                 91.465702
_cell_volume                      1338.6942872

loop_
_atom_site_label
_atom_site_type_symbol
_atom_site_description
_atom_site_fract_x
_atom_site_fract_y
_atom_site_fract_z
_atom_type_partial_charge
O1    O     O_R   0.499990 0.319660 0.618740 -0.557893
O2    O     O_R   0.500010 0.680340 0.381260 -0.557904
O3    O     O_R   0.499990 0.319630 0.381170 -0.525800
O4    O     O_R   0.500010 0.680370 0.618830 -0.525797
C1    C     C_R   0.501693 0.262806 0.500151 0.916598
C2    C     C_R   0.498308 0.737194 0.499849 0.916596
O5    O     O_R   0.349000 0.499990 0.599490 -0.541284
O6    O     O_R   0.651000 0.500010 0.400510 -0.541278
O7    O     O_R   0.348990 0.499960 0.361920 -0.549160
O8    O     O_R   0.651010 0.500040 0.638080 -0.549155
C3    C     C_R   0.300896 0.504011 0.474125 0.862023
C4    C     C_R   0.699104 0.495989 0.525875 0.862025
Cu1   Cu    Cu3+1 0.500000 0.500020 0.640660 1.112473
Cu2   Cu    Cu3+1 0.500000 0.499980 0.359340 1.112470
C5    C     C_R   0.811780 0.493680 0.539679 -0.135651
C6    C     C_R   0.188220 0.506320 0.460321 -0.135653
C7    C     C_R   0.027525 0.452608 0.321592 -0.109608
C8    C     C_R   0.972475 0.547393 0.678408 -0.109607
C9    C     C_R   0.133409 0.468126 0.333404 -0.176974
C10   C     C_R   0.866591 0.531874 0.666596 -0.176974
C11   C     C_R   0.134771 0.537661 0.575649 0.313534
C12   C     C_R   0.865228 0.462338 0.424351 0.313535
C13   C     C_R   0.027078 0.521578 0.564090 0.004642
C14   C     C_R   0.972921 0.478423 0.435910 0.004640
H1    H     H_    0.827524 0.552948 0.756894 0.238134
H2    H     H_    0.172476 0.447052 0.243106 0.238135
H3    H     H_    0.989514 0.418966 0.222244 0.216400
H4    H     H_    0.010485 0.581036 0.777756 0.216402
C15   C     C_R   0.592761 0.066668 0.543666 0.268388
C16   C     C_R   0.407241 0.933332 0.456335 0.268396
C17   C     C_R   0.591134 0.936325 0.542198 0.049940
C18   C     C_R   0.408867 0.063674 0.457802 0.049933
C19   C     C_R   0.498648 0.871153 0.499268 -0.168227
C20   C     C_R   0.501353 0.128847 0.500732 -0.168219
C21   C     C_R   0.446675 0.409679 0.064900 0.381142
C22   C     C_R   0.553323 0.590322 0.935100 0.381138
C23   C     C_R   0.445554 0.410969 0.916029 0.178356
C24   C     C_R   0.554446 0.589031 0.083971 0.178355
N1    N     N_R   0.500030 0.500030 0.852080 -0.233890
N2    N     N_R   0.499970 0.499970 0.147920 -0.233891
N3    N     N_R   0.810953 0.411590 0.297445 0.122117
O9    O     O_R   0.762559 0.304419 0.299117 -0.279345
O10   O     O_R   0.805213 0.475335 0.181973 -0.364978
N4    N     N_R   0.189047 0.588409 0.702556 0.122115
O11   O     O_R   0.237443 0.695579 0.700884 -0.279337
O12   O     O_R   0.194783 0.524667 0.818029 -0.364988
N5    N     N_R   0.686389 0.135342 0.589160 0.112840
O13   O     O_R   0.690493 0.211256 0.695818 -0.325276
O14   O     O_R   0.769383 0.117124 0.529282 -0.312049
N6    N     N_R   0.313613 0.864658 0.410844 0.112834
O15   O     O_R   0.309505 0.788754 0.304178 -0.325276
O16   O     O_R   0.230625 0.882866 0.470736 -0.312044
N7    N     N_3   0.682260 0.868496 0.585657 -0.524581
H5    H     H_    0.736096 0.885709 0.514756 0.263077
H6    H     H_    0.713018 0.900288 0.685084 0.305721
N8    N     N_3   0.317743 0.131503 0.414343 -0.524592
H7    H     H_    0.263905 0.114286 0.485237 0.263080
H8    H     H_    0.286989 0.099714 0.314915 0.305720
N9    N     N_R   0.394029 0.309956 0.127125 0.133815
O17   O     O_R   0.434397 0.200428 0.132480 -0.340525
O18   O     O_R   0.296287 0.318306 0.137729 -0.378121
N10   N     N_R   0.605967 0.690047 0.872875 0.133816
O19   O     O_R   0.565600 0.799576 0.867529 -0.340523
O20   O     O_R   0.703707 0.681695 0.862255 -0.378122
N11   N     N_3   0.385904 0.319357 0.831503 -0.480761
H9    H     H_    0.309494 0.322382 0.853483 0.269150
H10   H     H_    0.413807 0.231466 0.858603 0.255778
N12   N     N_3   0.614096 0.680643 0.168497 -0.480757
H11   H     H_    0.690502 0.677638 0.146493 0.269147
H12   H     H_    0.586178 0.768530 0.141415 0.255773

loop_
_geom_bond_atom_site_label_1
_geom_bond_atom_site_label_2
_geom_bond_distance
_ccdc_geom_bond_type
C23   N1    1.366009 A    
N6    O16   1.300648 A    
O7    Cu2   1.977194 S    
C17   C19   1.402464 A    
C6    C11   1.415077 A    
C7    C14   1.402450 A    
N5    O14   1.300653 A    
C11   N4    1.437428 S    
O7    C3    1.305397 A    
C3    C6    1.465422 S    
N5    O13   1.300756 A    
C2    C19   1.439582 S    
O6    C4    1.295617 A    
C13   C14   1.419133 A    
C1    C20   1.439582 S    
N10   O19   1.301218 A    
C22   C24   1.426085 A    
C21   N2    1.377335 A    
C16   N6    1.437701 S    
C5    C12   1.415076 A    
N9    O17   1.301219 A    
C15   C17   1.400379 A    
N7    H5    1.044656 S    
C17   N7    1.436322 S    
C24   N2    1.366009 A    
N3    O10   1.301054 A    
O2    C2    1.290848 A    
O3    Cu2   1.950498 S    
O8    C4    1.305394 A    
C15   N5    1.437720 S    
C6    C9    1.397113 A    
O1    C1    1.290849 A    
C12   C14   1.406338 A    
O4    C2    1.294987 A    
C21   C23   1.426086 A    
N8    H8    1.045504 S    
O5    C3    1.295616 A    
C4    C5    1.465422 S    
C8    C10   1.382276 A    
N7    H6    1.045527 S    
C11   C13   1.406338 A    
C5    C10   1.397114 A    
O2    Cu2   1.948650 S    
C21   N9    1.427203 S    
C22   N10   1.427203 S    
Cu1   N1    2.027204 S    
C12   N3    1.437428 S    
O1    Cu1   1.948649 S    
C10   H1    1.078332 S    
C24   N12   1.431364 S    
Cu2   N2    2.027204 S    
C8    C13   1.402451 A    
C16   C18   1.400375 A    
O5    Cu1   1.970399 S    
C8    H4    1.081130 S    
N4    O11   1.300868 A    
N12   H12   1.045013 S    
N11   H9    1.044619 S    
N3    O9    1.300870 A    
N9    O18   1.298338 A    
O4    Cu1   1.950499 S    
N8    H7    1.044631 S    
C9    H2    1.078331 S    
C7    C9    1.382277 A    
N10   O20   1.298335 A    
O6    Cu2   1.970398 S    
C16   C19   1.407100 A    
N6    O15   1.300746 A    
C18   C20   1.402459 A    
Cu1   Cu2   2.697497 S    
C15   C20   1.407109 A    
C18   N8    1.436311 S    
C22   N1    1.377336 A    
N11   H10   1.045016 S    
C23   N11   1.431365 S    
N4    O12   1.301054 A    
N12   H11   1.044614 S    
O3    C1    1.294986 A    
O8    Cu1   1.977194 S    
C7    H3    1.081131 S    
