data_mof_unit_67315.cif
_audit_creation_date              2012-12-11T18:47:29-0500
_audit_creation_method            fapswitch 2.2
_symmetry_space_group_name_H-M    P1
_symmetry_Int_Tables_number       1
_space_group_crystal_system       triclinic
_cell_length_a                    9.061462
_cell_length_b                    15.573403
_cell_length_c                    15.302053
_cell_angle_alpha                 101.102099
_cell_angle_beta                  98.858474
_cell_angle_gamma                 99.853963
_cell_volume                      2048.31708665

loop_
_atom_site_label
_atom_site_type_symbol
_atom_type_description
_atom_site_fract_x
_atom_site_fract_y
_atom_site_fract_z
_atom_type_partial_charge
Ba1   Ba    Ba6+2 0.844900 0.542440 0.457470 1.976762
Ba2   Ba    Ba6+2 0.344940 0.457640 0.542540 1.974354
C1    C     C_3   0.715497 0.858107 0.263977 0.062703
C2    C     C_R   0.100301 0.469757 0.203044 0.073109
C3    C     C_R   0.937726 0.466423 0.757691 -0.123136
C4    C     C_3   0.139610 0.817575 0.230381 0.850525
C5    C     C_R   0.841203 0.439877 0.815644 0.135366
C6    C     C_R   0.900130 0.446433 0.906627 -0.080922
C7    C     C_R   0.053947 0.483784 0.946996 0.025322
C8    C     C_R   0.148810 0.515973 0.886904 -0.055736
C9    C     C_R   0.117445 0.488649 0.043705 0.031942
C10   C     C_R   0.280057 0.520676 0.074797 -0.022884
C11   C     C_R   0.369795 0.535877 0.008381 0.076501
C12   C     C_3   0.661804 0.770210 0.286208 0.439074
C13   C     C_R   0.303754 0.538506 0.920399 -0.076348
C14   C     C_R   0.028779 0.464927 0.111690 0.088359
C15   C     C_R   0.252225 0.516752 0.232277 0.029490
C16   C     C_3   0.029606 0.820922 0.138518 0.488703
C17   C     C_R   0.089220 0.514558 0.791579 0.071745
C18   C     C_R   0.348801 0.825210 0.458683 0.127460
C19   C     C_R   0.591417 0.790993 0.523398 0.040182
C20   C     C_R   0.779535 0.220384 0.510902 0.158078
C21   C     C_R   0.872688 0.168939 0.549066 0.143516
C22   C     C_R   0.813042 0.078945 0.545656 0.091795
C23   C     C_3   0.411852 0.241639 0.240901 0.660023
C24   C     C_R   0.650087 0.043223 0.521518 0.052475
C25   C     C_R   0.553880 0.104345 0.496361 -0.094167
C26   C     C_R   0.577911 0.949389 0.516567 0.059162
C27   C     C_R   0.416904 0.919431 0.483786 0.050257
C28   C     C_3   0.315895 0.773708 0.784406 0.970843
C29   C     C_R   0.329331 0.983228 0.468570 0.019548
C30   C     C_R   0.396328 0.071460 0.471440 0.006278
C31   C     C_R   0.656268 0.883520 0.543997 -0.110714
C32   C     C_R   0.440953 0.763007 0.474289 -0.120493
C33   C     C_R   0.616615 0.195331 0.491179 -0.071314
C34   C     C_3   0.464337 0.215188 0.147044 0.347702
C35   C     C_3   0.259022 0.855113 0.833599 -0.227339
C36   C     C_3   0.047033 0.258227 0.237298 0.222912
C37   C     C_3   0.979847 0.162497 0.183936 0.388064
C38   C     C_3   0.842349 0.769760 0.757660 0.753437
C39   C     C_3   0.837157 0.831492 0.846948 -0.144319
C40   C     C_3   0.182454 0.289033 0.779768 0.322226
C41   C     C_3   0.220468 0.275069 0.876057 -0.358976
C42   C     C_3   0.561524 0.222008 0.750447 0.713214
C43   C     C_3   0.456065 0.139779 0.766525 -0.120903
C44   C     C_R   0.345738 0.540116 0.171314 0.152226
H1    H     H_    0.183331 0.834909 0.879362 0.139912
H2    H     H_    0.778774 0.886270 0.835029 0.166803
H3    H     H_    0.574588 0.777981 0.327792 0.076748
H4    H     H_    0.296367 0.202512 0.231529 -0.074629
H5    H     H_    0.377549 0.226023 0.093132 0.083226
H6    H     H_    0.740663 0.913491 0.325729 0.074891
H7    H     H_    0.099056 0.817121 0.085445 0.006263
H8    H     H_    0.287945 0.321955 0.761186 0.053675
H9    H     H_    0.100972 0.334282 0.779618 0.028041
H10   H     H_    0.217841 0.336198 0.926363 0.066923
H11   H     H_    0.137491 0.217961 0.885193 0.225221
H12   H     H_    0.353770 0.908469 0.876434 0.167814
H13   H     H_    0.335676 0.260698 0.890471 0.127077
H14   H     H_    0.522380 0.225957 0.679070 -0.076897
H15   H     H_    0.456771 0.079436 0.714164 0.132654
H16   H     H_    0.337469 0.148450 0.756743 0.119881
H17   H     H_    0.301629 0.532528 0.303904 0.047452
H18   H     H_    0.890996 0.453346 0.686231 0.087837
H19   H     H_    0.821464 0.414499 0.940947 0.060296
H20   H     H_    0.379107 0.556655 0.877039 0.185993
H21   H     H_    0.390329 0.692255 0.455333 0.032372
H22   H     H_    0.207013 0.964198 0.446231 0.113905
H23   H     H_    0.206612 0.893085 0.788183 0.113688
H24   H     H_    0.764261 0.901790 0.587785 0.064944
H25   H     H_    0.321982 0.112693 0.448073 0.125293
H26   H     H_    0.780271 0.754444 0.406691 0.171571
H27   H     H_    0.836553 0.700716 0.311575 0.284690
H28   H     H_    0.764151 0.163725 0.211699 0.276925
H29   H     H_    0.793723 0.063216 0.171050 0.293109
H30   H     H_    0.930559 0.289200 0.043898 0.321418
H31   H     H_    0.924894 0.863084 0.686450 0.153808
H32   H     H_    0.020392 0.775973 0.684905 0.258425
H33   H     H_    0.770609 0.564359 0.661735 0.332490
H34   H     H_    0.117587 0.255244 0.301758 0.101237
H35   H     H_    0.599953 0.831392 0.131931 0.313498
H36   H     H_    0.645070 0.940912 0.187467 0.290459
H37   H     H_    0.404240 0.381816 0.120787 0.311847
H38   H     H_    0.306006 0.073999 0.980892 0.355617
H39   H     H_    0.596526 0.316498 0.106454 0.163650
H40   H     H_    0.670797 0.297796 0.206722 0.244660
H41   H     H_    0.922058 0.277711 0.880151 0.326306
H42   H     H_    0.532844 0.182545 0.905941 0.255632
H43   H     H_    0.588363 0.089211 0.858237 0.312607
H44   H     H_    0.228827 0.676163 0.069313 0.347896
H45   H     H_    0.112457 0.291317 0.194696 0.076898
H46   H     H_    0.553506 0.483113 0.991265 0.182698
H47   H     H_    0.583112 0.594761 0.000449 0.290077
H48   H     H_    0.805176 0.396531 0.069999 0.168240
H49   H     H_    0.836744 0.509658 0.067983 0.281516
H50   H     H_    0.291845 0.928805 0.105770 0.419750
H51   H     H_    0.757402 0.348625 0.359037 0.388510
H52   H     H_    0.937724 0.015250 0.626276 0.226305
H53   H     H_    0.908000 0.969861 0.508003 0.183951
H54   H     H_    0.021739 0.686923 0.993070 0.361270
H55   H     H_    0.814152 0.913005 0.012199 0.400647
H56   H     H_    0.067069 0.122630 0.196150 0.136296
H57   H     H_    0.442912 0.722197 0.999342 0.401846
H58   H     H_    0.295674 0.687304 0.589340 0.300045
H59   H     H_    0.819145 0.851017 0.239041 0.169638
H60   H     H_    0.953487 0.863750 0.885697 0.060116
H61   H     H_    0.783922 0.793275 0.891376 0.221514
N1    N     N_3   0.797620 0.756123 0.341401 -0.477176
N2    N     N_3   0.844719 0.123906 0.215538 -0.409083
N3    N     N_3   0.962733 0.817438 0.721527 -0.535407
N4    N     N_3   0.608278 0.875746 0.193636 -0.290968
N5    N     N_3   0.611731 0.267026 0.142182 -0.424135
N6    N     N_3   0.497443 0.122472 0.857028 -0.445163
N7    N     N_3   0.530744 0.542563 0.026021 -0.434465
N8    N     N_3   0.868026 0.460474 0.100240 -0.442455
N9    N     N_3   0.925711 0.026525 0.560686 -0.491358
O1    O     O_2   0.826460 0.445380 0.275370 -0.420958
O2    O     O_2   0.193661 0.180026 0.560050 -0.510151
O3    O     O_3   0.117309 0.206275 0.718771 -0.562360
O4    O     O_3   0.098920 0.448470 0.388920 -0.404292
O5    O     O_3   0.590770 0.611390 0.551120 -0.446609
O6    O     O_2   0.326540 0.275010 0.446300 -0.436504
O7    O     O_3   0.498931 0.218161 0.314160 -0.592067
O8    O     O_2   0.550942 0.468941 0.822910 -0.466409
O9    O     O_3   0.554231 0.301205 0.811854 -0.658028
O10   O     O_3   0.628660 0.613390 0.338240 -0.506246
O11   O     O_2   0.661966 0.541345 0.182502 -0.389043
O12   O     O_3   0.700395 0.748934 0.698854 -0.526215
O13   O     O_3   0.932313 0.302915 0.256016 -0.592097
O14   O     O_3   0.604176 0.703185 0.203808 -0.499231
O15   O     O_2   0.863170 0.725020 0.553760 -0.501707
O16   O     O_3   0.060910 0.661460 0.386100 -0.460163
O17   O     O_2   0.055380 0.821334 0.477439 -0.476419
O18   O     O_2   0.093418 0.177140 0.034200 -0.329399
O19   O     O_2   0.852558 0.071107 0.008599 -0.157429
O20   O     O_3   0.849411 0.239764 0.047867 -0.473096
O21   O     O_2   0.023291 0.683369 0.846093 -0.370852
O22   O     O_2   0.756096 0.621360 0.822466 -0.252913
O23   O     O_3   0.066881 0.825014 0.308641 -0.643824
O24   O     O_3   0.873648 0.603451 0.679567 -0.564167
O25   O     O_2   0.319082 0.383582 0.327829 -0.375945
O26   O     O_2   0.559191 0.416481 0.281983 -0.323893
O27   O     O_3   0.321137 0.364328 0.152852 -0.693138
O28   O     O_2   0.492534 0.061235 0.188977 -0.223222
O29   O     O_2   0.588992 0.091031 0.055035 -0.228065
O30   O     O_3   0.299671 0.052267 0.037199 -0.458794
O31   O     O_2   0.755087 0.108379 0.726143 -0.305185
O32   O     O_2   0.836233 0.263714 0.714500 -0.478647
O33   O     O_3   0.830787 0.230746 0.874025 -0.458192
O34   O     O_2   0.363260 0.554650 0.724690 -0.439132
O35   O     O_2   0.325773 0.711014 0.286955 -0.444090
O36   O     O_2   0.084941 0.640415 0.190836 -0.348873
O37   O     O_3   0.301340 0.717348 0.120598 -0.510798
O38   O     O_2   0.265411 0.998522 0.273347 -0.250815
O39   O     O_2   0.431384 0.898930 0.310303 -0.347226
O40   O     O_3   0.349980 0.896087 0.141640 -0.442750
O41   O     O_2   0.893608 0.390393 0.519784 -0.328454
O42   O     O_2   0.025338 0.281872 0.442838 -0.285022
O43   O     O_3   0.768030 0.287880 0.360749 -0.543807
O44   O     O_2   0.739189 0.746968 0.037160 -0.263380
O45   O     O_3   0.090800 0.551610 0.611090 -0.422197
O46   O     O_2   0.836767 0.677479 0.156099 -0.264616
O47   O     O_3   0.936149 0.651004 0.010440 -0.475886
O48   O     O_2   0.975915 0.977137 0.231435 -0.340140
O49   O     O_2   0.075326 0.982797 0.094291 -0.249219
O50   O     O_3   0.796705 0.914619 0.074393 -0.482003
O51   O     O_2   0.534171 0.686937 0.835514 -0.251868
O52   O     O_2   0.560118 0.841744 0.916345 -0.310716
O53   O     O_3   0.359162 0.723338 0.950233 -0.556600
O54   O     O_2   0.281931 0.850306 0.642599 -0.399222
O55   O     O_2   0.542080 0.870065 0.725289 -0.301788
O56   O     O_3   0.561050 0.386690 0.661770 -0.506668
O57   O     O_3   0.398307 0.708880 0.628544 -0.551056
O58   O     O_3   0.192834 0.699566 0.743280 -0.615060
O59   O     O_3   0.598950 0.388690 0.448890 -0.378532
O60   O     O_3   0.128800 0.338610 0.613910 -0.443837
P1    P     P_3+3 0.996570 0.418570 0.288410 1.137994
P2    P     P_3+3 0.693070 0.712070 0.580610 1.111929
P3    P     P_3+3 0.139338 0.780129 0.404208 1.069650
P4    P     P_3+3 0.193140 0.581510 0.711600 1.181920
P5    P     P_3+3 0.077527 0.222926 0.608063 1.129120
P6    P     P_3+3 0.552729 0.595900 0.224159 1.169600
P7    P     P_3+3 0.500267 0.270878 0.430103 1.128403
P8    P     P_3+3 0.630960 0.398210 0.776376 1.016609
S1    S     S_3+6 0.943590 0.159348 0.064556 0.015133
S2    S     S_3+6 0.970368 0.926373 0.136578 -0.092742
S3    S     S_3+6 0.450401 0.755263 0.871706 -0.053273
S4    S     S_3+6 0.390533 0.806356 0.694134 -0.106773
S5    S     S_3+6 0.876218 0.667565 0.780845 -0.098195
S6    S     S_3+6 0.406387 0.356221 0.255840 -0.230246
S7    S     S_3+6 0.465221 0.101488 0.108287 -0.027872
S8    S     S_3+6 0.751263 0.204179 0.763849 -0.131891
S9    S     S_3+6 0.213208 0.718525 0.208722 -0.119347
S10   S     S_3+6 0.299316 0.907518 0.243959 -0.001945
S11   S     S_3+6 0.873962 0.299045 0.460796 -0.084200
S12   S     S_3+6 0.878701 0.724521 0.085624 -0.055291

loop_
_geom_bond_atom_site_label_1
_geom_bond_atom_site_label_2
_ccdc_geom_bond_type
O32   S8    D    
O57   S4    S    
Ba2   O34   S    
H36   N4    S    
C35   H23   S    
O20   S1    S    
C34   S7    S    
H40   N5    S    
C2    P1    S    
H39   N5    S    
C34   H5    S    
H28   N2    S    
H30   O20   S    
C5    C6    A    
C1    H59   S    
O43   S11   S    
C20   C33   A    
C24   C25   A    
O55   S4    D    
H51   O43   S    
O34   P4    D    
C26   C27   A    
C22   C24   A    
C21   P5    S    
O48   S2    D    
C8    C13   A    
C36   C37   S    
Ba2   O59   S    
C40   O3    S    
O2    P5    D    
C12   H3    S    
C19   C31   A    
C33   P7    S    
O26   S6    D    
C42   S8    S    
C43   H16   S    
H42   N6    S    
Ba1   Ba2   S    
O3    P5    S    
C4    O23   S    
C23   H4    S    
O7    P7    S    
C16   H7    S    
Ba2   O60   S    
Ba1   P1    S    
C39   H2    S    
O49   S2    D    
C38   S5    S    
H35   N4    S    
H49   N8    S    
C6    C7    A    
C34   N5    S    
C21   C22   A    
O38   S10   D    
C35   H1    S    
C7    C8    A    
C8    C17   A    
C35   H12   S    
C41   H13   S    
O44   S12   D    
C18   C32   A    
Ba1   O16   S    
C12   N1    S    
H33   O24   S    
Ba1   O45   S    
C6    H19   S    
O52   S3    D    
O50   S2    S    
O29   S7    D    
O9    P8    S    
O24   S5    S    
O18   S1    D    
C29   H22   S    
Ba2   P4    S    
Ba2   O45   S    
O15   P2    D    
O1    P1    D    
C30   H25   S    
C18   C27   A    
Ba2   O6    S    
O60   P5    S    
C4    C16   S    
H43   N6    S    
C42   O9    S    
H29   N2    S    
C39   H60   S    
C16   S12   S    
C36   O13   S    
H26   N1    S    
C15   C44   A    
O53   S3    S    
C10   C44   A    
O14   P6    S    
C1    N4    S    
H53   N9    S    
C3    C5    A    
Ba2   O4    S    
O17   P3    D    
H27   N1    S    
C38   N3    S    
C19   C32   A    
O16   P3    S    
C25   C33   A    
C13   H20   S    
O13   P1    S    
C36   H45   S    
C16   S2    S    
C28   C35   S    
H44   O37   S    
Ba1   O4    S    
C28   S4    S    
C2    C14   A    
O40   S10   S    
O4    P1    S    
C40   H9    S    
C23   O7    S    
Ba1   P2    S    
O56   P8    S    
H52   N9    S    
C29   C30   A    
O31   S8    D    
H48   N8    S    
O51   S3    D    
H32   N3    S    
Ba1   O1    S    
Ba1   O10   S    
O45   P4    S    
C7    C9    A    
H58   O57   S    
C1    C12   S    
C31   H24   S    
O21   S5    D    
C2    C15   A    
O36   S9    D    
O6    P7    D    
C26   C31   A    
C22   N9    S    
C11   C13   A    
O30   S7    S    
O10   P6    S    
O22   S5    D    
O12   P2    S    
C40   C41   S    
O46   S12   D    
C14   N8    S    
O58   P4    S    
C4    S10   S    
C42   C43   S    
C37   H56   S    
O59   P7    S    
C12   O14   S    
Ba2   O5    S    
Ba1   O59   S    
O33   S8    S    
C39   H61   S    
C25   C30   A    
O41   S11   D    
O25   S6    D    
C11   N7    S    
Ba1   O15   S    
C32   H21   S    
C1    H6    S    
O8    P8    D    
O5    P2    S    
C3    C17   A    
O28   S7    D    
H38   O30   S    
C24   C26   A    
O42   S11   D    
C18   P3    S    
C23   S6    S    
C28   S3    S    
C44   P6    S    
C27   C29   A    
O39   S10   D    
C40   H8    S    
H37   O27   S    
O35   S9    D    
H50   O40   S    
C36   H34   S    
O47   S12   S    
C42   H14   S    
C17   P4    S    
C43   H15   S    
C5    P8    S    
O27   S6    S    
O19   S1    D    
H54   O47   S    
H47   N7    S    
C19   P2    S    
H55   O50   S    
C20   S11   S    
Ba1   O5    S    
C9    C14   A    
O23   P3    S    
C41   H11   S    
C23   C34   S    
C37   S1    S    
C43   N6    S    
C41   H10   S    
C37   N2    S    
O37   S9    S    
C10   C11   A    
C3    H18   S    
H41   O33   S    
O54   S4    D    
H57   O53   S    
O11   P6    D    
C20   C21   A    
C38   C39   S    
H46   N7    S    
H31   N3    S    
C28   O58   S    
C4    S9    S    
C15   H17   S    
C9    C10   A    
Ba2   O56   S    
C38   O12   S    
