data_mof_unit_58485.cif
_audit_creation_date              2012-12-11T15:14:43-0500
_audit_creation_method            fapswitch 2.2
_symmetry_space_group_name_H-M    P1
_symmetry_Int_Tables_number       1
_space_group_crystal_system       triclinic
_cell_length_a                    22.255262
_cell_length_b                    7.228981
_cell_length_c                    19.231537
_cell_angle_alpha                 90.010442
_cell_angle_beta                  99.180195
_cell_angle_gamma                 90.012544
_cell_volume                      3054.39473966

loop_
_atom_site_label
_atom_site_type_symbol
_atom_type_description
_atom_site_fract_x
_atom_site_fract_y
_atom_site_fract_z
_atom_type_partial_charge
O1    O     O_R   0.448470 0.506130 0.415700 -0.532451
O2    O     O_R   0.551530 0.006130 0.584300 -0.532433
O3    O     O_R   0.436320 0.174490 0.555800 -0.534420
O4    O     O_R   0.563680 0.674490 0.444200 -0.534426
C1    C     C_R   0.421195 0.344378 0.575253 0.706146
C2    C     C_R   0.578803 0.844384 0.424747 0.706118
O5    O     O_R   0.441350 0.176340 0.414480 -0.533559
O6    O     O_R   0.558650 0.676340 0.585520 -0.533563
O7    O     O_R   0.556600 0.007100 0.441970 -0.532672
O8    O     O_R   0.443400 0.507100 0.558030 -0.532719
C3    C     C_R   0.427140 0.344540 0.388960 0.689037
C4    C     C_R   0.572853 0.844606 0.611040 0.689128
O9    O     O_3   0.537810 0.339550 0.509190 -0.372666
O10   O     O_3   0.462190 0.839550 0.490810 -0.372700
V1    V     V_3+5 0.492990 0.064280 0.498300 1.435167
V2    V     V_3+5 0.507010 0.564280 0.501700 1.435085
C5    C     C_R   0.868877 0.945238 0.694128 -0.165177
C6    C     C_R   0.131269 0.448952 0.305846 -0.165270
H1    H     H_    0.956271 0.973772 0.758775 0.105465
H2    H     H_    0.043890 0.477610 0.241192 0.105551
H3    H     H_    0.785933 0.944363 0.578827 0.117519
H4    H     H_    0.214303 0.449768 0.421064 0.117568
H5    H     H_    0.887664 0.963414 0.645935 0.112000
H6    H     H_    0.112564 0.468915 0.354000 0.112062
C7    C     C_R   0.884903 0.939401 0.821458 -0.052761
C8    C     C_R   0.115112 0.439780 0.178541 -0.052741
C9    C     C_R   0.590328 0.810765 0.739683 -0.241690
C10   C     C_R   0.409513 0.308280 0.260417 -0.241363
C11   C     C_R   0.627817 0.771632 0.802811 -0.118293
C12   C     C_R   0.371910 0.268078 0.197464 -0.118408
C13   C     C_R   0.691314 0.772331 0.807922 0.383345
C14   C     C_R   0.308424 0.269674 0.192442 0.383537
C15   C     C_R   0.718306 0.843840 0.750654 -0.071999
C16   C     C_R   0.281601 0.343247 0.249496 -0.071438
C17   C     C_R   0.679262 0.867200 0.684046 0.038296
C18   C     C_R   0.320740 0.367823 0.315978 0.038345
C19   C     C_R   0.781994 0.886589 0.755093 0.070394
C20   C     C_R   0.217979 0.386901 0.244982 0.070582
C21   C     C_R   0.806217 0.915634 0.691923 0.137165
C22   C     C_R   0.193869 0.418197 0.308083 0.136919
C23   C     C_R   0.767706 0.920171 0.627049 -0.195256
C24   C     C_R   0.232443 0.423883 0.372902 -0.195291
C25   C     C_R   0.705141 0.902763 0.623368 -0.159850
C26   C     C_R   0.294975 0.405485 0.376570 -0.160112
C27   C     C_R   0.821994 0.913555 0.819668 -0.096228
C28   C     C_R   0.177963 0.412703 0.180350 -0.094949
C29   C     C_R   0.907988 0.953143 0.758315 -0.179733
C30   C     C_R   0.092121 0.455867 0.241669 -0.179660
C31   C     C_R   0.615077 0.848300 0.679040 -0.075566
C32   C     C_R   0.384889 0.347908 0.320974 -0.075627
H7    H     H_    0.805018 0.920260 0.868872 0.184274
H8    H     H_    0.194904 0.417756 0.131099 0.184186
H9    H     H_    0.541495 0.797175 0.736893 0.132830
H10   H     H_    0.458316 0.293805 0.263197 0.132849
H11   H     H_    0.606781 0.725072 0.846760 0.177091
H12   H     H_    0.392829 0.219914 0.153649 0.177053
H13   H     H_    0.677102 0.915464 0.572135 0.103250
H14   H     H_    0.323078 0.419130 0.427729 0.103631
C33   C     C_3   0.778114 0.865367 0.315845 -0.143859
C34   C     C_3   0.221854 0.366703 0.684053 -0.143837
C35   C     C_3   0.787513 0.038298 0.271064 -0.147297
C36   C     C_3   0.212777 0.539152 0.729247 -0.147048
H15   H     H_    0.818736 0.155156 0.288295 0.109385
H16   H     H_    0.181800 0.656711 0.712283 0.109364
H17   H     H_    0.801261 0.839109 0.370468 0.109114
H18   H     H_    0.198686 0.341541 0.629353 0.109118
H19   H     H_    0.690972 0.184426 0.247386 0.118263
H20   H     H_    0.309609 0.683536 0.753362 0.118207
C37   C     C_1   0.874966 0.940113 0.120888 -0.136283
C38   C     C_1   0.125031 0.440134 0.879106 -0.136659
C39   C     C_1   0.624790 0.854125 0.379033 -0.177735
C40   C     C_1   0.375206 0.354108 0.620964 -0.177731
C41   C     C_3   0.781991 0.739605 0.251362 -0.137228
C42   C     C_3   0.217681 0.240104 0.748215 -0.137342
C43   C     C_3   0.790789 0.912357 0.207201 0.156187
C44   C     C_3   0.209204 0.412375 0.792789 0.156254
C45   C     C_3   0.712127 0.755724 0.228695 -0.126997
C46   C     C_3   0.287571 0.254883 0.770976 -0.127178
C47   C     C_3   0.708854 0.881671 0.292561 0.155726
C48   C     C_3   0.291140 0.381666 0.707431 0.155809
C49   C     C_3   0.721529 0.928657 0.183910 -0.098734
C50   C     C_3   0.278490 0.427334 0.816174 -0.099058
C51   C     C_3   0.717651 0.054420 0.248395 -0.140035
C52   C     C_3   0.282665 0.553934 0.752010 -0.139739
C53   C     C_1   0.836880 0.928693 0.159564 -0.027940
C54   C     C_1   0.163115 0.428717 0.840427 -0.028333
C55   C     C_1   0.662813 0.865428 0.340270 -0.056038
C56   C     C_1   0.337182 0.365413 0.659725 -0.056070
H21   H     H_    0.698389 0.954894 0.129283 0.149170
H22   H     H_    0.301652 0.452476 0.870878 0.148854
H23   H     H_    0.680904 0.638869 0.211461 0.123204
H24   H     H_    0.318547 0.137327 0.787943 0.122936
H25   H     H_    0.808670 0.609599 0.252368 0.112897
H26   H     H_    0.190738 0.110502 0.746866 0.112686
O11   O     O_R   0.056650 0.288730 0.942060 -0.531674
O12   O     O_R   0.943350 0.788730 0.057940 -0.531654
O13   O     O_R   0.058660 0.616870 0.085540 -0.537261
O14   O     O_R   0.941340 0.116870 0.914460 -0.537546
C57   C     C_R   0.072874 0.448653 0.111065 0.694621
C58   C     C_R   0.927131 0.948588 0.888935 0.694773
O15   O     O_R   0.063700 0.618520 0.944220 -0.537358
O16   O     O_R   0.936300 0.118520 0.055780 -0.537405
O17   O     O_R   0.948460 0.787610 0.915680 -0.523953
O18   O     O_R   0.051540 0.287610 0.084320 -0.523906
C59   C     C_R   0.078973 0.449993 0.924725 0.716560
C60   C     C_R   0.921026 0.949986 0.075272 0.716823
O19   O     O_3   0.962230 0.453430 0.990860 -0.365253
O20   O     O_3   0.037770 0.953430 0.009140 -0.365042
V3    V     V_3+5 0.007010 0.728750 0.001700 1.523653
V4    V     V_3+5 0.992990 0.228750 0.998300 1.523053
S1    S     S_3+6 0.730670 0.635470 0.877738 -0.006640
O21   O     O_2   0.745327 0.751501 0.943111 -0.321188
O22   O     O_2   0.690497 0.478572 0.893371 -0.318937
O23   O     O_3   0.795180 0.545263 0.856896 -0.495074
H27   H     H_    0.781862 0.468474 0.814569 0.331138
S2    S     S_3+6 0.268812 0.131418 0.123192 -0.006910
O24   O     O_2   0.254238 0.245752 0.057393 -0.321113
O25   O     O_2   0.308748 0.973416 0.108089 -0.319288
O26   O     O_3   0.204219 0.042900 0.144473 -0.495280
H28   H     H_    0.217504 0.966517 0.186903 0.331251

loop_
_geom_bond_atom_site_label_1
_geom_bond_atom_site_label_2
_ccdc_geom_bond_type
C47   C51   S    
H19   C51   S    
O14   V4    S    
C7    C27   A    
C9    C11   A    
C23   C25   A    
C42   H26   S    
S1    O21   D    
O1    C3    A    
C41   H25   S    
C48   C52   S    
O2    C4    A    
C2    O7    A    
C47   C55   S    
O23   H27   S    
O3    V1    S    
C21   C23   A    
O20   V3    S    
O5    C3    A    
C5    H5    S    
C42   C44   S    
C6    H6    S    
C20   C22   A    
C1    C40   S    
C46   C48   S    
C27   H7    S    
O15   V3    S    
C28   H8    S    
S2    O24   D    
C34   C36   S    
C5    C21   A    
C35   H15   S    
C6    C22   A    
C36   H16   S    
O11   C59   A    
O13   C57   A    
C10   C32   A    
C43   C53   S    
C35   C43   S    
C26   H14   S    
C17   C31   A    
C13   C15   A    
C17   C25   A    
C7    C29   A    
C8    C30   A    
C8    C57   S    
C49   H21   S    
C22   C24   A    
C57   O18   A    
C34   H18   S    
O6    V2    S    
C48   C56   S    
C41   C43   S    
C36   C44   S    
C36   C52   S    
C24   C26   A    
C40   C56   T    
C4    C31   S    
C45   C47   S    
O15   C59   A    
C2    C39   S    
C33   C35   S    
H20   C52   S    
O4    C2    A    
C35   C51   S    
C44   C50   S    
C10   H10   S    
C43   C49   S    
O5    V1    S    
C11   H11   S    
C46   H24   S    
C12   H12   S    
C38   C59   S    
C58   O17   A    
C15   C19   A    
C14   C16   A    
O4    V2    S    
C37   C53   T    
O13   V3    S    
C46   C50   S    
C7    C58   S    
C45   C49   S    
O6    C4    A    
C25   H13   S    
H1    C29   S    
S1    O22   D    
O1    V2    S    
C14   S2    S    
O2    V1    S    
H2    C30   S    
H3    C23   S    
C50   C52   S    
O19   V4    S    
C39   C55   T    
O16   V4    S    
C33   C47   S    
C38   C54   T    
C44   C54   S    
C18   C32   A    
O18   V4    S    
O12   C60   A    
C45   H23   S    
C37   C60   S    
C13   S1    S    
C34   C48   S    
C16   C20   A    
C5    C29   A    
O3    C1    A    
O11   V4    S    
C6    C30   A    
C49   C51   S    
O26   H28   S    
C9    H9    S    
O12   V3    S    
O14   C58   A    
C50   H22   S    
S2    O26   S    
O17   V3    S    
C10   C12   A    
O7    V1    S    
C1    O8    A    
C19   C21   A    
C3    C32   S    
O8    V2    S    
C33   H17   S    
C12   C14   A    
H4    C24   S    
C34   C42   S    
C15   C17   A    
S2    O25   D    
O16   C60   A    
S1    O23   S    
C16   C18   A    
C33   C41   S    
C20   C28   A    
C18   C26   A    
C8    C28   A    
C11   C13   A    
C42   C46   S    
O9    V2    S    
C41   C45   S    
O10   V1    S    
C19   C27   A    
C9    C31   A    
