data_mof_unit_49290.cif
_audit_creation_date              2012-12-11T14:13:21-0500
_audit_creation_method            fapswitch 2.2
_symmetry_space_group_name_H-M    P1
_symmetry_Int_Tables_number       1
_space_group_crystal_system       triclinic
_cell_length_a                    11.608151
_cell_length_b                    18.640392
_cell_length_c                    9.947358
_cell_angle_alpha                 89.999945
_cell_angle_beta                  110.749992
_cell_angle_gamma                 89.99985
_cell_volume                      2012.79836289

loop_
_atom_site_label
_atom_site_type_symbol
_atom_type_description
_atom_site_fract_x
_atom_site_fract_y
_atom_site_fract_z
_atom_type_partial_charge
C1    C     C_R   0.073685 0.646072 0.140406 0.578992
C2    C     C_2   0.586365 0.079273 0.086451 -0.072823
C3    C     C_2   0.586359 0.420727 0.086448 -0.072832
C4    C     C_2   0.403388 0.573168 0.930095 -0.052297
C5    C     C_2   0.467273 0.970985 0.036351 0.348427
C6    C     C_2   0.485013 0.044657 0.003876 0.348089
C7    C     C_2   0.485006 0.455342 0.003870 0.348098
C8    C     C_2   0.467252 0.529011 0.036352 0.348441
C9    C     C_2   0.010551 0.922185 0.113187 0.348936
C10   C     C_2   0.990583 0.078144 0.887279 0.361993
C11   C     C_2   0.990579 0.421857 0.887278 0.361991
C12   C     C_R   0.926538 0.353851 0.859672 0.578715
C13   C     C_2   0.010549 0.577815 0.113186 0.348930
C14   C     C_2   0.025790 0.964313 0.012209 -0.096039
C15   C     C_2   0.976873 0.036296 0.989509 -0.103625
C16   C     C_2   0.976865 0.463706 0.989504 -0.103623
C17   C     C_2   0.025780 0.535689 0.012202 -0.096033
C18   C     C_R   0.469081 0.646826 0.442951 0.542314
C19   C     C_R   0.530994 0.353245 0.557231 0.514061
C20   C     C_R   0.530994 0.146755 0.557230 0.514065
C21   C     C_R   0.469081 0.853174 0.442951 0.542294
C22   C     C_R   0.375818 0.644677 0.964979 0.538998
C23   C     C_R   0.926539 0.146149 0.859672 0.578716
C24   C     C_R   0.622502 0.354132 0.037640 0.534025
C25   C     C_R   0.622502 0.145869 0.037642 0.534025
C26   C     C_R   0.375817 0.855324 0.964981 0.538988
C27   C     C_R   0.507308 0.425092 0.490374 -0.007112
C28   C     C_R   0.492951 0.575114 0.510409 -0.003662
C29   C     C_R   0.492951 0.924886 0.510408 -0.003672
C30   C     C_R   0.507308 0.074908 0.490374 -0.007122
C31   C     C_R   0.284872 0.416323 0.439461 -0.031149
C32   C     C_R   0.715351 0.583955 0.561433 -0.043853
C33   C     C_R   0.715351 0.916044 0.561433 -0.043835
C34   C     C_R   0.073685 0.853928 0.140406 0.578988
C35   C     C_R   0.284872 0.083678 0.439462 -0.031155
C36   C     C_R   0.177047 0.446140 0.445802 0.435175
C37   C     C_R   0.823225 0.554155 0.555214 0.424900
C38   C     C_R   0.823225 0.945843 0.555215 0.424907
C39   C     C_R   0.177048 0.053862 0.445807 0.435172
C40   C     C_R   0.177373 0.516520 0.491932 -0.000018
C41   C     C_R   0.822987 0.483757 0.509225 -0.011504
C42   C     C_R   0.822987 0.016242 0.509227 -0.011497
C43   C     C_R   0.177375 0.983482 0.491938 -0.000029
C44   C     C_R   0.282752 0.558656 0.521405 -0.140501
C45   C     C_R   0.394090 0.457384 0.475940 -0.019914
C46   C     C_R   0.717642 0.441590 0.479742 -0.131218
C47   C     C_R   0.717643 0.058409 0.479743 -0.131213
C48   C     C_R   0.282753 0.941345 0.521407 -0.140504
C49   C     C_R   0.390190 0.531298 0.503031 -0.006430
C50   C     C_R   0.610160 0.468912 0.498054 0.014750
C51   C     C_R   0.610160 0.031088 0.498055 0.014737
C52   C     C_R   0.390190 0.968703 0.503030 -0.006439
C53   C     C_R   0.606216 0.542836 0.525103 -0.009716
C54   C     C_R   0.606216 0.957163 0.525104 -0.009718
C55   C     C_R   0.394090 0.042617 0.475939 -0.019931
C56   C     C_2   0.403384 0.926834 0.930099 -0.052307
Cr1   Cr    Cr6+3 0.187610 0.750000 0.979860 1.097320
Cr2   Cr    Cr6+3 0.812390 0.250000 0.020140 1.092785
Cr3   Cr    Cr6+3 0.245810 0.750000 0.341640 1.059944
Cr4   Cr    Cr6+3 0.754190 0.250000 0.658360 1.058561
Cr5   Cr    Cr6+3 0.485760 0.750000 0.219910 1.144643
Cr6   Cr    Cr6+3 0.514240 0.250000 0.780090 1.168882
F1    F     F_    0.073484 0.405793 0.411990 -0.608316
F2    F     F_    0.950655 0.945383 0.200600 -0.623745
F3    F     F_    0.950661 0.554616 0.200605 -0.623754
F4    F     F_    0.049677 0.445185 0.799127 -0.602477
F5    F     F_    0.926732 0.594544 0.588927 -0.612030
F6    F     F_    0.926734 0.905454 0.588932 -0.612028
F7    F     F_    0.073486 0.094209 0.411999 -0.608316
F8    F     F_    0.403544 0.073979 0.881282 -0.606390
F9    F     F_    0.516184 0.948639 0.175654 -0.637607
F10   F     F_    0.516123 0.551348 0.175667 -0.637618
F11   F     F_    0.403548 0.426023 0.881265 -0.606387
F12   F     F_    0.049679 0.054815 0.799128 -0.602480
H1    H     H_    0.095635 0.538857 0.503938 0.229994
H2    H     H_    0.720514 0.388532 0.437357 0.158887
H3    H     H_    0.720515 0.111467 0.437359 0.158886
H4    H     H_    0.279949 0.888256 0.563719 0.155515
H5    H     H_    0.651724 0.053444 0.180493 0.129392
H6    H     H_    0.359994 0.946188 0.820828 0.117948
H7    H     H_    0.360025 0.553821 0.820813 0.117916
H8    H     H_    0.651712 0.446555 0.180496 0.129369
H9    H     H_    0.924340 0.054620 0.054414 0.188506
H10   H     H_    0.078982 0.946079 0.947980 0.193567
H11   H     H_    0.078966 0.553925 0.947967 0.193574
H12   H     H_    0.904744 0.461442 0.497236 0.230789
H13   H     H_    0.924330 0.445382 0.054409 0.188505
H14   H     H_    0.904746 0.038557 0.497242 0.230788
H15   H     H_    0.095639 0.961145 0.503945 0.229989
H16   H     H_    0.283129 0.360807 0.406545 0.144216
H17   H     H_    0.716970 0.639505 0.594097 0.134697
H18   H     H_    0.716970 0.860494 0.594097 0.134697
H19   H     H_    0.283128 0.139194 0.406546 0.144218
H20   H     H_    0.279946 0.611744 0.563717 0.155511
O1    O     O_R   0.267710 0.668200 0.902110 -0.509277
O2    O     O_R   0.883280 0.330790 0.732340 -0.470963
O3    O     O_R   0.883280 0.169210 0.732340 -0.470961
O4    O     O_R   0.116720 0.830790 0.267660 -0.471555
O5    O     O_R   0.366710 0.675440 0.427590 -0.531238
O6    O     O_R   0.633290 0.324560 0.572410 -0.528312
O7    O     O_R   0.633290 0.175440 0.572410 -0.528311
O8    O     O_R   0.366710 0.824560 0.427590 -0.531240
O9    O     O_R   0.534870 0.669390 0.371760 -0.453097
O10   O     O_R   0.465130 0.330610 0.628240 -0.467828
O11   O     O_R   0.465130 0.169390 0.628240 -0.467830
O12   O     O_R   0.732290 0.331800 0.097890 -0.513134
O13   O     O_R   0.534870 0.830610 0.371760 -0.453093
O14   O     O_R   0.453080 0.674480 0.075160 -0.435129
O15   O     O_R   0.546920 0.325520 0.924840 -0.417735
O16   O     O_R   0.546920 0.174480 0.924840 -0.417734
O17   O     O_R   0.453080 0.825520 0.075160 -0.435111
O18   O     O_3   0.306390 0.750000 0.180470 -0.278630
O19   O     O_3   0.693610 0.250000 0.819530 -0.290544
O20   O     O_R   0.732290 0.168200 0.097890 -0.513137
O21   O     O_R   0.267710 0.831800 0.902110 -0.509288
O22   O     O_R   0.099480 0.674460 0.038850 -0.530470
O23   O     O_R   0.900520 0.325540 0.961150 -0.530137
O24   O     O_R   0.900520 0.174460 0.961150 -0.530139
O25   O     O_R   0.099480 0.825540 0.038850 -0.530471
O26   O     O_R   0.116720 0.669210 0.267660 -0.471552

loop_
_geom_bond_atom_site_label_1
_geom_bond_atom_site_label_2
_ccdc_geom_bond_type
C44   C49   A    
C30   C51   A    
Cr3   O26   S    
C9    F2    S    
Cr3   O5    S    
C22   O1    A    
C5    C56   D    
C14   H10   S    
C4    C8    D    
C23   O24   A    
C46   H2    S    
C3    C24   S    
C7    C8    S    
C7    F11   S    
Cr6   O11   S    
C13   F3    S    
C41   H12   S    
C43   H15   S    
C17   H11   S    
Cr5   O9    S    
C38   C42   A    
C3    C7    D    
C10   C15   D    
C5    C6    S    
C22   O14   A    
C32   H17   S    
C29   C54   A    
Cr2   O24   S    
C11   C16   D    
C48   H4    S    
Cr5   O14   S    
C26   O21   A    
C2    H5    S    
C4    H7    S    
C16   C17   S    
Cr2   O19   S    
C41   C46   A    
C1    O22   A    
C36   F1    S    
C19   C27   S    
C43   C48   A    
C40   C44   A    
C27   C50   A    
Cr1   O25   S    
C27   C45   A    
Cr4   O19   S    
C2    C6    D    
Cr1   O22   S    
Cr6   O10   S    
C35   H19   S    
C8    F10   S    
C50   C53   A    
C35   C55   A    
C36   C40   A    
C18   C28   S    
Cr6   O19   S    
Cr1   O21   S    
Cr4   O3    S    
C33   H18   S    
C39   C43   A    
C20   O7    A    
C21   C29   S    
Cr2   O23   S    
Cr2   O12   S    
C1    O26   A    
C35   C39   A    
C9    C14   D    
C16   H13   S    
C4    C22   S    
C19   O10   A    
Cr6   O16   S    
C45   C49   A    
C28   C53   A    
C31   H16   S    
C3    H8    S    
Cr3   O18   S    
C39   F7    S    
C32   C37   A    
C21   O13   A    
C25   O16   A    
C21   O8    A    
Cr4   O2    S    
C23   O3    A    
C38   F6    S    
C42   H14   S    
Cr1   O1    S    
C9    C34   S    
C1    C13   S    
C18   O5    A    
C47   H3    S    
Cr4   O7    S    
Cr5   O17   S    
C32   C53   A    
C20   O11   A    
C34   O25   A    
C6    F8    S    
C31   C36   A    
Cr3   O8    S    
C24   O15   A    
Cr4   O6    S    
C26   C56   S    
C47   C51   A    
C19   O6    A    
C52   C55   A    
C10   C23   S    
C30   C55   A    
C46   C50   A    
C33   C38   A    
C56   H6    S    
C40   H1    S    
C13   C17   D    
C51   C54   A    
C5    F9    S    
C25   O20   A    
C20   C30   S    
C18   O9    A    
C10   F12   S    
Cr6   O15   S    
C33   C54   A    
C15   H9    S    
C37   F5    S    
C34   O4    A    
C28   C49   A    
C2    C25   S    
C42   C47   A    
C37   C41   A    
Cr5   O13   S    
C44   H20   S    
C12   O23   A    
Cr1   O18   S    
C48   C52   A    
C24   O12   A    
C31   C45   A    
Cr2   O20   S    
Cr3   O4    S    
C14   C15   S    
C12   O2    A    
Cr5   O18   S    
C26   O17   A    
C29   C52   A    
C11   C12   S    
C11   F4    S    
