data_mof_unit_7073.cif
_audit_creation_date              2012-10-26T19:02:33-0400
_audit_creation_method            fapswitch 2.2
_symmetry_space_group_name_H-M    P1
_symmetry_Int_Tables_number       1
_space_group_crystal_system       triclinic
_cell_length_a                    17.300472
_cell_length_b                    8.683196
_cell_length_c                    7.489495
_cell_angle_alpha                 103.27004
_cell_angle_beta                  90.853243
_cell_angle_gamma                 93.833822
_cell_volume                      1092.07576732

loop_
_atom_site_label
_atom_site_type_symbol
_atom_type_description
_atom_site_fract_x
_atom_site_fract_y
_atom_site_fract_z
_atom_type_partial_charge
C1    C     C_R   0.497488 0.199709 0.453383 0.545512
C2    C     C_R   0.775950 0.465909 0.610932 -0.130811
C3    C     C_R   0.144675 0.543461 0.399977 -0.108083
C4    C     C_R   0.855325 0.456541 0.600025 -0.108083
C5    C     C_R   0.107726 0.532935 0.562538 0.044837
C6    C     C_R   0.892274 0.467065 0.437464 0.044837
C7    C     C_R   0.151618 0.521846 0.717140 -0.115324
C8    C     C_R   0.848382 0.478152 0.282860 -0.115324
C9    C     C_R   0.231553 0.513324 0.706627 -0.127795
C10   C     C_R   0.768447 0.486674 0.293373 -0.127795
C11   C     C_2   0.023383 0.531996 0.573207 -0.134200
C12   C     C_R   0.502512 0.800291 0.546617 0.545512
C13   C     C_2   0.976616 0.468004 0.426795 -0.134200
C14   C     C_2   0.496117 0.031434 0.427592 -0.153822
C15   C     C_2   0.503884 0.968566 0.572407 -0.153822
C16   C     C_R   0.351412 0.504870 0.525482 0.541251
C17   C     C_R   0.648588 0.495130 0.474518 0.541251
C18   C     C_R   0.267944 0.516666 0.541265 0.016772
C19   C     C_R   0.732056 0.483334 0.458735 0.016773
C20   C     C_R   0.224050 0.534093 0.389069 -0.130811
Cu1   Cu    Cu3+1 0.508700 0.517250 0.683000 0.992105
Cu2   Cu    Cu3+1 0.491300 0.482750 0.317000 0.992106
H1    H     H_    0.250935 0.541096 0.261170 0.121922
H2    H     H_    0.112618 0.559570 0.281191 0.098362
H3    H     H_    0.488618 0.959027 0.288460 0.128837
H4    H     H_    0.511382 0.040973 0.711540 0.128835
H5    H     H_    0.369418 0.378140 0.988447 0.210651
H6    H     H_    0.433483 0.238390 0.952693 0.214610
H7    H     H_    0.630583 0.621846 0.011553 0.210650
H8    H     H_    0.566523 0.761605 0.047299 0.214610
H9    H     H_    0.749065 0.458907 0.738831 0.121921
H10   H     H_    0.735511 0.497974 0.173545 0.119496
H11   H     H_    0.264489 0.502022 0.826454 0.119498
H12   H     H_    0.000345 0.418679 0.294180 0.114472
H13   H     H_    0.999655 0.581322 0.705822 0.114472
H14   H     H_    0.123802 0.515946 0.844334 0.095410
H15   H     H_    0.876198 0.484052 0.155666 0.095410
H16   H     H_    0.887382 0.440433 0.718811 0.098362
N1    N     N_2   0.478180 0.456750 0.041980 -0.024392
N2    N     N_2   0.521820 0.543250 0.958020 -0.024393
N3    N     N_3   0.423375 0.350941 0.933916 -0.447758
N4    N     N_3   0.576627 0.649055 0.066082 -0.447756
O1    O     O_R   0.505650 0.286040 0.618880 -0.479694
O2    O     O_R   0.494350 0.713960 0.381120 -0.479693
O3    O     O_R   0.490960 0.256910 0.309800 -0.513859
O4    O     O_R   0.509040 0.743090 0.690200 -0.513859
O5    O     O_R   0.394600 0.516230 0.672450 -0.484494
O6    O     O_R   0.605400 0.483770 0.327550 -0.484495
O7    O     O_R   0.379910 0.487100 0.363380 -0.524007
O8    O     O_R   0.620090 0.512900 0.636620 -0.524007

loop_
_geom_bond_atom_site_label_1
_geom_bond_atom_site_label_2
_ccdc_geom_bond_type
C17   O8    A    
Cu2   O6    S    
C17   O6    A    
H7    N4    S    
C7    H14   S    
H5    N3    S    
C2    C4    A    
C12   C15   S    
C10   C19   A    
C7    C9    A    
N2    N4    S    
C3    C20   A    
C12   O2    A    
Cu1   Cu2   S    
C6    C13   S    
C9    H11   S    
C11   C13   D    
C1    O3    A    
C3    H2    S    
Cu1   N2    S    
Cu2   O7    S    
Cu2   N1    S    
C16   O5    A    
C8    C10   A    
Cu1   O8    S    
C17   C19   S    
C4    H16   S    
C5    C11   S    
C18   C20   A    
C14   H3    S    
C4    C6    A    
C8    H15   S    
C10   H10   S    
C9    C18   A    
C13   H12   S    
Cu2   O3    S    
C16   O7    A    
N1    N3    S    
C16   C18   S    
Cu1   O4    S    
N1    N2    D    
C5    C7    A    
C14   C15   D    
H8    N4    S    
C15   H4    S    
C6    C8    A    
C1    C14   S    
Cu1   O5    S    
C2    C19   A    
Cu1   O1    S    
C20   H1    S    
C11   H13   S    
C1    O1    A    
Cu2   O2    S    
H6    N3    S    
C2    H9    S    
C3    C5    A    
C12   O4    A    
