data_mof_unit_12804.cif
_audit_creation_date              2012-12-11T15:11:51-0500
_audit_creation_method            fapswitch 2.2
_symmetry_space_group_name_H-M    P1
_symmetry_Int_Tables_number       1
_space_group_crystal_system       triclinic
_cell_length_a                    19.946288
_cell_length_b                    7.324131
_cell_length_c                    14.616631
_cell_angle_alpha                 90.015119
_cell_angle_beta                  104.360058
_cell_angle_gamma                 89.955288
_cell_volume                      2068.61597959

loop_
_atom_site_label
_atom_site_type_symbol
_atom_type_description
_atom_site_fract_x
_atom_site_fract_y
_atom_site_fract_z
_atom_type_partial_charge
O1    O     O_R   0.449830 0.506740 0.599960 -0.567805
O2    O     O_R   0.550170 0.006740 0.400040 -0.568122
O3    O     O_R   0.588980 0.179860 0.596720 -0.525552
O4    O     O_R   0.411020 0.679860 0.403280 -0.525203
C1    C     C_R   0.614424 0.342921 0.622117 0.721557
C2    C     C_R   0.385502 0.842952 0.378029 0.722362
O5    O     O_R   0.452740 0.177340 0.612040 -0.530838
O6    O     O_R   0.547260 0.677340 0.387960 -0.531446
O7    O     O_R   0.412960 0.002070 0.415460 -0.514661
O8    O     O_R   0.587040 0.502070 0.584540 -0.515583
C3    C     C_R   0.435651 0.345094 0.633529 0.702802
C4    C     C_R   0.564463 0.845001 0.366602 0.699713
O9    O     O_3   0.487110 0.337570 0.435490 -0.363878
O10   O     O_3   0.512890 0.837570 0.564510 -0.364068
V1    V     V_3+5 0.502390 0.064650 0.511970 1.556452
V2    V     V_3+5 0.497610 0.564650 0.488030 1.555812
C5    C     C_R   0.606682 0.736675 0.143655 -0.151636
C6    C     C_R   0.393810 0.237425 0.856894 -0.151957
H1    H     H_    0.515521 0.754250 0.192682 0.129361
H2    H     H_    0.484887 0.254718 0.807602 0.129606
H3    H     H_    0.578867 0.669056 0.079637 0.157160
H4    H     H_    0.421705 0.169708 0.920840 0.156735
C7    C     C_R   0.605712 0.844536 0.297519 -0.117378
C8    C     C_R   0.394588 0.344855 0.702847 -0.118457
C9    C     C_R   0.929963 0.945724 0.288906 -0.197382
C10   C     C_R   0.070380 0.445218 0.710987 -0.181870
C11   C     C_R   0.895262 0.013563 0.353278 0.451443
C12   C     C_R   0.105184 0.511775 0.646900 0.428630
C13   C     C_R   0.823567 0.997516 0.332647 -0.011741
C14   C     C_R   0.176870 0.497767 0.667840 -0.026885
C15   C     C_R   0.786780 0.885474 0.259260 0.015785
C16   C     C_R   0.213660 0.385983 0.741320 0.020587
C17   C     C_R   0.820947 0.833407 0.188355 -0.048613
C18   C     C_R   0.179367 0.333470 0.812028 -0.047220
C19   C     C_R   0.714898 0.844620 0.248160 -0.038968
C20   C     C_R   0.285521 0.345139 0.752447 -0.039168
C21   C     C_R   0.676554 0.783512 0.158635 -0.052584
C22   C     C_R   0.323874 0.283953 0.841973 -0.053673
C23   C     C_R   0.707285 0.775164 0.082586 0.519396
C24   C     C_R   0.292993 0.274752 0.917932 0.519799
C25   C     C_R   0.779882 0.774797 0.100275 -0.010086
C26   C     C_R   0.220363 0.274234 0.900030 -0.010752
C27   C     C_R   0.679563 0.854642 0.322301 0.310917
C28   C     C_R   0.320774 0.355107 0.678220 0.315904
C29   C     C_R   0.570673 0.781932 0.208920 -0.217283
C30   C     C_R   0.429728 0.282470 0.791474 -0.217341
C31   C     C_R   0.893586 0.867278 0.203925 -0.055768
C32   C     C_R   0.106632 0.367239 0.796239 -0.060779
H5    H     H_    0.984427 0.976476 0.299330 0.179548
H6    H     H_    0.015710 0.475638 0.699083 0.189110
H7    H     H_    0.796313 0.085049 0.369494 0.150066
H8    H     H_    0.203894 0.586152 0.631208 0.154363
H9    H     H_    0.803025 0.755498 0.041385 0.151568
H10   H     H_    0.197113 0.254335 0.958762 0.151703
C33   C     C_3   0.232323 0.726887 0.151609 0.242349
C34   C     C_3   0.767528 0.227262 0.848860 0.242590
H11   H     H_    0.202555 0.597251 0.142490 0.195013
H12   H     H_    0.797195 0.097341 0.857790 0.194380
C35   C     C_3   0.304663 0.704094 0.223252 0.186945
C36   C     C_3   0.695067 0.204886 0.777388 0.185719
H13   H     H_    0.347656 0.731704 0.189691 0.100375
H14   H     H_    0.652181 0.233819 0.810986 0.100183
H15   H     H_    0.259888 0.661100 0.385205 0.177492
H16   H     H_    0.740153 0.160225 0.615468 0.173200
C37   C     C_3   0.182973 0.833586 0.295560 0.200406
C38   C     C_3   0.816969 0.332098 0.705018 0.191042
C39   C     C_3   0.224856 0.046336 0.193108 -0.327347
C40   C     C_3   0.775070 0.546603 0.806741 -0.323861
C41   C     C_3   0.185879 0.863123 0.188708 -0.316824
C42   C     C_3   0.813978 0.363066 0.811609 -0.318598
H17   H     H_    0.193409 0.153758 0.215282 0.241702
H18   H     H_    0.806512 0.653420 0.784134 0.243354
H19   H     H_    0.229625 0.091365 0.122959 0.250249
H20   H     H_    0.770411 0.592288 0.876859 0.249576
C43   C     C_3   0.312966 0.841675 0.308911 -0.249757
C44   C     C_3   0.686893 0.341599 0.691411 -0.247445
C45   C     C_3   0.256264 0.802856 0.363007 0.245050
C46   C     C_3   0.743684 0.301880 0.637508 0.243362
C47   C     C_3   0.298105 0.031200 0.262909 -0.273467
C48   C     C_3   0.701753 0.531366 0.737130 -0.272846
H21   H     H_    0.339071 0.065522 0.226363 0.201241
H22   H     H_    0.660880 0.566087 0.773812 0.200831
H23   H     H_    0.301901 0.126626 0.321276 0.283888
H24   H     H_    0.697731 0.626443 0.678616 0.283477
H25   H     H_    0.165355 0.967740 0.317092 0.167581
H26   H     H_    0.834967 0.465376 0.683093 0.173251
O11   O     O_R   0.912980 0.203550 0.915410 -0.520032
O12   O     O_R   0.087020 0.703550 0.084590 -0.519813
O13   O     O_R   0.047270 0.535570 0.887960 -0.541829
O14   O     O_R   0.952730 0.035570 0.112040 -0.543393
C49   C     C_R   0.069124 0.369114 0.871242 0.751706
C50   C     C_R   0.930910 0.869163 0.128769 0.750265
O15   O     O_R   0.911030 0.532970 0.903270 -0.560394
O16   O     O_R   0.088970 0.032970 0.096730 -0.561277
O17   O     O_R   0.949820 0.708150 0.099970 -0.515699
O18   O     O_R   0.050180 0.208150 0.900030 -0.515434
C51   C     C_R   0.885658 0.366070 0.880214 0.855522
C52   C     C_R   0.114251 0.866031 0.119972 0.855291
O19   O     O_3   0.012900 0.375230 0.064480 -0.383106
O20   O     O_3   0.987100 0.875230 0.935520 -0.381574
V3    V     V_3+5 0.997610 0.648190 0.988040 1.673515
V4    V     V_3+5 0.002390 0.148190 0.011960 1.669356
S1    S     S_3+6 0.241250 0.778180 0.032724 -0.047008
O21   O     O_2   0.230477 0.605036 0.977987 -0.339632
O22   O     O_2   0.187474 0.910381 0.981129 -0.368742
O23   O     O_3   0.320084 0.858116 0.031793 -0.516715
H27   H     H_    0.327012 0.966021 0.073453 0.346088
S2    S     S_3+6 0.758822 0.279205 0.967790 -0.047177
O24   O     O_2   0.769672 0.106325 0.022767 -0.339856
O25   O     O_2   0.812646 0.411422 0.019065 -0.369209
O26   O     O_3   0.680047 0.359701 0.968860 -0.516772
H28   H     H_    0.673114 0.467501 0.927130 0.346313
S3    S     S_3+6 0.309217 0.466425 0.248324 -0.110327
O27   O     O_2   0.296670 0.370011 0.156038 -0.343304
O28   O     O_2   0.376598 0.400475 0.308612 -0.351871
O29   O     O_3   0.242129 0.411147 0.291506 -0.521141
H29   H     H_    0.260816 0.375089 0.357164 0.395558
S4    S     S_3+6 0.689878 0.966999 0.752792 -0.108939
O30   O     O_2   0.703245 0.870950 0.845203 -0.342373
O31   O     O_2   0.622002 0.901737 0.693672 -0.351000
O32   O     O_3   0.756135 0.909976 0.708404 -0.520137
H30   H     H_    0.736864 0.876836 0.642519 0.393157
S5    S     S_3+6 0.117416 0.692499 0.325438 -0.001852
O33   O     O_2   0.050532 0.702679 0.252332 -0.353465
O34   O     O_2   0.136001 0.495252 0.342601 -0.272978
O35   O     O_3   0.104727 0.782982 0.425040 -0.502906
H31   H     H_    0.149145 0.766723 0.472622 0.385298
S6    S     S_3+6 0.882248 0.188129 0.676292 0.019656
O36   O     O_2   0.949959 0.206539 0.747039 -0.354992
O37   O     O_2   0.865000 0.989216 0.664944 -0.258768
O38   O     O_3   0.892385 0.269035 0.573598 -0.486320
H32   H     H_    0.847295 0.250025 0.527998 0.388167
O39   O     O_3   0.666958 0.778475 0.990104 -0.538650
C53   C     C_3   0.619294 0.928325 0.974887 0.000926
H33   H     H_    0.616622 0.995104 0.906513 0.205944
H34   H     H_    0.632365 0.038217 0.029185 0.150492
H35   H     H_    0.565902 0.879038 0.969133 0.068737
O40   O     O_3   0.333120 0.277120 0.010557 -0.538952
C54   C     C_3   0.380918 0.426464 0.026379 -0.000457
H36   H     H_    0.383318 0.493021 0.094739 0.205709
H37   H     H_    0.368204 0.536663 0.972215 0.150860
H38   H     H_    0.434321 0.376629 0.032570 0.068876
O41   O     O_3   0.264908 0.918489 0.443223 -0.516954
C55   C     C_3   0.301721 0.833538 0.528487 0.064190
H39   H     H_    0.332002 0.710593 0.519345 0.066995
H40   H     H_    0.265260 0.799687 0.571847 0.131906
H41   H     H_    0.339739 0.930300 0.570428 0.173562
O42   O     O_3   0.735180 0.416729 0.557030 -0.514847
C56   C     C_3   0.697975 0.331664 0.471967 0.062266
H42   H     H_    0.668366 0.207741 0.481355 0.065672
H43   H     H_    0.734003 0.299055 0.427749 0.131080
H44   H     H_    0.659317 0.427831 0.430706 0.173147
S7    S     S_3+6 0.725633 0.806035 0.441175 -0.040315
O43   O     O_2   0.779830 0.664386 0.439386 -0.286344
O44   O     O_2   0.761507 0.969639 0.491453 -0.390812
O45   O     O_3   0.672675 0.727445 0.504992 -0.498255
H45   H     H_    0.650818 0.836858 0.524896 0.326830
S8    S     S_3+6 0.274615 0.307914 0.559195 -0.050658
O46   O     O_2   0.220145 0.166996 0.560487 -0.298785
O47   O     O_2   0.239073 0.472539 0.509549 -0.392982
O48   O     O_3   0.327370 0.229480 0.494967 -0.497783
H46   H     H_    0.348709 0.339140 0.474538 0.330437
O49   O     O_3   0.928491 0.120856 0.428869 -0.559148
C57   C     C_3   0.987117 0.029786 0.484206 -0.041142
H47   H     H_    0.032312 0.050517 0.453997 0.159213
H48   H     H_    0.977296 0.882160 0.493308 0.181508
H49   H     H_    0.000850 0.090866 0.555826 0.201078
O50   O     O_3   0.070625 0.614580 0.570733 -0.559162
C58   C     C_3   0.029316 0.496814 0.503374 -0.037364
H50   H     H_    0.987612 0.434706 0.530618 0.174356
H51   H     H_    0.061242 0.389668 0.480364 0.185097
H52   H     H_    0.003534 0.576887 0.440049 0.205078

loop_
_geom_bond_atom_site_label_1
_geom_bond_atom_site_label_2
_ccdc_geom_bond_type
C40   C48   S    
C14   C16   A    
O35   H31   S    
C7    C29   A    
C33   C35   S    
C11   C13   A    
C28   S8    S    
C31   C50   S    
O26   H28   S    
O1    C3    A    
C48   H24   S    
O2    C4    A    
S6    O36   D    
C53   H35   S    
O12   V3    S    
C2    C43   S    
C23   C25   A    
C38   C42   S    
O29   H29   S    
O5    C3    A    
C4    C7    S    
C57   H48   S    
C16   C20   A    
C57   H47   S    
C19   C21   A    
C5    C29   A    
O18   V4    S    
C56   H43   S    
C23   O39   S    
C54   H38   S    
C37   C41   S    
S5    O34   D    
O23   H27   S    
O16   C52   A    
C40   H20   S    
O41   C55   S    
C33   S1    S    
C3    C8    S    
C7    C27   A    
S2    O24   D    
C36   H14   S    
C58   H50   S    
S4    O30   D    
O14   V4    S    
S8    O48   S    
C11   O49   S    
C49   O18   A    
C34   S2    S    
O49   C57   S    
S2    O25   D    
C18   C26   A    
C47   H23   S    
C32   C49   S    
C24   O40   S    
C15   C17   A    
C36   S4    S    
C39   H19   S    
O6    C4    A    
S7    O44   D    
C19   C27   A    
C9    C31   A    
C42   C51   S    
C10   C32   A    
S3    O29   S    
C41   C52   S    
C24   C26   A    
O6    V2    S    
S8    O47   D    
C58   H51   S    
C2    O7    A    
C55   H41   S    
C6    C30   A    
O48   H46   S    
S4    O31   D    
C38   C46   S    
C35   H13   S    
C37   C45   S    
C35   S3    S    
S5    O33   D    
C39   C47   S    
O42   C56   S    
C55   H40   S    
C56   H44   S    
O15   V3    S    
C47   H21   S    
S5    O35   S    
C53   H34   S    
C36   C44   S    
C50   O17   A    
C5    H3    S    
C34   C36   S    
C39   C41   S    
S4    O32   S    
C16   C18   A    
O4    V2    S    
C45   O41   S    
O11   V4    S    
O15   C51   A    
O14   C50   A    
C40   H18   S    
O20   V4    S    
S1    O22   D    
O1    V2    S    
C5    C21   A    
S7    O45   S    
O2    V1    S    
C43   C45   S    
C25   H9    S    
O32   H30   S    
C33   C41   S    
C48   H22   S    
O50   C58   S    
O19   V3    S    
H2    C30   S    
C34   C42   S    
C33   H11   S    
O39   C53   S    
C8    C28   A    
C58   H52   S    
C15   C19   A    
C20   C28   A    
O4    C2    A    
O13   C49   A    
O38   H32   S    
S6    O38   S    
C35   C43   S    
O3    V1    S    
S3    O27   D    
H15   C45   S    
C14   H8    S    
O45   H45   S    
O13   V3    S    
C6    H4    S    
H16   C46   S    
C38   S6    S    
C57   H49   S    
C44   C48   S    
C44   C46   S    
C55   H39   S    
O3    C1    A    
S6    O37   D    
C38   H26   S    
C54   H36   S    
H1    C29   S    
C12   C14   A    
C37   H25   S    
C53   H33   S    
C46   O42   S    
C9    C11   A    
C10   C12   A    
S2    O26   S    
C8    C30   A    
C1    C44   S    
C10   H6    S    
C6    C22   A    
C17   C25   A    
C1    O8    A    
C13   C15   A    
O8    V2    S    
C56   H42   S    
C26   H10   S    
C20   C22   A    
C22   C24   A    
C54   H37   S    
S8    O46   D    
C17   C31   A    
O5    V1    S    
O20   V3    S    
C34   H12   S    
S1    O23   S    
C39   H17   S    
C37   S5    S    
O7    V1    S    
C9    H5    S    
O40   C54   S    
C12   O50   S    
C13   H7    S    
O19   V4    S    
C18   C32   A    
O16   V4    S    
C21   C23   A    
O9    V2    S    
S1    O21   D    
C40   C42   S    
O10   V1    S    
O11   C51   A    
S7    O43   D    
C27   S7    S    
C43   C47   S    
O12   C52   A    
O17   V3    S    
S3    O28   D    
