data_mof_unit_37447.cif
_audit_creation_date              2012-12-10T18:01:15-0500
_audit_creation_method            fapswitch 2.2
_symmetry_space_group_name_H-M    P1
_symmetry_Int_Tables_number       1
_space_group_crystal_system       triclinic
_cell_length_a                    9.605023
_cell_length_b                    10.788472
_cell_length_c                    17.257887
_cell_angle_alpha                 92.41029
_cell_angle_beta                  86.370046
_cell_angle_gamma                 89.284882
_cell_volume                      1782.95060674

loop_
_atom_site_label
_atom_site_type_symbol
_atom_type_description
_atom_site_fract_x
_atom_site_fract_y
_atom_site_fract_z
_atom_type_partial_charge
C1    C     C_R   0.499254 0.737631 0.500568 0.753412
C2    C     C_R   0.499990 0.262477 0.501044 0.783802
C3    C     C_R   0.603501 0.937025 0.537227 -0.185380
C4    C     C_R   0.390630 0.063436 0.468873 -0.193327
C5    C     C_R   0.601613 0.065374 0.539418 -0.196555
C6    C     C_R   0.389623 0.935102 0.469193 -0.173018
C7    C     C_R   0.497986 0.128658 0.502993 -0.024145
C8    C     C_R   0.497467 0.871667 0.502235 -0.018230
C9    C     C_R   0.919456 0.588190 0.543267 0.380401
C10   C     C_R   0.081587 0.414510 0.454929 0.344085
C11   C     C_R   0.068596 0.592411 0.539798 0.347532
C12   C     C_R   0.931210 0.410882 0.457545 0.326676
C13   C     C_R   0.482225 0.494453 0.649632 0.766828
C14   C     C_R   0.518201 0.502561 0.350237 0.802956
C15   C     C_R   0.474632 0.479539 0.733599 -0.073919
C16   C     C_R   0.529473 0.510183 0.265841 -0.101324
C17   C     C_R   0.592413 0.436203 0.768693 -0.293491
C18   C     C_R   0.416681 0.555164 0.227140 -0.287224
C19   C     C_R   0.591749 0.428682 0.849460 0.495685
C20   C     C_R   0.425753 0.560286 0.146491 0.460258
C21   C     C_R   0.467059 0.457755 0.894454 0.059958
C22   C     C_R   0.548863 0.518163 0.104176 0.053864
C23   C     C_R   0.346597 0.492553 0.858776 -0.236222
C24   C     C_R   0.664017 0.479675 0.143068 -0.225554
C25   C     C_R   0.350581 0.504463 0.778833 -0.210854
C26   C     C_R   0.654253 0.474885 0.223558 -0.189187
C27   C     C_2   0.460506 0.457892 0.979305 -0.118614
C28   C     C_2   0.559214 0.512467 0.019381 -0.172912
Cu1   Cu    Cu3+1 0.359340 0.499980 0.500000 0.986879
Cu2   Cu    Cu3+1 0.640660 0.500020 0.500000 1.001217
H1    H     H_    0.650735 0.551244 0.989908 0.145520
H2    H     H_    0.368069 0.421225 0.009366 0.174197
N1    N     N_R   0.147930 0.499970 0.499980 -0.266152
N2    N     N_R   0.852070 0.500030 0.500020 -0.262596
O1    O     O_R   0.381260 0.680340 0.500000 -0.552941
O2    O     O_R   0.618740 0.319660 0.500000 -0.556656
O3    O     O_R   0.618830 0.680370 0.500010 -0.528526
O4    O     O_R   0.381170 0.319630 0.499990 -0.535421
O5    O     O_R   0.367440 0.500000 0.613600 -0.609530
O6    O     O_R   0.632560 0.500000 0.386400 -0.542816
O7    O     O_R   0.605010 0.500030 0.613600 -0.581347
O8    O     O_R   0.394990 0.499970 0.386400 -0.561329
H3    H     H_    0.684626 0.406754 0.733286 0.150898
H4    H     H_    0.322069 0.588033 0.259225 0.154874
H5    H     H_    0.743302 0.441350 0.252521 0.178851
H6    H     H_    0.257167 0.534028 0.752791 0.137312
H7    H     H_    0.250457 0.514328 0.893241 0.152252
H8    H     H_    0.759816 0.449379 0.110879 0.159296
O9    O     O_3   0.311661 0.601156 0.109257 -0.598848
C29   C     C_3   0.322791 0.730174 0.100628 0.063722
H9    H     H_    0.422861 0.753361 0.068535 0.143039
H10   H     H_    0.315467 0.780578 0.158466 0.139789
C30   C     C_3   0.203664 0.774520 0.054275 -0.790735
H11   H     H_    0.209439 0.726591 0.995882 0.243047
H12   H     H_    0.101967 0.754341 0.085098 0.246744
H13   H     H_    0.210900 0.876115 0.047203 0.200806
O10   O     O_3   0.705898 0.380382 0.884387 -0.581819
C31   C     C_3   0.829596 0.446091 0.865125 0.034824
H14   H     H_    0.873268 0.479704 0.920119 0.159711
H15   H     H_    0.814519 0.529938 0.830649 0.106773
C32   C     C_3   0.937503 0.359268 0.822182 -0.807238
H16   H     H_    0.960641 0.280172 0.858716 0.261387
H17   H     H_    0.898509 0.322809 0.766664 0.230536
H18   H     H_    0.035340 0.410294 0.809245 0.197450
H19   H     H_    0.686697 0.889218 0.563602 0.197628
H20   H     H_    0.308830 0.111449 0.441113 0.182026
H21   H     H_    0.680209 0.114926 0.569885 0.132159
H22   H     H_    0.306855 0.885491 0.442082 0.166908
O11   O     O_3   0.842626 0.684517 0.581475 -0.533578
C33   C     C_3   0.823433 0.662753 0.661886 0.102368
H23   H     H_    0.914014 0.691733 0.693291 0.125410
H24   H     H_    0.807873 0.563515 0.673864 0.129413
C34   C     C_3   0.701024 0.741029 0.698123 -0.791033
H25   H     H_    0.606990 0.728163 0.664804 0.244288
H26   H     H_    0.676612 0.714389 0.758891 0.194659
H27   H     H_    0.728417 0.840757 0.698812 0.223577
O12   O     O_3   0.163073 0.331442 0.407805 -0.564637
C35   C     C_3   0.149184 0.354814 0.328614 0.103165
H28   H     H_    0.168571 0.453752 0.316891 0.147827
H29   H     H_    0.044057 0.331330 0.309938 0.169769
C36   C     C_3   0.253556 0.273421 0.278945 -0.798799
H30   H     H_    0.227379 0.174163 0.285058 0.227781
H31   H     H_    0.250098 0.296283 0.216941 0.211435
H32   H     H_    0.360801 0.288109 0.297504 0.254804
O13   O     O_3   0.128789 0.705870 0.556625 -0.537090
C37   C     C_3   0.170952 0.716360 0.633622 0.176770
H33   H     H_    0.285741 0.708689 0.633392 0.173867
H34   H     H_    0.128009 0.644181 0.672042 0.061805
C38   C     C_3   0.134257 0.846252 0.667713 -0.854231
H35   H     H_    0.154617 0.851911 0.730381 0.200299
H36   H     H_    0.199509 0.915595 0.637068 0.253980
H37   H     H_    0.023130 0.870027 0.660902 0.264114
O14   O     O_3   0.863533 0.326510 0.410839 -0.554522
C39   C     C_3   0.888814 0.203633 0.432618 0.088954
H38   H     H_    0.851687 0.192116 0.493938 0.139698
H39   H     H_    0.000477 0.176164 0.426534 0.170145
C40   C     C_3   0.813359 0.114386 0.379603 -0.778446
H40   H     H_    0.821998 0.018493 0.400006 0.215181
H41   H     H_    0.701571 0.141107 0.379095 0.256667
H42   H     H_    0.861020 0.116600 0.319343 0.228967

loop_
_geom_bond_atom_site_label_1
_geom_bond_atom_site_label_2
_ccdc_geom_bond_type
O14   C39   S    
Cu1   O8    S    
C1    C8    S    
C34   H25   S    
C2    C7    S    
C5    H21   S    
C36   H32   S    
C13   O7    A    
C40   H40   S    
C3    H19   S    
O13   C37   S    
C19   O10   S    
C20   O9    S    
C22   C24   A    
C19   C21   A    
C24   C26   A    
C35   H29   S    
C15   C25   A    
C31   H15   S    
Cu1   N1    S    
C32   H17   S    
C26   H5    S    
C40   H41   S    
Cu1   O4    S    
C29   H10   S    
Cu2   O7    S    
C33   H23   S    
C38   H36   S    
C32   H16   S    
C1    O3    A    
C14   O8    A    
C31   C32   S    
C6    H22   S    
C21   C27   S    
C22   C28   S    
C34   H26   S    
O11   C33   S    
C4    C7    A    
C36   H31   S    
C10   O12   S    
C36   H30   S    
C30   H12   S    
C16   C26   A    
C29   C30   S    
C23   H7    S    
Cu2   N2    S    
C37   H34   S    
C24   H8    S    
C11   N1    A    
C4    C6    A    
C3    C8    A    
C5    C7    A    
C37   H33   S    
C6    C8    A    
C39   C40   S    
C31   H14   S    
O12   C35   S    
Cu2   O3    S    
C32   H18   S    
C17   H3    S    
Cu1   Cu2   S    
C18   H4    S    
C2    O4    A    
Cu1   O5    S    
C33   C34   S    
C29   H9    S    
Cu2   O6    S    
C38   H37   S    
C39   H39   S    
C9    C11   A    
C10   C12   A    
C20   C22   A    
C13   C15   S    
C9    N2    A    
C34   H27   S    
C14   C16   S    
C12   O14   S    
C12   N2    A    
C40   H42   S    
C1    O1    A    
C30   H13   S    
C2    O2    A    
C15   C17   A    
C27   H2    S    
C35   H28   S    
C28   H1    S    
C9    O11   S    
C3    C5    A    
C37   C38   S    
C30   H11   S    
Cu1   O1    S    
Cu2   O2    S    
C21   C23   A    
C4    H20   S    
C35   C36   S    
O10   C31   S    
C11   O13   S    
C17   C19   A    
C10   N1    A    
C18   C20   A    
C23   C25   A    
C39   H38   S    
C13   O5    A    
C14   O6    A    
C16   C18   A    
O9    C29   S    
C27   C28   D    
C33   H24   S    
C38   H35   S    
C25   H6    S    
