data_mof_unit_23072.cif
_audit_creation_date              2012-12-11T15:54:50-0500
_audit_creation_method            fapswitch 2.2
_symmetry_space_group_name_H-M    P1
_symmetry_Int_Tables_number       1
_space_group_crystal_system       triclinic
_cell_length_a                    17.864721
_cell_length_b                    24.471497
_cell_length_c                    15.008445
_cell_angle_alpha                 89.620895
_cell_angle_beta                  125.992178
_cell_angle_gamma                 90.019074
_cell_volume                      5308.59370988

loop_
_atom_site_label
_atom_site_type_symbol
_atom_type_description
_atom_site_fract_x
_atom_site_fract_y
_atom_site_fract_z
_atom_type_partial_charge
C1    C     C_R   0.909343 0.869871 0.094561 -0.130879
C2    C     C_R   0.935574 0.149083 0.092251 0.145071
C3    C     C_R   0.430842 0.353946 0.094236 -0.012752
C4    C     C_R   0.426770 0.644870 0.092722 -0.075913
C5    C     C_R   0.043266 0.845958 0.907997 -0.156496
C6    C     C_R   0.049222 0.153750 0.907741 -0.029309
C7    C     C_R   0.550995 0.346778 0.908693 -0.078009
C8    C     C_R   0.543560 0.654886 0.907946 -0.099928
C9    C     C_R   0.138908 0.153370 0.089987 -0.075310
C10   C     C_R   0.139376 0.845832 0.089321 -0.054904
C11   C     C_R   0.640799 0.653535 0.089633 -0.129633
C12   C     C_R   0.641373 0.346684 0.090877 0.055521
C13   C     C_R   0.323046 0.998937 0.294578 0.099493
C14   C     C_R   0.822996 0.498300 0.306043 0.089244
C15   C     C_R   0.033832 0.001374 0.709317 0.088497
C16   C     C_R   0.539616 0.501337 0.715820 0.129195
C17   C     C_R   0.104028 0.813157 0.996937 0.185406
C18   C     C_R   0.109573 0.185424 0.999111 -0.058132
C19   C     C_R   0.613139 0.315094 0.000214 0.052584
C20   C     C_R   0.602441 0.687715 0.997919 0.035219
C21   C     C_3   0.067257 0.063853 0.495611 0.381443
C22   C     C_3   0.980971 0.972925 0.423184 0.142810
C23   C     C_3   0.581157 0.563218 0.509022 0.375223
C24   C     C_3   0.478207 0.478332 0.423813 0.137484
C25   C     C_3   0.040131 0.064713 0.576758 0.089674
C26   C     C_3   0.971717 0.964717 0.519787 0.083428
C27   C     C_3   0.555717 0.564841 0.591789 0.081850
C28   C     C_3   0.469521 0.469432 0.520786 0.114984
C29   C     C_3   0.155198 0.974745 0.570384 -0.584757
C30   C     C_3   0.652271 0.469078 0.568136 -0.723403
C31   C     C_3   0.072835 0.003426 0.464710 -0.005198
C32   C     C_3   0.574638 0.503235 0.467739 0.059521
C33   C     C_3   0.047275 0.003202 0.620223 -0.130731
C34   C     C_3   0.551870 0.502996 0.625720 -0.071314
C35   C     C_R   0.833815 0.144345 0.908220 -0.126954
C36   C     C_R   0.813989 0.873006 0.909586 0.027935
C37   C     C_R   0.329747 0.641614 0.907422 -0.122693
C38   C     C_R   0.329543 0.358556 0.909327 -0.049328
C39   C     C_3   0.148128 0.980789 0.667928 0.960300
C40   C     C_3   0.647667 0.474605 0.667912 0.948990
C41   C     C_3   0.705767 0.178878 0.965925 -0.388329
C42   C     C_3   0.659269 0.818538 0.893073 -0.454486
C43   C     C_3   0.187645 0.705930 0.880158 -0.393244
C44   C     C_3   0.195959 0.323103 0.959230 -0.466697
C45   C     C_3   0.115715 0.744673 0.872456 -0.233881
C46   C     C_3   0.127090 0.285707 0.963583 -0.233038
C47   C     C_3   0.636317 0.215140 0.970830 -0.293852
C48   C     C_3   0.597053 0.770283 0.880895 -0.255868
C49   C     C_3   0.321599 0.765926 0.024088 0.861905
C50   C     C_3   0.271948 0.241630 0.931207 0.884658
C51   C     C_3   0.771217 0.261370 0.923750 0.862034
C52   C     C_3   0.801355 0.755355 0.010205 0.898811
C53   C     C_3   0.837656 0.232301 0.121720 0.261320
C54   C     C_3   0.749750 0.821178 0.097441 0.203946
C55   C     C_3   0.260910 0.685897 0.079122 0.234056
C56   C     C_3   0.328548 0.272990 0.123847 0.179066
C57   C     C_3   0.794752 0.211200 0.002603 -0.031236
C58   C     C_3   0.759297 0.813415 0.001241 -0.039624
C59   C     C_3   0.281596 0.706328 0.996816 0.000123
C60   C     C_3   0.288520 0.292494 0.004120 0.021281
C61   C     C_3   0.163538 0.772576 0.991273 -0.062491
C62   C     C_3   0.172093 0.226379 0.000791 0.001332
C63   C     C_3   0.676875 0.275386 0.000964 -0.091103
C64   C     C_3   0.652904 0.736147 0.994389 -0.094592
C65   C     C_3   0.250800 0.804574 0.018826 -0.614078
C66   C     C_3   0.197819 0.205360 0.923491 -0.595990
C67   C     C_3   0.696729 0.296299 0.917715 -0.468947
C68   C     C_3   0.741386 0.711232 0.012757 -0.621168
C69   C     C_3   0.196113 0.726673 0.081355 0.274862
C70   C     C_3   0.265085 0.230241 0.120722 0.289470
C71   C     C_3   0.772546 0.273964 0.118629 0.227854
C72   C     C_3   0.682565 0.778203 0.089611 0.364304
C73   C     C_3   0.472633 0.028957 0.332125 -0.446871
C74   C     C_3   0.444255 0.032251 0.479532 -0.309967
C75   C     C_3   0.970356 0.526730 0.337115 -0.362882
C76   C     C_3   0.946321 0.530484 0.490135 -0.341413
C77   C     C_R   0.753449 0.955841 0.689624 -0.088281
C78   C     C_R   0.754234 0.046587 0.690750 -0.105896
C79   C     C_R   0.254740 0.455888 0.689224 -0.098103
C80   C     C_R   0.253334 0.546600 0.691010 -0.033227
C81   C     C_3   0.580934 0.025116 0.418376 0.291512
C82   C     C_3   0.549934 0.033081 0.574309 0.313284
C83   C     C_3   0.078802 0.519019 0.416340 0.276658
C84   C     C_3   0.052814 0.539659 0.571923 0.298453
C85   C     C_3   0.463377 0.940596 0.415918 -0.388464
C86   C     C_3   0.962743 0.439391 0.425180 -0.382997
C87   C     C_3   0.424113 0.999258 0.378354 0.201481
C88   C     C_3   0.923840 0.497994 0.387419 0.146271
C89   C     C_3   0.604241 0.002865 0.532780 -0.056009
C90   C     C_3   0.104626 0.502207 0.534617 -0.048959
C91   C     C_3   0.566088 0.942506 0.509323 -0.293167
C92   C     C_3   0.065242 0.442193 0.519766 -0.327199
C93   C     C_R   0.070113 0.044800 0.311098 0.668296
C94   C     C_R   0.068146 0.955645 0.312400 0.331750
C95   C     C_R   0.568526 0.544872 0.310870 0.627270
C96   C     C_R   0.564417 0.455270 0.311294 0.361712
C97   C     C_R   0.821189 0.855247 0.003171 0.047747
C98   C     C_R   0.857708 0.173046 0.000526 -0.083430
C99   C     C_R   0.351278 0.331125 0.003089 0.115857
C100  C     C_R   0.346957 0.667810 0.999473 0.113202
C101  C     C_R   0.707537 0.001872 0.624013 0.108355
C102  C     C_R   0.207920 0.501778 0.624190 0.045556
C103  C     C_R   0.087861 0.001087 0.376932 -0.131634
C104  C     C_R   0.585859 0.500859 0.376651 -0.118656
C105  C     C_R   0.267325 0.953108 0.259939 -0.024827
C106  C     C_R   0.267928 0.045636 0.258048 -0.198068
C107  C     C_R   0.767156 0.452695 0.267508 -0.027736
C108  C     C_R   0.768525 0.545343 0.266007 -0.187883
C109  C     C_R   0.015178 0.046412 0.748604 -0.122665
C110  C     C_R   0.012143 0.954622 0.743496 -0.050527
C111  C     C_R   0.519458 0.546339 0.753680 -0.092754
C112  C     C_R   0.515872 0.454785 0.747621 -0.008296
H1    H     H_    0.221873 0.991789 0.592358 0.233636
H2    H     H_    0.156234 0.930695 0.554224 0.210168
H3    H     H_    0.721305 0.482137 0.591363 0.236502
H4    H     H_    0.644939 0.425378 0.545418 0.208484
H5    H     H_    0.673341 0.162584 0.881915 0.177662
H6    H     H_    0.659164 0.820535 0.819467 0.183563
H7    H     H_    0.199526 0.717311 0.817594 0.193961
H8    H     H_    0.165045 0.338111 0.874115 0.125851
H9    H     H_    0.725331 0.141113 0.016673 0.277284
H10   H     H_    0.629943 0.858805 0.892529 0.253049
H11   H     H_    0.161030 0.663325 0.858303 0.274334
H12   H     H_    0.211023 0.361603 0.005672 0.270491
H13   H     H_    0.777582 0.151608 0.823856 0.235109
H14   H     H_    0.757687 0.868157 0.824380 0.072325
H15   H     H_    0.277333 0.649741 0.821901 0.193262
H16   H     H_    0.272213 0.352291 0.824737 0.121567
H17   H     H_    0.231921 0.838780 0.960335 0.181849
H18   H     H_    0.135376 0.203765 0.836993 0.200167
H19   H     H_    0.632394 0.296727 0.832454 0.140999
H20   H     H_    0.724549 0.678635 0.952593 0.196623
H21   H     H_    0.904333 0.253071 0.154383 0.113881
H22   H     H_    0.817007 0.814113 0.177302 0.098123
H23   H     H_    0.326072 0.682932 0.162768 0.181658
H24   H     H_    0.396902 0.253148 0.161655 0.131303
H25   H     H_    0.759924 0.260762 0.179774 0.138599
H26   H     H_    0.619677 0.799756 0.069370 0.153272
H27   H     H_    0.134360 0.704965 0.063483 0.208938
H28   H     H_    0.248205 0.243432 0.177828 0.122822
H29   H     H_    0.284765 0.826133 0.098667 0.202449
H30   H     H_    0.222022 0.162149 0.943503 0.215070
H31   H     H_    0.718165 0.339940 0.933277 0.229821
H32   H     H_    0.782812 0.689258 0.093279 0.198720
H33   H     H_    0.450648 0.072555 0.321452 0.086293
H34   H     H_    0.421061 0.074901 0.449178 0.015342
H35   H     H_    0.952588 0.570658 0.332314 0.109801
H36   H     H_    0.911771 0.571116 0.460128 0.048527
H37   H     H_    0.452413 0.917230 0.345846 0.190421
H38   H     H_    0.427864 0.917424 0.444818 0.220245
H39   H     H_    0.952038 0.415801 0.355524 0.210330
H40   H     H_    0.926668 0.416038 0.453174 0.193052
H41   H     H_    0.600627 0.915162 0.485658 0.195655
H42   H     H_    0.577703 0.923119 0.583814 0.207218
H43   H     H_    0.099758 0.412064 0.500683 0.212299
H44   H     H_    0.075644 0.426019 0.595494 0.167769
H45   H     H_    0.286774 0.910450 0.275069 0.100008
H46   H     H_    0.289207 0.087915 0.272717 0.156258
H47   H     H_    0.785897 0.409957 0.283803 0.124369
H48   H     H_    0.790177 0.587552 0.281897 0.113452
H49   H     H_    0.027746 0.088698 0.744668 0.189636
H50   H     H_    0.019253 0.912379 0.730032 0.161980
H51   H     H_    0.534435 0.588596 0.752379 0.164099
H52   H     H_    0.524469 0.412832 0.734619 0.170362
H53   H     H_    0.178254 0.165656 0.175207 0.117754
H54   H     H_    0.183254 0.833990 0.174858 0.184106
H55   H     H_    0.685850 0.663660 0.175418 0.156312
H56   H     H_    0.682726 0.334215 0.176424 0.138189
H57   H     H_    0.138511 0.080851 0.537352 0.144399
H58   H     H_    0.983168 0.931654 0.393853 0.092195
H59   H     H_    0.654965 0.575699 0.551717 0.135771
H60   H     H_    0.472074 0.437553 0.387053 0.103378
N1    N     N_R   0.950530 0.896220 0.057200 -0.047786
N2    N     N_R   0.950530 0.103780 0.057200 -0.096050
N3    N     N_R   0.450530 0.396220 0.057200 -0.072578
N4    N     N_R   0.450530 0.603780 0.057200 -0.091190
N5    N     N_R   0.893330 0.103780 0.942800 -0.073144
N6    N     N_R   0.893330 0.896220 0.942800 -0.056409
N7    N     N_R   0.393330 0.603780 0.942800 -0.060852
N8    N     N_R   0.393330 0.396220 0.942800 -0.072156
N9    N     N_R   0.818150 0.971400 0.792440 -0.092188
N10   N     N_R   0.818150 0.028600 0.792440 -0.064695
N11   N     N_R   0.318150 0.471400 0.792440 -0.084482
N12   N     N_R   0.318150 0.528600 0.792440 -0.054158
N13   N     N_R   0.025710 0.028600 0.207560 -0.142199
N14   N     N_R   0.025710 0.971400 0.207560 -0.111522
N15   N     N_R   0.525710 0.528600 0.207560 -0.143393
N16   N     N_R   0.525710 0.471400 0.207560 -0.097732
N17   N     N_R   0.181850 0.971400 0.207560 -0.046700
N18   N     N_R   0.181850 0.028600 0.207560 -0.071140
N19   N     N_R   0.681850 0.471400 0.207560 -0.052198
N20   N     N_R   0.681850 0.528600 0.207560 -0.062517
N21   N     N_R   0.974290 0.028600 0.792440 -0.063262
N22   N     N_R   0.974290 0.971400 0.792440 -0.058389
N23   N     N_R   0.474290 0.528600 0.792440 -0.061647
N24   N     N_R   0.474290 0.471400 0.792440 -0.074627
N25   N     N_R   0.049470 0.896220 0.942800 -0.077065
N26   N     N_R   0.049470 0.103780 0.942800 -0.070703
N27   N     N_R   0.549470 0.396220 0.942800 -0.077351
N28   N     N_R   0.549470 0.603780 0.942800 -0.055332
N29   N     N_R   0.106670 0.103780 0.057200 -0.057341
N30   N     N_R   0.106670 0.896220 0.057200 -0.061302
N31   N     N_R   0.606670 0.603780 0.057200 -0.063034
N32   N     N_R   0.606670 0.396220 0.057200 -0.057662
Ni1   Ni    Ni4+2 0.065600 0.934400 0.131190 0.293520
Ni2   Ni    Ni4+2 0.065600 0.065600 0.131190 0.211769
Ni3   Ni    Ni4+2 0.565600 0.434400 0.131190 0.266580
Ni4   Ni    Ni4+2 0.565600 0.565600 0.131190 0.203198
Ni5   Ni    Ni4+2 0.934400 0.065600 0.868810 0.225481
Ni6   Ni    Ni4+2 0.934400 0.934400 0.868810 0.239054
Ni7   Ni    Ni4+2 0.434400 0.565600 0.868810 0.255245
Ni8   Ni    Ni4+2 0.434400 0.434400 0.868810 0.237544
C113  C     C_2   0.959627 0.851099 0.209082 0.814665
H61   H     H_    0.939060 0.864562 0.260335 -0.137975
O1    O     O_2   0.026546 0.820896 0.248001 -0.459502
C114  C     C_2   0.013537 0.181681 0.180004 0.452141
H62   H     H_    0.047915 0.210039 0.159517 -0.034971
O2    O     O_2   0.036086 0.180107 0.273958 -0.522168
C115  C     C_2   0.503593 0.325123 0.195294 0.577751
H63   H     H_    0.509781 0.330578 0.270849 0.091124
O3    O     O_2   0.554548 0.292755 0.193459 -0.601717
C116  C     C_2   0.496614 0.673166 0.194998 0.667512
H64   H     H_    0.559489 0.687224 0.206962 0.007078
O4    O     O_2   0.486532 0.680293 0.267550 -0.525652
O5    O     O_3   0.006494 0.097155 0.402913 -0.621866
H65   H     H_    0.023465 0.135654 0.427151 0.339718
O6    O     O_3   0.905607 0.001897 0.333100 -0.657654
H66   H     H_    0.860799 0.974748 0.278837 0.308839
O7    O     O_3   0.525657 0.600699 0.422603 -0.627347
H67   H     H_    0.550060 0.637629 0.453166 0.346312
O8    O     O_3   0.407823 0.512468 0.339724 -0.673529
H68   H     H_    0.358596 0.488737 0.280688 0.326449
C117  C     C_2   0.944393 0.091321 0.524855 0.584311
H69   H     H_    0.933885 0.118750 0.572609 0.078840
O9    O     O_2   0.878693 0.083907 0.429378 -0.436416
C118  C     C_2   0.871089 0.973258 0.477743 0.919525
H70   H     H_    0.816786 0.953534 0.401919 0.031531
O10   O     O_2   0.848900 0.998917 0.528350 -0.588765
C119  C     C_2   0.466314 0.598220 0.545031 0.581099
H71   H     H_    0.466770 0.631579 0.592283 0.088224
O11   O     O_2   0.395644 0.591356 0.452755 -0.489200
C120  C     C_2   0.371109 0.482838 0.481925 0.867829
H72   H     H_    0.313366 0.467811 0.402609 0.043527
O12   O     O_2   0.353946 0.507026 0.538708 -0.652994
O13   O     O_3   0.105790 0.098120 0.665713 -0.759637
H73   H     H_    0.100150 0.135936 0.637627 0.324368
O14   O     O_3   0.988069 0.909108 0.553181 -0.751390
H74   H     H_    0.035765 0.892657 0.547589 0.371490
O15   O     O_3   0.627546 0.592942 0.686173 -0.756330
H75   H     H_    0.631219 0.630686 0.664043 0.313220
O16   O     O_3   0.477388 0.412994 0.546812 -0.761294
H76   H     H_    0.520075 0.394097 0.535380 0.354466
O17   O     O_3   0.218165 0.017235 0.743968 -0.690515
H77   H     H_    0.213548 0.021977 0.806210 0.327858
O18   O     O_3   0.165357 0.928953 0.718919 -0.751106
H78   H     H_    0.184846 0.933860 0.795346 0.306945
O19   O     O_3   0.723444 0.506237 0.749153 -0.690916
H79   H     H_    0.725683 0.504139 0.816780 0.347581
O20   O     O_3   0.655372 0.422303 0.712963 -0.786632
H80   H     H_    0.718059 0.407897 0.742909 0.362660
C121  C     C_2   0.622376 0.194928 0.057036 0.694798
H81   H     H_    0.574618 0.216821 0.066496 0.076785
O21   O     O_2   0.662733 0.155000 0.115623 -0.497438
C122  C     C_2   0.507279 0.793688 0.855902 0.639758
H82   H     H_    0.484299 0.782803 0.906373 -0.006960
O22   O     O_2   0.458953 0.824762 0.777955 -0.472224
C123  C     C_2   0.029237 0.711504 0.835405 0.694073
H83   H     H_    0.962774 0.722168 0.759880 0.075939
O23   O     O_2   0.032760 0.670671 0.884897 -0.535870
C124  C     C_2   0.108122 0.306395 0.044782 0.748360
H84   H     H_    0.063302 0.282782 0.056815 -0.058779
O24   O     O_2   0.141339 0.348592 0.096638 -0.535653
C125  C     C_2   0.088373 0.785402 0.779374 0.418701
H85   H     H_    0.110248 0.827551 0.795448 0.058274
O25   O     O_2   0.043930 0.770343 0.683681 -0.513748
C126  C     C_2   0.036117 0.287202 0.848719 0.502184
H86   H     H_    0.035025 0.276052 0.778159 0.069054
O26   O     O_2   0.963831 0.302582 0.832347 -0.547334
C127  C     C_2   0.543780 0.210936 0.858083 0.635930
H87   H     H_    0.537006 0.225631 0.785361 -0.000214
O27   O     O_2   0.476997 0.188588 0.845627 -0.511750
C128  C     C_2   0.573574 0.737222 0.781154 0.606850
H88   H     H_    0.599571 0.696161 0.789808 0.007122
O28   O     O_2   0.526200 0.757088 0.688480 -0.509335
O29   O     O_3   0.342563 0.782687 0.950602 -0.764374
H89   H     H_    0.284635 0.792874 0.878694 0.320281
O30   O     O_3   0.243348 0.256421 0.824217 -0.715092
H90   H     H_    0.180546 0.272768 0.783003 0.278435
O31   O     O_3   0.739141 0.245888 0.816215 -0.719508
H91   H     H_    0.678606 0.227383 0.780336 0.307011
O32   O     O_3   0.808854 0.747009 0.922532 -0.692050
H92   H     H_    0.746405 0.742934 0.853017 0.299604
O33   O     O_3   0.852596 0.188631 0.192371 -0.657805
H93   H     H_    0.890824 0.202977 0.268654 0.356853
O34   O     O_3   0.717798 0.874045 0.095825 -0.723877
H94   H     H_    0.772237 0.898590 0.133496 0.312023
O35   O     O_3   0.221232 0.633450 0.049910 -0.684442
H95   H     H_    0.225183 0.618516 0.114261 0.364344
O36   O     O_3   0.337731 0.317400 0.189016 -0.757398
H96   H     H_    0.376634 0.304591 0.266837 0.323547
O37   O     O_3   0.239716 0.746803 0.188865 -0.731666
H97   H     H_    0.300840 0.762017 0.215046 0.345812
O38   O     O_3   0.312132 0.179618 0.162846 -0.782497
H98   H     H_    0.337629 0.168435 0.122361 0.347022
O39   O     O_3   0.815354 0.325747 0.154182 -0.762562
H99   H     H_    0.838845 0.336704 0.111232 0.372218
O40   O     O_3   0.721459 0.754351 0.193776 -0.748973
H100  H     H_    0.781585 0.737400 0.219698 0.323493
O41   O     O_3   0.403387 0.768130 0.131470 -0.775306
H101  H     H_    0.432721 0.804128 0.140339 0.357193
O42   O     O_3   0.355677 0.212279 0.982445 -0.753362
H102  H     H_    0.346351 0.183124 0.931101 0.374743
O43   O     O_3   0.850753 0.293629 0.967202 -0.751751
H103  H     H_    0.893622 0.273104 0.957910 0.337749
O44   O     O_3   0.890648 0.750823 0.109020 -0.749248
H104  H     H_    0.919107 0.716664 0.105932 0.372462
C129  C     C_2   0.440135 0.013050 0.216641 0.629005
H105  H     H_    0.460262 0.038276 0.174288 0.061764
O45   O     O_2   0.393010 0.972593 0.170627 -0.600328
C130  C     C_2   0.384712 0.015753 0.517607 0.743472
H106  H     H_    0.339711 0.045916 0.516710 -0.005319
O46   O     O_2   0.386522 0.969437 0.549569 -0.537286
C131  C     C_2   0.931197 0.512499 0.218632 0.617283
H107  H     H_    0.945731 0.539261 0.172638 0.065631
O47   O     O_2   0.885356 0.471415 0.174438 -0.576225
C132  C     C_2   0.901352 0.506293 0.541978 0.727477
H108  H     H_    0.839215 0.525286 0.525002 -0.009303
O48   O     O_2   0.931580 0.465202 0.599620 -0.575444
C133  C     C_2   0.619323 0.081142 0.422749 0.558972
H109  H     H_    0.591997 0.117554 0.434216 -0.027752
O49   O     O_2   0.678063 0.086862 0.405951 -0.454310
C134  C     C_2   0.575499 0.092729 0.607988 0.463751
H110  H     H_    0.558769 0.123992 0.547835 0.022011
O50   O     O_2   0.609235 0.107179 0.702151 -0.575115
C135  C     C_2   0.127470 0.569410 0.414174 0.490333
H111  H     H_    0.200081 0.566315 0.448592 0.111663
O51   O     O_2   0.086476 0.611300 0.364355 -0.572319
C136  C     C_2   0.067664 0.600732 0.569096 0.594231
H112  H     H_    0.048049 0.620881 0.494128 0.036909
O52   O     O_2   0.094942 0.629195 0.649314 -0.506875
C137  C     C_2   0.765366 0.904769 0.647786 0.472525
H113  H     H_    0.775658 0.866517 0.689768 0.036575
O53   O     O_2   0.765482 0.905143 0.566522 -0.527459
C138  C     C_2   0.775939 0.094509 0.650399 0.471671
H114  H     H_    0.819665 0.089565 0.622905 0.115311
O54   O     O_2   0.744957 0.139601 0.646043 -0.579078
C139  C     C_2   0.270652 0.406401 0.646916 0.489049
H115  H     H_    0.294845 0.369432 0.695396 0.051559
O55   O     O_2   0.259951 0.407056 0.558737 -0.517255
C140  C     C_2   0.275157 0.593646 0.649300 0.431970
H116  H     H_    0.319499 0.587526 0.623127 0.118332
O56   O     O_2   0.244510 0.639132 0.642736 -0.525629
O57   O     O_3   0.621398 0.989072 0.383772 -0.645672
H117  H     H_    0.581363 0.956952 0.345974 0.342390
O58   O     O_3   0.565401 0.003882 0.665815 -0.668993
H118  H     H_    0.631639 0.006232 0.728695 0.345364
O59   O     O_3   0.109947 0.477329 0.379993 -0.702068
H119  H     H_    0.063631 0.447946 0.341997 0.357335
O60   O     O_3   0.083341 0.528147 0.681441 -0.658185
H120  H     H_    0.109295 0.490913 0.704704 0.344577
O61   O     O_3   0.130675 0.087996 0.353197 -0.740402
H121  H     H_    0.134447 0.102369 0.294232 0.303814
O62   O     O_3   0.122284 0.909238 0.351572 -0.711754
H122  H     H_    0.177327 0.915837 0.427610 0.346343
O63   O     O_3   0.627958 0.588727 0.353033 -0.756435
H123  H     H_    0.631673 0.603508 0.294295 0.283448
O64   O     O_3   0.612801 0.406923 0.350245 -0.786490
H124  H     H_    0.671910 0.413687 0.422859 0.330769
C141  C     C_2   0.952764 0.827073 0.813363 0.390358
H125  H     H_    0.924666 0.842971 0.731858 0.063308
O65   O     O_2   0.907476 0.795064 0.826430 -0.542756
C142  C     C_2   0.964784 0.176166 0.808112 0.430367
H126  H     H_    0.911423 0.193442 0.812890 0.113858
O66   O     O_2   0.955174 0.177440 0.720782 -0.611089
C143  C     C_2   0.469468 0.325179 0.805764 0.407371
H127  H     H_    0.456048 0.335236 0.727245 0.049300
O67   O     O_2   0.414433 0.296714 0.807851 -0.510177
C144  C     C_2   0.453582 0.674908 0.812861 0.440477
H128  H     H_    0.410595 0.700125 0.825149 0.064930
O68   O     O_2   0.427334 0.664476 0.719538 -0.583141

loop_
_geom_bond_atom_site_label_1
_geom_bond_atom_site_label_2
_ccdc_geom_bond_type
C69   H27   S    
C70   H28   S    
O59   H119  S    
C55   C59   S    
C70   O38   S    
C15   C109  A    
C77   C101  A    
O32   H92   S    
N3    Ni3   S    
C67   H31   S    
C42   C58   S    
C71   H25   S    
O37   H97   S    
C47   C121  S    
C2    C114  S    
C128  H88   S    
C42   C48   S    
C46   C62   S    
C91   H41   S    
C86   C88   S    
C39   O18   S    
C54   H22   S    
C142  H126  S    
C62   C70   S    
C78   C138  S    
C139  H115  S    
N26   Ni5   S    
C83   O59   S    
C17   C61   S    
N18   Ni2   S    
N4    N7    A    
C19   C63   S    
C77   N9    A    
N29   Ni2   S    
C32   C104  S    
C79   C102  A    
C36   C97   A    
C51   C57   S    
C89   C101  S    
C143  O67   D    
O13   H73   S    
C78   C101  A    
C11   H55   S    
C28   C120  S    
C73   C81   S    
C47   C127  S    
C30   H3    S    
C113  O1    D    
C112  H52   S    
C84   C136  S    
C11   C20   A    
C43   H7    S    
C27   C119  S    
N19   N20   A    
C105  N17   A    
C53   H21   S    
C135  O51   D    
C113  H61   S    
N11   N12   A    
C24   C32   S    
O7    H67   S    
C86   H40   S    
C82   O58   S    
C90   C92   S    
O58   H118  S    
C10   N30   A    
N2    N5    A    
C22   H58   S    
C52   C58   S    
C14   C107  A    
C63   C71   S    
C7    C19   A    
C96   C104  A    
N27   N32   A    
C124  O24   D    
C53   C71   S    
C6    N26   A    
C26   C118  S    
C29   H1    S    
C93   O61   S    
N19   Ni3   S    
C36   H14   S    
C13   C106  A    
C38   H16   S    
C143  H127  S    
C50   C66   S    
C39   O17   S    
N4    Ni4   S    
C27   O15   S    
C28   O16   S    
C14   C88   S    
O63   H123  S    
C127  O27   D    
C140  H116  S    
C41   C57   S    
C135  H111  S    
N24   Ni8   S    
C61   C65   S    
C45   C123  S    
C23   H59   S    
C76   H36   S    
N21   N22   A    
C73   H33   S    
O60   H120  S    
N2    Ni2   S    
C131  O47   D    
C144  H128  S    
C16   C111  A    
N16   Ni3   S    
C52   O44   S    
C50   O30   S    
C24   O8    S    
C93   C103  A    
C110  H50   S    
C76   C132  S    
C21   C31   S    
C1    N1    A    
O15   H75   S    
C82   C89   S    
C69   O37   S    
C64   C68   S    
C114  O2    D    
C51   O31   S    
O17   H77   S    
C139  O55   D    
C80   C140  S    
C118  H70   S    
N6    Ni6   S    
C68   H20   S    
O19   H79   S    
N8    Ni8   S    
C90   C102  S    
C16   C34   S    
C73   C87   S    
C122  H82   S    
C75   C131  S    
C109  N21   A    
C74   C87   S    
C89   C91   S    
C117  H69   S    
O43   H103  S    
C50   O42   S    
C109  H49   S    
C43   C59   S    
C72   H26   S    
C46   C124  S    
C59   C100  S    
C133  O49   D    
C84   C90   S    
C74   C130  S    
C56   H24   S    
C125  H85   S    
C137  O53   D    
N28   Ni7   S    
C62   C66   S    
C36   N6    A    
C134  H110  S    
N17   Ni1   S    
C84   O60   S    
C18   C62   S    
C5    N25   A    
N11   Ni8   S    
N23   N24   A    
C80   C102  A    
N9    Ni6   S    
C78   N10   A    
C130  O46   D    
C82   C134  S    
O33   H93   S    
N22   Ni6   S    
C65   H29   S    
C26   C33   S    
C120  O12   D    
O62   H122  S    
C13   C87   S    
O31   H91   S    
C41   C47   S    
N25   N30   A    
C119  O11   D    
C23   O7    S    
C116  O4    D    
C43   C45   S    
C55   C69   S    
C122  O22   D    
C136  O52   D    
C4    N4    A    
C8    N28   A    
C106  N18   A    
C52   O32   S    
C43   H11   S    
N12   Ni7   S    
C21   C25   S    
C81   C133  S    
N13   Ni2   S    
C94   N14   A    
C126  O26   D    
C83   C135  S    
C123  H83   S    
N3    N8    A    
C51   O43   S    
C10   H54   S    
N31   Ni4   S    
C128  O28   D    
C49   C59   S    
C50   C60   S    
C51   C67   S    
N1    N6    A    
C45   C125  S    
C25   O13   S    
C125  O25   D    
C142  O66   D    
C68   H32   S    
C92   H43   S    
C12   N32   A    
C24   H60   S    
C3    C99   A    
C9    C18   A    
C56   C60   S    
C138  H114  S    
C95   O63   S    
C107  N19   A    
C108  N20   A    
C132  O48   D    
C41   H5    S    
C37   C100  A    
O20   H80   S    
C111  N23   A    
C141  O65   D    
C35   N5    A    
C119  H71   S    
C29   H2    S    
C76   C84   S    
O57   H117  S    
C95   N15   A    
O16   H76   S    
C30   H4    S    
N9    N10   A    
C47   C63   S    
C48   C64   S    
C5    C17   A    
C44   H8    S    
N27   Ni8   S    
O35   H95   S    
C129  O45   D    
C85   H38   S    
C112  N24   A    
N25   Ni6   S    
C55   O35   S    
C105  H45   S    
C44   C46   S    
N30   Ni1   S    
C127  H87   S    
C35   C98   A    
C81   C89   S    
C14   C108  A    
C28   C34   S    
O44   H104  S    
C15   C110  A    
C81   O57   S    
C74   C82   S    
C56   O36   S    
C37   N7    A    
C38   N8    A    
O40   H100  S    
C24   C28   S    
C91   H42   S    
C13   C105  A    
O34   H94   S    
C53   C57   S    
C42   H6    S    
C75   H35   S    
O41   H101  S    
C44   H12   S    
C131  H107  S    
O36   H96   S    
O29   H89   S    
O30   H90   S    
N32   Ni3   S    
C6    C142  S    
C120  H72   S    
C8    C20   A    
C140  O56   D    
C9    N29   A    
C3    N3    A    
C94   C103  A    
C73   C129  S    
C1    C113  S    
C144  O68   D    
C115  H63   S    
C26   O14   S    
C16   C112  A    
C74   H34   S    
C38   C99   A    
C65   H17   S    
C40   O19   S    
C66   H30   S    
C23   C32   S    
C9    H53   S    
C77   C137  S    
N15   N16   A    
C86   H39   S    
C123  O23   D    
C75   C83   S    
N13   N14   A    
C121  H81   S    
C44   C60   S    
C4    C116  S    
C57   C98   S    
C12   C19   A    
C45   C61   S    
C118  O10   D    
N17   N18   A    
C94   O62   S    
C7    C143  S    
C3    C115  S    
O39   H99   S    
C22   C26   S    
C124  H84   S    
N1    Ni1   S    
C93   N13   A    
O42   H102  S    
C133  H109  S    
C96   N16   A    
O64   H124  S    
C60   C99   S    
C71   O39   S    
C85   C91   S    
C137  H113  S    
C49   O29   S    
C33   C39   S    
C49   C65   S    
C34   C40   S    
C134  O50   D    
C21   H57   S    
C10   C17   A    
C41   H9    S    
N7    Ni7   S    
C35   H13   S    
N5    Ni5   S    
O6    H66   S    
C72   O40   S    
C5    C141  S    
O38   H98   S    
C79   N11   A    
N15   Ni4   S    
C110  N22   A    
C23   C27   S    
C76   C88   S    
C52   C68   S    
C54   O34   S    
C80   N12   A    
C25   C117  S    
N20   Ni4   S    
C8    C144  S    
C116  H64   S    
C58   C97   S    
C49   O41   S    
C53   O33   S    
C40   O20   S    
C85   C87   S    
C27   C34   S    
C6    C18   A    
C63   C67   S    
C22   C31   S    
C111  H51   S    
C114  H62   S    
C1    C97   A    
C121  O21   D    
C48   C128  S    
C11   N31   A    
C22   O6    S    
C106  H46   S    
C48   C122  S    
N10   Ni5   S    
C46   C126  S    
C132  H108  S    
C31   C103  S    
C20   C64   S    
N23   Ni7   S    
C115  O3    D    
N21   Ni5   S    
C29   C39   S    
N26   N29   A    
O5    H65   S    
C30   C40   S    
C92   H44   S    
C126  H86   S    
C117  O9    D    
C138  O54   D    
C56   C70   S    
C4    C100  A    
O18   H78   S    
C95   C104  A    
C42   H10   S    
C141  H125  S    
C54   C58   S    
C61   C69   S    
C83   C90   S    
N14   Ni1   S    
C67   H19   S    
C12   H56   S    
C107  H47   S    
O14   H74   S    
C108  H48   S    
C21   O5    S    
O61   H121  S    
C79   C139  S    
C130  H106  S    
C29   C31   S    
C86   C92   S    
C2    N2    A    
C30   C32   S    
N28   N31   A    
C55   H23   S    
C64   C72   S    
C7    N27   A    
C129  H105  S    
C96   O64   S    
C85   H37   S    
C75   C88   S    
C54   C72   S    
C2    C98   A    
C136  H112  S    
C25   C33   S    
O8    H68   S    
C66   H18   S    
C15   C33   S    
C37   H15   S    
