data_mof_unit_17252.cif
_audit_creation_date              2012-10-26T20:17:41-0400
_audit_creation_method            fapswitch 2.2
_symmetry_space_group_name_H-M    P1
_symmetry_Int_Tables_number       1
_space_group_crystal_system       triclinic
_cell_length_a                    27.781649
_cell_length_b                    8.702671
_cell_length_c                    7.475193
_cell_angle_alpha                 102.504666
_cell_angle_beta                  94.990462
_cell_angle_gamma                 93.092956
_cell_volume                      1752.82045829

loop_
_atom_site_label
_atom_site_type_symbol
_atom_type_description
_atom_site_fract_x
_atom_site_fract_y
_atom_site_fract_z
_atom_type_partial_charge
C1    C     C_R   0.496898 0.200465 0.454535 0.534905
C2    C     C_R   0.868679 0.355528 0.454016 0.025621
C3    C     C_R   0.354735 0.498639 0.504165 -0.002269
C4    C     C_R   0.645313 0.499366 0.496325 0.001206
C5    C     C_R   0.970908 0.352267 0.460200 0.018596
C6    C     C_R   0.029087 0.644078 0.542390 0.018619
C7    C     C_R   0.977815 0.644365 0.538631 0.019209
C8    C     C_R   0.022186 0.351985 0.464258 0.019200
C9    C     C_R   0.949073 0.498454 0.497715 0.034556
C10   C     C_R   0.050925 0.497893 0.504972 0.034491
C11   C     C_R   0.940355 0.210814 0.419410 -0.146436
C12   C     C_R   0.502430 0.799495 0.545460 0.546360
C13   C     C_R   0.059632 0.785528 0.582692 -0.146464
C14   C     C_R   0.890396 0.212828 0.416617 -0.112404
C15   C     C_R   0.109583 0.783510 0.585161 -0.112510
C16   C     C_R   0.407569 0.499294 0.501193 0.503092
C17   C     C_R   0.592442 0.499888 0.498816 0.507367
C18   C     C_R   0.046041 0.210229 0.428990 -0.146109
C19   C     C_R   0.953970 0.786127 0.574365 -0.146093
C20   C     C_2   0.489610 0.033143 0.432638 0.225986
C21   C     C_2   0.508214 0.966488 0.567500 0.218753
C22   C     C_R   0.175144 0.356561 0.473574 0.397458
C23   C     C_R   0.102200 0.497620 0.508138 -0.026752
C24   C     C_R   0.824862 0.639793 0.529219 0.398051
C25   C     C_R   0.181781 0.637949 0.548904 0.399908
C26   C     C_R   0.818195 0.358416 0.452633 0.400339
C27   C     C_R   0.284308 0.538954 0.674671 -0.062345
C28   C     C_R   0.716083 0.470818 0.326307 -0.061142
C29   C     C_R   0.334421 0.539713 0.672281 -0.153871
C30   C     C_R   0.665973 0.470994 0.328222 -0.154618
C31   C     C_R   0.324088 0.457102 0.338715 -0.158383
C32   C     C_R   0.675683 0.527166 0.662389 -0.152856
C33   C     C_R   0.274011 0.456126 0.341537 -0.056361
C34   C     C_R   0.897797 0.498730 0.494398 -0.026792
C35   C     C_R   0.725771 0.527491 0.660110 -0.056402
C36   C     C_R   0.254013 0.497015 0.509365 0.245731
C37   C     C_R   0.746038 0.499387 0.492220 0.248317
C38   C     C_3   0.421544 0.287503 0.958503 0.063646
C39   C     C_3   0.397315 0.158376 0.800620 -0.386885
C40   C     C_3   0.577657 0.716889 0.039210 0.069701
C41   C     C_3   0.602033 0.842774 0.200262 -0.384759
C42   C     C_3   0.416594 0.971350 0.250802 -0.005011
C43   C     C_3   0.386449 0.843403 0.310314 -0.366169
C44   C     C_3   0.582165 0.062127 0.717352 0.003198
C45   C     C_R   0.124537 0.354169 0.471159 0.024803
C46   C     C_3   0.607678 0.176697 0.886171 -0.330281
C47   C     C_R   0.875468 0.642200 0.531718 0.024528
C48   C     C_R   0.096080 0.211713 0.432371 -0.117438
C49   C     C_R   0.903932 0.784652 0.570993 -0.117405
C50   C     C_R   0.131306 0.640806 0.547981 0.025941
Cu1   Cu    Cu3+1 0.505380 0.517380 0.684380 1.049061
Cu2   Cu    Cu3+1 0.494620 0.482620 0.315620 1.047160
H1    H     H_    0.250680 0.424188 0.213346 0.129794
H2    H     H_    0.131187 0.895234 0.616595 0.173358
H3    H     H_    0.953564 0.095142 0.388209 0.106311
H4    H     H_    0.046420 0.901205 0.613590 0.106126
H5    H     H_    0.027344 0.094721 0.397796 0.103791
H6    H     H_    0.972673 0.901639 0.606024 0.103936
H7    H     H_    0.338721 0.424878 0.207257 0.104584
H8    H     H_    0.660857 0.549032 0.794011 0.105846
H9    H     H_    0.400832 0.394436 0.965373 0.110455
H10   H     H_    0.419940 0.245796 0.087657 0.151806
H11   H     H_    0.417096 0.049658 0.789413 0.165746
H12   H     H_    0.748894 0.549114 0.788667 0.125877
H13   H     H_    0.359301 0.131099 0.825583 0.104324
H14   H     H_    0.397248 0.197912 0.669023 0.150436
H15   H     H_    0.578389 0.763696 0.912981 0.164173
H16   H     H_    0.598905 0.610778 0.026065 0.100066
H17   H     H_    0.603236 0.798245 0.328904 0.145391
H18   H     H_    0.639634 0.873948 0.173716 0.107507
H19   H     H_    0.581570 0.950329 0.218588 0.161706
H20   H     H_    0.405157 0.965343 0.103298 0.153534
H21   H     H_    0.407913 0.089498 0.328262 0.088646
H22   H     H_    0.397205 0.843645 0.456924 0.137815
H23   H     H_    0.112391 0.099784 0.403785 0.163486
H24   H     H_    0.347464 0.865181 0.294292 0.120733
H25   H     H_    0.391732 0.726348 0.222834 0.178505
H26   H     H_    0.590992 0.105689 0.593372 0.109532
H27   H     H_    0.596332 0.943941 0.710153 0.107033
H28   H     H_    0.600230 0.136634 0.012951 0.159710
H29   H     H_    0.647388 0.183476 0.877018 0.097421
H30   H     H_    0.594552 0.296078 0.894348 0.174170
H31   H     H_    0.887624 0.896579 0.599889 0.163583
H32   H     H_    0.643509 0.448347 0.198387 0.110039
H33   H     H_    0.357176 0.573668 0.801669 0.119210
H34   H     H_    0.731681 0.448798 0.196147 0.120769
H35   H     H_    0.268962 0.570907 0.804780 0.124825
H36   H     H_    0.868781 0.101111 0.384783 0.173428
N1    N     N_R   0.202534 0.497152 0.511494 -0.401005
N2    N     N_R   0.797488 0.499209 0.490522 -0.401432
N3    N     N_2   0.486510 0.456430 0.038510 0.092216
N4    N     N_2   0.513490 0.543570 0.961490 0.087442
O1    O     O_R   0.503500 0.286120 0.619780 -0.438703
O2    O     O_2   0.803123 0.776639 0.564766 -0.480735
O3    O     O_2   0.790007 0.221808 0.415099 -0.479938
O4    O     O_2   0.209903 0.774647 0.585185 -0.481883
O5    O     O_3   0.469949 0.317440 0.927216 -0.413243
O6    O     O_3   0.529624 0.683176 0.072504 -0.412363
O7    O     O_3   0.466423 0.943482 0.267434 -0.522879
O8    O     O_3   0.531784 0.054703 0.732046 -0.524656
O9    O     O_R   0.496500 0.713880 0.380220 -0.434087
O10   O     O_R   0.494410 0.256780 0.308360 -0.492127
O11   O     O_R   0.505590 0.743220 0.691640 -0.488714
O12   O     O_R   0.434810 0.514700 0.655690 -0.500020
O13   O     O_R   0.565190 0.485300 0.344310 -0.504583
O14   O     O_R   0.425720 0.485350 0.344280 -0.560545
O15   O     O_R   0.574280 0.514650 0.655720 -0.559832
O16   O     O_2   0.196869 0.219645 0.438971 -0.482632

loop_
_geom_bond_atom_site_label_1
_geom_bond_atom_site_label_2
_ccdc_geom_bond_type
C36   N1    S    
C23   C45   A    
C27   C29   A    
N4    O6    S    
C47   C49   A    
Cu2   O10   S    
C37   N2    S    
C35   C37   A    
C5    C11   A    
C17   O13   A    
C17   O15   A    
C40   O6    S    
C38   C39   S    
C8    C10   A    
C11   C14   A    
Cu1   O11   S    
C43   H24   S    
C33   C36   A    
C15   C50   A    
C31   H7    S    
C3    C29   A    
C25   C50   A    
C46   H30   S    
C16   O12   A    
C42   H21   S    
C40   H15   S    
C31   C33   A    
C35   H12   S    
C29   H33   S    
C16   O14   A    
C41   H19   S    
C38   H9    S    
C2    C34   A    
C43   H22   S    
Cu2   O14   S    
C39   H13   S    
C48   H23   S    
C38   O5    S    
C44   C46   S    
C19   H6    S    
C33   H1    S    
Cu2   O9    S    
Cu1   Cu2   S    
C32   C35   A    
C12   O11   A    
N3    N4    D    
C21   O8    S    
C23   C50   A    
Cu1   O12   S    
C12   C21   S    
C8    C18   A    
C24   N2    A    
C3    C31   A    
C15   H2    S    
C5    C9    A    
C24   O2    S    
Cu1   N4    S    
C46   H29   S    
C19   C49   A    
C18   H5    S    
C42   H20   S    
C2    C26   A    
N3    O5    S    
C27   H35   S    
C4    C32   A    
Cu1   O1    S    
C4    C17   S    
Cu1   O15   S    
C40   C41   S    
Cu2   O13   S    
C7    C19   A    
C13   C15   A    
C28   H34   S    
C9    C34   A    
C10   C23   A    
C39   H14   S    
C26   N2    A    
C42   C43   S    
C32   H8    S    
C11   H3    S    
C41   H17   S    
C45   C48   A    
C26   O3    S    
C7    C9    A    
C1    C20   S    
C24   C47   A    
C44   H27   S    
C18   C48   A    
C6    C10   A    
C5    C8    A    
C6    C7    A    
C27   C36   A    
C43   H25   S    
C39   H11   S    
C25   N1    A    
C13   H4    S    
C44   H26   S    
C14   H36   S    
C12   O9    A    
C42   O7    S    
C6    C13   A    
C46   H28   S    
C44   O8    S    
C49   H31   S    
C20   O7    S    
C28   C37   A    
C22   O16   S    
C28   C30   A    
C22   N1    A    
C30   H32   S    
C2    C14   A    
C22   C45   A    
C20   C21   D    
C25   O4    S    
C1    O1    A    
C40   H16   S    
Cu2   N3    S    
C34   C47   A    
C1    O10   A    
C4    C30   A    
C3    C16   S    
C41   H18   S    
C38   H10   S    
