data_mof_unit_31462.cif
_audit_creation_date              2013-03-05T16:10:15-0500
_audit_creation_method            fapswitch 2.2
_symmetry_space_group_name_H-M    P1
_symmetry_Int_Tables_number       1
_space_group_crystal_system       triclinic
_cell_length_a                    9.845299
_cell_length_b                    10.718486
_cell_length_c                    13.117132
_cell_angle_alpha                 88.757823
_cell_angle_beta                  69.401998
_cell_angle_gamma                 89.445681
_cell_volume                      1295.41014973

loop_
_atom_site_label
_atom_site_type_symbol
_atom_site_description
_atom_site_fract_x
_atom_site_fract_y
_atom_site_fract_z
_atom_type_partial_charge
O1    O     O_R   0.385370 0.683250 0.500010 -0.611258
O2    O     O_R   0.614700 0.683220 0.500010 -0.589025
C1    C     C_R   0.498454 0.739732 0.501990 0.987158
O3    O     O_R   0.328400 0.499990 0.653620 -0.623371
O4    O     O_R   0.557730 0.499960 0.653620 -0.607427
C2    C     C_R   0.419070 0.497298 0.704995 0.907012
Zn1   Zn    Zn3+2 0.346870 0.500020 0.500000 0.993889
Zn2   Zn    Zn3+2 0.653130 0.499980 0.500000 1.062690
O5    O     O_R   0.385300 0.316780 0.499990 -0.633539
O6    O     O_R   0.614630 0.316750 0.499990 -0.586444
O7    O     O_R   0.442270 0.500040 0.346380 -0.605099
O8    O     O_R   0.671600 0.500010 0.346380 -0.560039
C3    C     C_R   0.499664 0.259830 0.502663 0.896401
C4    C     C_R   0.581475 0.500124 0.295336 0.958671
C5    C     C_R   0.755064 0.347853 0.028926 -0.213850
H1    H     H_    0.747399 0.261839 0.843634 0.195004
H2    H     H_    0.838180 0.279083 0.991297 0.193402
C6    C     C_R   0.635990 0.485724 0.177771 -0.235819
C7    C     C_R   0.238334 0.562146 0.881521 -0.232894
C8    C     C_R   0.203573 0.587993 0.992147 0.376385
C9    C     C_R   0.304473 0.557298 0.042417 -0.159511
C10   C     C_R   0.437074 0.497663 0.984142 0.077838
C11   C     C_R   0.457760 0.454362 0.879342 0.066768
C12   C     C_R   0.547580 0.474604 0.028384 -0.002450
C13   C     C_R   0.655995 0.384016 0.979740 0.036073
C14   C     C_R   0.664746 0.330603 0.882109 -0.103977
C15   C     C_R   0.569376 0.367909 0.831321 -0.106889
C16   C     C_R   0.555265 0.539400 0.118468 0.199262
C17   C     C_R   0.742560 0.394276 0.129946 0.290698
C18   C     C_R   0.366917 0.498832 0.824247 -0.143845
H3    H     H_    0.167817 0.594856 0.839093 0.195939
H4    H     H_    0.277446 0.577538 0.127683 0.191834
H5    H     H_    0.581357 0.325841 0.755078 0.208461
C19   C     C_R   0.559732 0.931173 0.573623 0.244013
C20   C     C_R   0.564296 0.060544 0.571390 0.257942
C21   C     C_R   0.500366 0.127016 0.505890 -0.186401
C22   C     C_R   0.431354 0.066041 0.444835 -0.172576
H6    H     H_    0.381841 0.117475 0.394831 0.180041
C23   C     C_R   0.427991 0.938179 0.446359 -0.141978
H7    H     H_    0.376954 0.891216 0.396934 0.220577
C24   C     C_R   0.493999 0.871565 0.508722 -0.216185
C25   C     C_R   0.956249 0.414242 0.441900 0.051571
H8    H     H_    0.924034 0.344906 0.396284 0.190842
C26   C     C_R   0.100251 0.414618 0.441485 -0.040478
H9    H     H_    0.177343 0.346335 0.394604 0.142124
N1    N     N_R   0.142790 0.500030 0.500030 -0.094469
C27   C     C_R   0.043189 0.584557 0.559448 -0.047343
H10   H     H_    0.074558 0.652076 0.607136 0.156818
C28   C     C_R   0.899333 0.584317 0.559542 -0.019941
H11   H     H_    0.821610 0.650944 0.607817 0.203024
N2    N     N_R   0.857180 0.499940 0.500010 -0.102943
N3    N     N_R   0.836935 0.346108 0.183310 0.204800
O9    O     O_R   0.854406 0.226148 0.190242 -0.368249
O10   O     O_R   0.928127 0.420658 0.202565 -0.369832
N4    N     N_R   0.621811 0.122569 0.642896 0.194823
O11   O     O_R   0.565840 0.098389 0.747031 -0.359595
O12   O     O_R   0.750841 0.171306 0.603462 -0.377148
N5    N     N_R   0.504016 0.666932 0.137639 0.220621
O13   O     O_R   0.476141 0.717665 0.232044 -0.389277
O14   O     O_R   0.511399 0.739765 0.055124 -0.300677
N6    N     N_R   0.069605 0.650156 0.051772 0.241067
O15   O     O_R   0.971535 0.670290 0.007734 -0.350624
O16   O     O_R   0.043799 0.686316 0.150967 -0.320296
N7    N     N_R   0.617576 0.861238 0.644008 0.233467
O17   O     O_R   0.536369 0.781196 0.714747 -0.380109
O18   O     O_R   0.746915 0.885059 0.644056 -0.325658

loop_
_geom_bond_atom_site_label_1
_geom_bond_atom_site_label_2
_geom_bond_distance
_ccdc_geom_bond_type
O4    Zn2   1.900241 S    
N4    O11   1.301709 A    
Zn1   N1    2.009089 S    
C5    H2    1.084665 S    
C22   H6    1.084379 S    
C19   C20   1.387164 A    
C16   N5    1.448664 S    
C4    C6    1.454769 S    
C7    C8    1.402032 A    
C25   N2    1.366010 A    
Zn2   O8    1.958484 S    
C7    H3    1.083217 S    
N7    O17   1.301151 A    
C8    C9    1.405366 A    
C28   N2    1.365963 A    
C19   N7    1.438861 S    
O2    C1    1.282085 A    
C13   C14   1.388671 A    
N3    O10   1.300215 A    
O6    C3    1.280271 A    
C27   C28   1.415905 A    
C6    C17   1.413790 A    
O1    Zn1   2.003800 S    
C9    C10   1.414245 A    
C15   H5    1.073747 S    
Zn1   O7    1.900242 S    
Zn2   N2    2.008975 S    
C14   C15   1.380815 A    
O4    C2    1.292747 A    
C19   C24   1.403922 A    
C25   C26   1.415881 A    
O3    Zn1   1.958483 S    
Zn2   O6    2.003802 S    
C21   C22   1.394387 A    
O7    C4    1.296509 A    
O8    C4    1.285915 A    
C5    C17   1.389695 A    
C11   C15   1.407677 A    
N4    O12   1.301145 A    
H1    C14   1.084286 S    
N6    O15   1.302119 A    
C22   C23   1.370745 A    
C9    H4    1.081102 S    
C10   C12   1.419278 A    
C5    C13   1.393727 A    
O3    C2    1.293738 A    
C25   H8    1.080884 S    
N5    O14   1.302048 A    
C11   C18   1.407472 A    
C12   C16   1.408497 A    
C23   H7    1.083716 S    
C6    C16   1.405177 A    
C12   C13   1.420139 A    
C3    C21   1.423306 S    
C23   C24   1.393212 A    
C28   H11   1.079171 S    
C8    N6    1.440509 S    
Zn1   O5    1.996563 S    
O5    C3    1.286523 A    
N1    C27   1.365852 A    
C1    C24   1.417007 S    
C26   N1    1.366547 A    
C2    C18   1.465130 S    
N5    O13   1.300632 A    
C10   C11   1.405513 A    
C7    C18   1.401370 A    
C20   N4    1.431913 S    
C17   N3    1.432658 S    
N6    O16   1.301960 A    
O2    Zn2   1.996563 S    
C26   H9    1.081785 S    
C27   H10   1.081801 S    
N3    O9    1.301064 A    
O1    C1    1.280938 A    
C20   C21   1.409692 A    
N7    O18   1.301367 A    
