data_mof_unit_25649.cif
_audit_creation_date              2012-12-11T15:35:01-0500
_audit_creation_method            fapswitch 2.2
_symmetry_space_group_name_H-M    P1
_symmetry_Int_Tables_number       1
_space_group_crystal_system       triclinic
_cell_length_a                    30.049383
_cell_length_b                    7.269117
_cell_length_c                    26.086277
_cell_angle_alpha                 90.000026
_cell_angle_beta                  112.550446
_cell_angle_gamma                 90.000334
_cell_volume                      5262.42699437

loop_
_atom_site_label
_atom_site_type_symbol
_atom_type_description
_atom_site_fract_x
_atom_site_fract_y
_atom_site_fract_z
_atom_type_partial_charge
O1    O     O_R   0.295360 0.592990 0.320420 -0.532368
O2    O     O_R   0.704640 0.407010 0.679580 -0.528800
O3    O     O_R   0.204640 0.092990 0.179580 -0.532369
O4    O     O_R   0.795360 0.907010 0.820420 -0.528815
O5    O     O_R   0.294060 0.265620 0.213230 -0.531376
O6    O     O_R   0.705940 0.734380 0.786770 -0.538649
O7    O     O_R   0.205940 0.765620 0.286770 -0.531373
O8    O     O_R   0.794060 0.234380 0.713230 -0.538641
C1    C     C_R   0.303770 0.431907 0.199383 0.702416
C2    C     C_R   0.696269 0.568088 0.800664 0.701730
C3    C     C_R   0.196230 0.931907 0.300617 0.702425
C4    C     C_R   0.803730 0.068088 0.699335 0.701717
O9    O     O_R   0.300850 0.263360 0.322080 -0.529603
O10   O     O_R   0.699150 0.736640 0.677920 -0.532522
O11   O     O_R   0.199150 0.763360 0.177920 -0.529607
O12   O     O_R   0.800850 0.236640 0.822080 -0.532508
O13   O     O_R   0.211480 0.091820 0.289210 -0.535822
O14   O     O_R   0.788520 0.908180 0.710790 -0.529608
O15   O     O_R   0.288520 0.591820 0.210790 -0.535825
O16   O     O_R   0.711480 0.408180 0.789210 -0.529592
C5    C     C_R   0.313421 0.431699 0.343433 0.666363
C6    C     C_R   0.686891 0.567818 0.656342 0.666446
C7    C     C_R   0.186579 0.931697 0.156567 0.666376
C8    C     C_R   0.813109 0.067819 0.843658 0.666452
O17   O     O_3   0.220670 0.426670 0.239090 -0.370565
O18   O     O_3   0.779330 0.573330 0.760910 -0.367775
O19   O     O_3   0.279330 0.926670 0.260910 -0.370565
O20   O     O_3   0.720670 0.073330 0.739090 -0.367772
V1    V     V_3+5 0.255440 0.152290 0.252020 1.463267
V2    V     V_3+5 0.744560 0.847710 0.747980 1.477955
V3    V     V_3+5 0.244560 0.652290 0.247980 1.463276
V4    V     V_3+5 0.755440 0.347710 0.752020 1.478012
C9    C     C_R   0.847553 0.050933 0.902207 -0.109578
C10   C     C_R   0.151204 0.936569 0.098305 -0.110690
C11   C     C_R   0.652448 0.550921 0.597792 -0.109606
C12   C     C_R   0.348796 0.436581 0.401695 -0.110688
C13   C     C_R   0.864587 0.937663 0.996040 -0.029778
C14   C     C_R   0.130808 0.885637 0.999491 -0.031923
C15   C     C_R   0.635412 0.437520 0.503971 -0.029797
C16   C     C_R   0.369186 0.385785 0.500515 -0.031951
C17   C     C_R   0.830839 0.998386 0.943743 -0.058471
C18   C     C_R   0.166148 0.908901 0.053983 -0.061638
C19   C     C_R   0.669162 0.498297 0.556262 -0.058459
C20   C     C_R   0.333848 0.408999 0.446018 -0.061654
C21   C     C_R   0.896956 0.045182 0.913329 -0.120468
C22   C     C_R   0.102081 0.950191 0.087901 -0.122306
C23   C     C_R   0.603045 0.545207 0.586669 -0.120464
C24   C     C_R   0.397920 0.450156 0.412101 -0.122282
C25   C     C_R   0.930918 0.971016 0.963450 0.098162
C26   C     C_R   0.065862 0.920255 0.034363 0.101310
C27   C     C_R   0.569081 0.470998 0.536555 0.098175
C28   C     C_R   0.434136 0.420266 0.465643 0.101324
C29   C     C_R   0.915387 0.938021 0.007642 0.012829
C30   C     C_R   0.080411 0.907599 0.988678 0.013832
C31   C     C_R   0.584612 0.437910 0.492369 0.012811
C32   C     C_R   0.419584 0.407705 0.511328 0.013811
C33   C     C_R   0.980128 0.933617 0.970819 0.018907
C34   C     C_R   0.015523 0.909723 0.025368 0.020819
C35   C     C_R   0.519870 0.433639 0.529189 0.018902
C36   C     C_R   0.484475 0.409691 0.474642 0.020823
C37   C     C_R   0.999345 0.868170 0.068806 -0.070029
C38   C     C_R   0.994761 0.909410 0.925291 -0.071084
C39   C     C_R   0.500653 0.368042 0.431211 -0.070028
C40   C     C_R   0.505233 0.409525 0.574718 -0.071074
C41   C     C_R   0.950708 0.897945 0.061367 -0.058735
C42   C     C_R   0.044247 0.911463 0.933825 -0.062700
C43   C     C_R   0.549291 0.397775 0.438648 -0.058735
C44   C     C_R   0.455747 0.411619 0.566182 -0.062710
H1    H     H_    0.092757 0.986827 0.122661 0.085559
H2    H     H_    0.908205 0.096364 0.881317 0.091532
H3    H     H_    0.407247 0.486726 0.377339 0.085543
H4    H     H_    0.591797 0.596448 0.618675 0.091542
C45   C     C_R   0.071739 0.825294 0.456895 0.588314
C46   C     C_R   0.927043 0.173581 0.541962 0.589450
C47   C     C_R   0.428263 0.325285 0.043109 0.588309
C48   C     C_R   0.572960 0.673563 0.958041 0.589444
N1    N     N_R   0.075254 0.973020 0.425826 -0.562244
N2    N     N_R   0.924336 0.027266 0.573899 -0.564430
N3    N     N_R   0.424747 0.473016 0.074175 -0.562241
N4    N     N_R   0.575670 0.527242 0.926107 -0.564427
C49   C     C_R   0.048711 0.129581 0.422407 0.597047
C50   C     C_R   0.951104 0.871237 0.577675 0.600347
C51   C     C_R   0.451290 0.629578 0.077592 0.597040
C52   C     C_R   0.548902 0.371211 0.922333 0.600355
C53   C     C_R   0.017608 0.142552 0.451241 -0.034553
C54   C     C_R   0.981808 0.857462 0.548364 -0.036082
C55   C     C_R   0.482393 0.642544 0.048760 -0.034553
C56   C     C_R   0.518198 0.357440 0.951643 -0.036083
C57   C     C_R   0.014760 0.994100 0.484551 -0.012741
C58   C     C_R   0.984432 0.005532 0.514790 -0.013771
C59   C     C_R   0.485243 0.494087 0.015453 -0.012740
C60   C     C_R   0.515573 0.505515 0.985214 -0.013769
C61   C     C_R   0.042160 0.834232 0.487683 -0.041874
C62   C     C_R   0.956797 0.164995 0.511380 -0.041619
C63   C     C_R   0.457843 0.334218 0.012322 -0.041873
C64   C     C_R   0.543206 0.664980 0.988623 -0.041615
C65   C     C_R   0.989516 0.300306 0.447769 -0.141172
C66   C     C_R   0.009760 0.699447 0.551664 -0.138984
C67   C     C_R   0.510487 0.800298 0.052232 -0.141183
C68   C     C_R   0.490245 0.199426 0.948344 -0.138986
C69   C     C_R   0.959417 0.311215 0.477370 -0.155764
C70   C     C_R   0.039529 0.687947 0.521672 -0.156292
C71   C     C_R   0.540586 0.811203 0.022631 -0.155768
C72   C     C_R   0.460474 0.187930 0.978335 -0.156293
O21   O     O_2   0.096990 0.670643 0.458246 -0.495335
O22   O     O_2   0.900882 0.326477 0.539622 -0.495492
O23   O     O_2   0.403014 0.170631 0.041760 -0.495335
O24   O     O_2   0.599118 0.826465 0.960377 -0.495491
O25   O     O_2   0.052636 0.272881 0.391542 -0.495784
O26   O     O_2   0.947798 0.729411 0.609385 -0.493486
O27   O     O_2   0.447363 0.772884 0.108455 -0.495786
O28   O     O_2   0.552210 0.229377 0.890627 -0.493478
H5    H     H_    0.990808 0.416318 0.422317 0.179288
H6    H     H_    0.008564 0.583612 0.577225 0.178739
H7    H     H_    0.509194 0.916313 0.077683 0.179287
H8    H     H_    0.491442 0.083588 0.922783 0.178744
H9    H     H_    0.938342 0.435009 0.473648 0.175715
H10   H     H_    0.060483 0.563915 0.525241 0.176244
H11   H     H_    0.561661 0.934997 0.026352 0.175717
H12   H     H_    0.439521 0.063898 0.974766 0.176246
C73   C     C_R   0.912269 0.074050 0.660790 -0.088722
C74   C     C_R   0.087191 0.952662 0.338000 -0.091722
C75   C     C_R   0.587730 0.573924 0.839208 -0.088715
C76   C     C_R   0.412809 0.452710 0.162001 -0.091728
H13   H     H_    0.950758 0.093858 0.681814 0.150411
H14   H     H_    0.048423 0.952753 0.316140 0.151518
H15   H     H_    0.549238 0.593647 0.818182 0.150430
H16   H     H_    0.451577 0.452835 0.183862 0.151504
C77   C     C_R   0.882931 0.084940 0.691130 -0.220745
C78   C     C_R   0.116558 0.942716 0.307684 -0.228425
C79   C     C_R   0.617066 0.584820 0.808866 -0.220712
C80   C     C_R   0.383442 0.442767 0.192317 -0.228441
H17   H     H_    0.899281 0.111653 0.735338 0.128624
H18   H     H_    0.099995 0.936913 0.262779 0.124180
H19   H     H_    0.600713 0.611451 0.764654 0.128606
H20   H     H_    0.400004 0.437002 0.237223 0.124172
C81   C     C_R   0.833058 0.060360 0.665114 -0.062391
C82   C     C_R   0.166756 0.939445 0.334675 -0.059495
C83   C     C_R   0.666943 0.560359 0.834886 -0.062393
C84   C     C_R   0.333244 0.439446 0.165325 -0.059488
C85   C     C_R   0.811998 0.026508 0.607116 0.092996
C86   C     C_R   0.188052 0.945622 0.393532 0.099554
C87   C     C_R   0.688008 0.526613 0.892890 0.092983
C88   C     C_R   0.311949 0.445573 0.106468 0.099544
C89   C     C_R   0.842141 0.011179 0.576441 0.178383
C90   C     C_R   0.158066 0.963618 0.424335 0.181235
C91   C     C_R   0.657867 0.511265 0.923567 0.178394
C92   C     C_R   0.341934 0.463572 0.075665 0.181246
C93   C     C_R   0.892575 0.037087 0.603747 0.344467
C94   C     C_R   0.107188 0.963473 0.396077 0.341234
C95   C     C_R   0.607429 0.537064 0.896257 0.344445
C96   C     C_R   0.392812 0.463473 0.103923 0.341233
C97   C     C_2   0.938179 0.908807 0.111270 0.383877
H21   H     H_    0.918390 0.027218 0.116649 0.053968
O29   O     O_2   0.947371 0.783102 0.144797 -0.502774
C98   C     C_2   0.057725 0.940064 0.885108 0.392831
H22   H     H_    0.082388 0.050306 0.886046 0.054399
O30   O     O_2   0.043563 0.836490 0.845219 -0.498345
C99   C     C_2   0.561822 0.408524 0.388744 0.383777
H23   H     H_    0.581608 0.526913 0.383345 0.053955
O31   O     O_2   0.552633 0.282754 0.355238 -0.502774
C100  C     C_2   0.442269 0.440315 0.614894 0.392819
H24   H     H_    0.417609 0.550586 0.613943 0.054403
O32   O     O_2   0.456425 0.336788 0.654795 -0.498345
C101  C     C_3   0.757801 0.010150 0.577290 -0.698768
H25   H     H_    0.737700 0.032339 0.604575 0.188267
H26   H     H_    0.744725 0.114593 0.543825 0.243148
H27   H     H_    0.748343 0.871528 0.558721 0.235486
C102  C     C_3   0.242190 0.929222 0.423998 -0.719306
H28   H     H_    0.261994 0.914998 0.396085 0.190046
H29   H     H_    0.256593 0.052079 0.450166 0.223234
H30   H     H_    0.250575 0.806112 0.451145 0.250842
C103  C     C_3   0.742207 0.510382 0.922717 -0.698816
H31   H     H_    0.762304 0.532600 0.895429 0.188245
H32   H     H_    0.755268 0.614866 0.956172 0.243066
H33   H     H_    0.751687 0.371790 0.941300 0.235595
C104  C     C_3   0.257812 0.429114 0.076002 -0.719311
H34   H     H_    0.238008 0.414901 0.103916 0.190045
H35   H     H_    0.243401 0.551940 0.049822 0.223240
H36   H     H_    0.249436 0.305975 0.048867 0.250841
C105  C     C_3   0.820339 0.965517 0.515151 -0.656229
H37   H     H_    0.795689 0.077577 0.492124 0.223309
H38   H     H_    0.847626 0.947103 0.496644 0.202963
H39   H     H_    0.799930 0.834528 0.508673 0.232091
C106  C     C_3   0.180655 0.986836 0.486761 -0.656435
H40   H     H_    0.153946 0.013703 0.505595 0.203467
H41   H     H_    0.201050 0.860896 0.506159 0.228163
H42   H     H_    0.205450 0.106617 0.497483 0.222666
C107  C     C_3   0.679675 0.465696 0.984863 -0.656206
H43   H     H_    0.704305 0.577829 0.007875 0.223310
H44   H     H_    0.652391 0.447224 0.003370 0.202959
H45   H     H_    0.700108 0.334762 0.991358 0.232103
C108  C     C_3   0.319344 0.486751 0.013237 -0.656439
H46   H     H_    0.346052 0.513629 0.994403 0.203469
H47   H     H_    0.298956 0.360789 0.993846 0.228167
H48   H     H_    0.294543 0.606511 0.002508 0.222657
C109  C     C_2   0.219002 0.901308 0.066060 0.305683
H49   H     H_    0.244536 0.865336 0.107175 0.077500
O33   O     O_2   0.235082 0.941049 0.031068 -0.543327
C110  C     C_2   0.777618 0.001444 0.930489 0.307855
H50   H     H_    0.751997 0.002771 0.887816 0.078359
O34   O     O_2   0.761357 0.009466 0.966702 -0.541615
C111  C     C_2   0.280993 0.401441 0.433938 0.305711
H51   H     H_    0.255459 0.365469 0.392823 0.077489
O35   O     O_2   0.264911 0.441202 0.468928 -0.543327
C112  C     C_2   0.722385 0.501350 0.569515 0.307922
H52   H     H_    0.748004 0.502918 0.612188 0.078314
O36   O     O_2   0.738648 0.509092 0.533301 -0.541603
C113  C     C_2   0.845676 0.839761 0.033351 0.431492
H53   H     H_    0.825441 0.913264 0.053479 0.101105
O37   O     O_2   0.852931 0.675161 0.041816 -0.501577
C114  C     C_2   0.146569 0.803362 0.957179 0.428407
H54   H     H_    0.170196 0.878313 0.941954 0.101716
O38   O     O_2   0.132925 0.649680 0.939063 -0.498149
C115  C     C_2   0.654320 0.339539 0.466671 0.431652
H55   H     H_    0.674539 0.413008 0.446516 0.101038
O39   O     O_2   0.647078 0.174917 0.458244 -0.501600
C116  C     C_2   0.353420 0.303612 0.542835 0.428490
H56   H     H_    0.329801 0.378638 0.558055 0.101698
O40   O     O_2   0.367052 0.149936 0.560966 -0.498145
C117  C     C_2   0.030633 0.764605 0.118937 0.442659
H57   H     H_    0.033318 0.805423 0.160003 0.069202
O41   O     O_2   0.053533 0.631097 0.114400 -0.514836
C118  C     C_2   0.959482 0.851893 0.869776 0.440365
H58   H     H_    0.959628 0.915282 0.832205 0.070120
O42   O     O_2   0.930124 0.730922 0.865788 -0.515146
C119  C     C_2   0.469364 0.264425 0.381091 0.442651
H59   H     H_    0.466682 0.305170 0.340021 0.069210
O43   O     O_2   0.446457 0.130955 0.385644 -0.514835
C120  C     C_2   0.540510 0.352058 0.630241 0.440364
H60   H     H_    0.540363 0.415507 0.667803 0.070103
O44   O     O_2   0.569865 0.231063 0.634243 -0.515147

loop_
_geom_bond_atom_site_label_1
_geom_bond_atom_site_label_2
_ccdc_geom_bond_type
O17   V3    S    
N4    C95   S    
C67   C71   A    
C111  H51   S    
O1    C5    A    
C101  H25   S    
C55   C59   A    
O19   V1    S    
C9    C21   A    
C102  H28   S    
C46   C62   A    
C90   C106  S    
O3    C7    A    
C68   H8    S    
C45   C61   A    
C88   C92   A    
C11   C23   A    
C118  H58   S    
C48   O24   S    
C33   C34   A    
C47   C63   A    
C33   C38   A    
C5    C12   S    
C103  H31   S    
O7    C3    A    
C6    C11   S    
C111  O35   D    
C35   C40   A    
C52   O28   S    
C72   H12   S    
C36   C39   A    
C50   O26   S    
O9    V1    S    
C98   H22   S    
C3    C82   S    
C14   C18   A    
C79   H19   S    
C115  O39   D    
C99   H23   S    
C67   H7    S    
O4    C8    A    
C1    C84   S    
C112  O36   D    
C80   H20   S    
C106  H41   S    
C51   C55   A    
C89   C105  S    
O1    V3    S    
O13   V1    S    
C31   C43   A    
C76   C80   A    
O2    V4    S    
O3    V1    S    
C86   C90   A    
C22   H1    S    
C41   C97   S    
C28   C36   A    
C90   C94   A    
C83   C87   A    
C1    O15   A    
C68   C72   A    
C15   C31   A    
C80   C84   A    
C56   C60   A    
C62   C69   A    
C2    O16   A    
C110  H50   S    
C16   C32   A    
C10   C18   A    
O2    C6    A    
C20   C111  S    
C99   O31   D    
C10   C22   A    
N1    C49   A    
C97   O29   D    
C11   C19   A    
C16   C20   A    
C100  O32   D    
C70   H10   S    
C53   C65   A    
N4    C52   A    
C76   H16   S    
C16   C116  S    
C13   C29   A    
C74   H14   S    
C7    C10   S    
C34   C37   A    
O11   C7    A    
C76   C96   A    
O15   V3    S    
C35   C36   A    
O12   C8    A    
C19   C112  S    
C57   C61   A    
C102  H29   S    
C78   H18   S    
O10   V2    S    
C17   C110  S    
C58   C62   A    
C55   C67   A    
C105  H38   S    
C60   C64   A    
C75   C95   A    
O7    V3    S    
C38   C42   A    
O8    V4    S    
C48   N4    A    
C47   O23   S    
C79   C83   A    
C82   C86   A    
C73   C77   A    
C59   C60   A    
C53   C57   A    
C112  H52   S    
C106  H42   S    
C15   C19   A    
C40   C120  S    
C104  H35   S    
C32   C44   A    
O4    V2    S    
C26   C34   A    
C105  H37   S    
C107  H45   S    
C87   C91   A    
C115  H55   S    
C39   C43   A    
C73   H13   S    
C117  H57   S    
C37   C41   A    
C46   O22   S    
N2    C50   A    
C65   C69   A    
C45   O21   S    
C119  H59   S    
C14   C30   A    
C21   C25   A    
O8    C4    A    
C104  H36   S    
C116  H56   S    
C108  H47   S    
C113  H53   S    
O9    C5    A    
C26   C30   A    
C114  H54   S    
C109  O33   D    
C120  O44   D    
C13   C113  S    
C56   C68   A    
C103  H32   S    
C86   C102  S    
C77   H17   S    
C110  O34   D    
O6    V2    S    
C49   O25   S    
C104  H34   S    
C101  H27   S    
C38   C118  S    
C54   C58   A    
O14   V2    S    
C102  H30   S    
C51   O27   S    
C12   C20   A    
C27   C35   A    
C2    C83   S    
C87   C103  S    
C24   H3    S    
C65   H5    S    
C78   C82   A    
O5    V1    S    
C40   C44   A    
C75   H15   S    
C29   C41   A    
C63   C72   A    
C100  H24   S    
O16   V4    S    
C105  H39   S    
C107  H43   S    
C81   C85   A    
C3    O13   A    
C45   N1    A    
C75   C79   A    
C21   H2    S    
C18   C109  S    
C71   H11   S    
C92   C96   A    
O5    C1    A    
C118  O42   D    
C61   C70   A    
O6    C2    A    
C25   C33   A    
C23   C27   A    
C103  H33   S    
O11   V3    S    
C30   C42   A    
C44   C100  S    
O12   V4    S    
C22   C26   A    
C85   C101  S    
C8    C9    S    
C50   C54   A    
C15   C115  S    
C116  O40   D    
N1    C94   S    
C9    C17   A    
O10   C6    A    
C98   O30   D    
C57   C58   A    
C69   H9    S    
C120  H60   S    
C117  O41   D    
C119  O43   D    
C66   C70   A    
C48   C64   A    
C108  H48   S    
N3    C51   A    
C106  H40   S    
C52   C56   A    
C91   C107  S    
C25   C29   A    
C91   C95   A    
O20   V2    S    
C85   C89   A    
C113  O37   D    
C73   C93   A    
C12   C24   A    
C27   C31   A    
C13   C17   A    
C109  H49   S    
C54   C66   A    
C37   C117  S    
C23   H4    S    
C74   C94   A    
C66   H6    S    
C114  O38   D    
C59   C63   A    
C39   C119  S    
C92   C108  S    
C24   C28   A    
C77   C81   A    
C88   C104  S    
C101  H26   S    
C108  H46   S    
C46   N2    A    
C64   C71   A    
C4    O14   A    
C89   C93   A    
C4    C81   S    
N3    C96   S    
C43   C99   S    
C42   C98   S    
C14   C114  S    
C84   C88   A    
C47   N3    A    
C74   C78   A    
O18   V4    S    
C49   C53   A    
C28   C32   A    
N2    C93   S    
C107  H44   S    
C97   H21   S    
