data_mof_unit_39124.cif
_audit_creation_date              2012-12-10T16:56:29-0500
_audit_creation_method            fapswitch 2.2
_symmetry_space_group_name_H-M    P1
_symmetry_Int_Tables_number       1
_space_group_crystal_system       triclinic
_cell_length_a                    7.779451
_cell_length_b                    8.578685
_cell_length_c                    15.703221
_cell_angle_alpha                 90.685129
_cell_angle_beta                  86.668095
_cell_angle_gamma                 93.511675
_cell_volume                      1044.22002281

loop_
_atom_site_label
_atom_site_type_symbol
_atom_type_description
_atom_site_fract_x
_atom_site_fract_y
_atom_site_fract_z
_atom_type_partial_charge
C1    C     C_R   0.545625 0.794618 0.497808 0.959865
C2    C     C_3   0.374262 0.393603 0.027912 -0.201201
C3    C     C_1   0.511393 0.499840 0.750531 -0.167000
C4    C     C_1   0.488607 0.500160 0.249469 -0.167001
C5    C     C_3   0.350385 0.536930 0.972536 0.065330
C6    C     C_3   0.649615 0.463070 0.027464 0.065330
C7    C     C_3   0.510422 0.500002 0.916846 0.138602
C8    C     C_3   0.489578 0.499998 0.083154 0.138602
C9    C     C_1   0.514655 0.499806 0.825770 -0.047783
C10   C     C_1   0.485344 0.500194 0.174229 -0.047783
C11   C     C_1   0.812121 0.420796 0.061304 0.172263
C12   C     C_R   0.454375 0.205381 0.502191 0.959865
C13   C     C_1   0.187879 0.579204 0.938696 0.172263
C14   C     C_R   0.503440 0.500081 0.661872 0.900920
C15   C     C_R   0.496559 0.499919 0.338128 0.900921
C16   C     C_2   0.569631 0.958076 0.496559 -0.374644
C17   C     C_2   0.430368 0.041924 0.503440 -0.374644
C18   C     C_3   0.463212 0.643858 0.029050 -0.225159
C19   C     C_3   0.536788 0.356141 0.970950 -0.225159
C20   C     C_3   0.625738 0.606397 0.972088 -0.201201
H1    H     H_    0.728071 0.692835 0.947589 0.164602
H2    H     H_    0.271929 0.307165 0.052411 0.164602
H3    H     H_    0.430768 0.760343 0.054603 0.149038
H4    H     H_    0.569232 0.239657 0.945396 0.149038
H5    H     H_    0.701255 0.008897 0.489989 0.182172
H6    H     H_    0.298745 0.991102 0.510010 0.182172
H7    H     H_    0.013007 0.382548 0.436455 0.195539
H8    H     H_    0.986993 0.617452 0.563545 0.195539
N1    N     N_2   0.950320 0.457950 0.477300 -0.171758
N2    N     N_2   0.049680 0.542050 0.522700 -0.171757
N3    N     N_1   0.939608 0.387226 0.088610 -0.223169
N4    N     N_1   0.060392 0.612774 0.911390 -0.223169
O1    O     O_R   0.389250 0.738570 0.505570 -0.613000
O2    O     O_R   0.610750 0.261430 0.494430 -0.613000
O3    O     O_R   0.678390 0.711630 0.491020 -0.630625
O4    O     O_R   0.321610 0.288370 0.508980 -0.630625
O5    O     O_R   0.355460 0.513480 0.630490 -0.607755
O6    O     O_R   0.644540 0.486520 0.369510 -0.607755
O7    O     O_R   0.644600 0.486540 0.615950 -0.620742
O8    O     O_R   0.355400 0.513460 0.384050 -0.620742
Zn1   Zn    Zn3+2 0.306940 0.517990 0.509710 0.954505
Zn2   Zn    Zn3+2 0.693060 0.482010 0.490290 0.954505

loop_
_geom_bond_atom_site_label_1
_geom_bond_atom_site_label_2
_ccdc_geom_bond_type
C12   C17   S    
C2    H2    S    
C5    C13   S    
C5    C7    S    
N2    Zn1   S    
N1    N2    D    
C3    C9    T    
N1    Zn2   S    
C12   O4    A    
C6    C20   S    
C13   N4    T    
C18   C20   S    
O2    Zn2   S    
O1    Zn1   S    
C4    C15   S    
H8    N2    S    
C19   H4    S    
C14   O7    A    
C11   N3    T    
C15   O6    A    
C1    C16   S    
C14   O5    A    
C6    C19   S    
O4    Zn1   S    
C3    C14   S    
C17   H6    S    
O8    Zn1   S    
O6    Zn2   S    
O7    Zn2   S    
C7    C19   S    
O5    Zn1   S    
C2    C8    S    
C15   O8    A    
C2    C5    S    
H7    N1    S    
C1    O1    A    
C18   H3    S    
C6    C11   S    
C20   H1    S    
C1    O3    A    
C8    C10   S    
C7    C20   S    
C16   H5    S    
C7    C9    S    
O3    Zn2   S    
C6    C8    S    
C5    C18   S    
C12   O2    A    
C2    C19   S    
C4    C10   T    
C8    C18   S    
C16   C17   D    
