data_mof_unit_65501.cif
_audit_creation_date              2012-12-10T17:06:20-0500
_audit_creation_method            fapswitch 2.2
_symmetry_space_group_name_H-M    P1
_symmetry_Int_Tables_number       1
_space_group_crystal_system       triclinic
_cell_length_a                    23.547111
_cell_length_b                    30.547947
_cell_length_c                    19.12506
_cell_angle_alpha                 89.999969
_cell_angle_beta                  126.781011
_cell_angle_gamma                 90.000089
_cell_volume                      11018.3597669

loop_
_atom_site_label
_atom_site_type_symbol
_atom_type_description
_atom_site_fract_x
_atom_site_fract_y
_atom_site_fract_z
_atom_type_partial_charge
C1    C     C_R   0.693534 0.810174 0.879703 0.859942
C2    C     C_R   0.339540 0.162201 0.264140 0.054410
C3    C     C_R   0.622170 0.180825 0.568397 -0.176959
C4    C     C_R   0.254988 0.470271 0.867715 -0.183713
C5    C     C_R   0.877806 0.680820 0.431590 -0.176959
C6    C     C_R   0.744972 0.470252 0.132312 -0.183688
C7    C     C_R   0.122182 0.680822 0.568402 -0.176962
C8    C     C_R   0.687893 0.961893 0.791516 -0.173618
C9    C     C_R   0.404262 0.143718 0.418278 -0.178876
C10   C     C_R   0.312099 0.961890 0.208487 -0.173617
C11   C     C_R   0.595710 0.143723 0.581709 -0.178880
C12   C     C_R   0.187885 0.461896 0.791520 -0.173619
C13   C     C_R   0.298063 0.884029 0.172857 0.053725
C14   C     C_R   0.904275 0.643721 0.418284 -0.178879
C15   C     C_R   0.812088 0.461886 0.208489 -0.173615
C16   C     C_R   0.095718 0.643721 0.581713 -0.178880
C17   C     C_R   0.661278 0.918729 0.769565 0.074019
C18   C     C_R   0.385094 0.133772 0.334528 0.073901
C19   C     C_R   0.338719 0.918728 0.230437 0.074016
C20   C     C_R   0.614894 0.133774 0.665465 0.073901
C21   C     C_R   0.161274 0.418731 0.769567 0.074013
C22   C     C_R   0.885100 0.633773 0.334531 0.073897
C23   C     C_R   0.838715 0.418725 0.230439 0.074004
C24   C     C_R   0.660447 0.162206 0.735849 0.054409
C25   C     C_R   0.114897 0.633774 0.665467 0.073901
C26   C     C_3   0.831748 0.856766 0.933453 -0.379737
C27   C     C_3   0.886536 0.865440 0.916343 -0.890073
C28   C     C_3   0.228467 0.210427 0.201453 -0.396637
C29   C     C_3   0.172298 0.195870 0.213044 -0.875006
C30   C     C_3   0.168254 0.856758 0.066567 -0.379793
C31   C     C_3   0.113480 0.865427 0.083698 -0.890102
C32   C     C_3   0.771499 0.210449 0.798511 -0.396597
C33   C     C_3   0.827665 0.195908 0.786903 -0.875026
C34   C     C_3   0.331748 0.356773 0.933474 -0.379722
C35   C     C_R   0.201933 0.384034 0.827151 0.053712
C36   C     C_3   0.386550 0.365453 0.916390 -0.890069
C37   C     C_3   0.728482 0.710437 0.201470 -0.396619
C38   C     C_3   0.672316 0.695887 0.213069 -0.875017
C39   C     C_3   0.668254 0.356747 0.066611 -0.379806
C40   C     C_3   0.613550 0.365393 0.083869 -0.889991
C41   C     C_3   0.271507 0.710444 0.798520 -0.396615
C42   C     C_3   0.327673 0.695904 0.786914 -0.875030
C43   C     C_R   0.839547 0.662204 0.264145 0.054408
C44   C     C_R   0.798062 0.384025 0.172864 0.053751
C45   C     C_R   0.160450 0.662205 0.735851 0.054407
C46   C     C_R   0.666499 0.843399 0.812828 -0.123255
C47   C     C_R   0.333860 0.156273 0.186240 -0.119740
C48   C     C_R   0.333502 0.843399 0.187172 -0.123249
C49   C     C_R   0.306946 0.189843 0.120278 0.860257
C50   C     C_R   0.666142 0.156273 0.813759 -0.119750
C51   C     C_R   0.166501 0.343400 0.812828 -0.123261
C52   C     C_R   0.833859 0.656273 0.186240 -0.119746
C53   C     C_R   0.833505 0.343398 0.187174 -0.123241
C54   C     C_R   0.166141 0.656273 0.813759 -0.119747
C55   C     C_R   0.598371 0.835964 0.736047 -0.189511
C56   C     C_R   0.362604 0.119376 0.174725 -0.194186
C57   C     C_R   0.401633 0.835965 0.263949 -0.189517
C58   C     C_R   0.637415 0.119371 0.825284 -0.194181
C59   C     C_R   0.098376 0.335961 0.736039 -0.189504
C60   C     C_R   0.306467 0.810174 0.120298 0.859942
C61   C     C_R   0.862595 0.619373 0.174721 -0.194179
C62   C     C_R   0.901638 0.335966 0.263949 -0.189526
C63   C     C_R   0.137409 0.619372 0.825281 -0.194183
C64   C     C_R   0.563398 0.868443 0.674533 -0.220010
C65   C     C_R   0.399155 0.088816 0.240150 -0.223814
C66   C     C_R   0.436605 0.868444 0.325463 -0.220008
C67   C     C_R   0.600863 0.088810 0.759861 -0.223826
C68   C     C_R   0.063403 0.368439 0.674525 -0.220009
C69   C     C_R   0.899146 0.588813 0.240144 -0.223815
C70   C     C_R   0.936609 0.368446 0.325462 -0.220001
C71   C     C_R   0.693055 0.189843 0.879722 0.860251
C72   C     C_R   0.100857 0.588812 0.759857 -0.223824
C73   C     C_R   0.594489 0.909420 0.691141 -0.086549
C74   C     C_R   0.410298 0.095890 0.319270 -0.089572
C75   C     C_R   0.405510 0.909420 0.308857 -0.086554
C76   C     C_R   0.589704 0.095889 0.680733 -0.089552
C77   C     C_R   0.094489 0.409419 0.691140 -0.086540
C78   C     C_R   0.910297 0.595889 0.319269 -0.089563
C79   C     C_R   0.905510 0.409420 0.308856 -0.086562
C80   C     C_R   0.089703 0.595889 0.680732 -0.089556
C81   C     C_R   0.058904 0.560975 0.618625 0.845383
C82   C     C_R   0.193534 0.310174 0.879703 0.859944
C83   C     C_R   0.939778 0.440453 0.378570 0.875115
C84   C     C_R   0.941096 0.560976 0.381376 0.845383
C85   C     C_R   0.060221 0.440451 0.621426 0.875117
C86   C     C_R   0.558904 0.060975 0.618625 0.845383
C87   C     C_R   0.439778 0.940452 0.378572 0.875115
C88   C     C_R   0.441097 0.060976 0.381376 0.845382
C89   C     C_R   0.560221 0.940451 0.621427 0.875114
C90   C     C_R   0.639971 0.751061 0.998630 0.894284
C91   C     C_R   0.359732 0.249220 0.000729 0.894047
C92   C     C_R   0.360029 0.751061 0.001370 0.894285
C93   C     C_R   0.806946 0.689843 0.120278 0.860255
C94   C     C_R   0.640267 0.249218 0.999269 0.894028
C95   C     C_R   0.139970 0.251061 0.998629 0.894283
C96   C     C_R   0.859732 0.749219 0.000729 0.894045
C97   C     C_R   0.860029 0.251061 0.001369 0.894277
C98   C     C_R   0.140268 0.749219 0.999270 0.894044
C99   C     C_1   0.579751 0.752069 0.998637 -0.182513
C100  C     C_1   0.419811 0.248358 0.000453 -0.182718
C101  C     C_1   0.420249 0.752069 0.001362 -0.182512
C102  C     C_1   0.580188 0.248357 0.999544 -0.182711
C103  C     C_1   0.079750 0.252070 0.998637 -0.182514
C104  C     C_R   0.806471 0.310174 0.120298 0.859930
C105  C     C_1   0.919812 0.748357 0.000454 -0.182710
C106  C     C_1   0.920249 0.252069 0.001362 -0.182512
C107  C     C_1   0.080188 0.748357 0.999545 -0.182711
C108  C     C_1   0.529295 0.752634 0.999296 -0.008682
C109  C     C_1   0.470457 0.247902 0.000193 -0.006920
C110  C     C_1   0.470705 0.752634 0.000705 -0.008687
C111  C     C_1   0.529542 0.247902 0.999805 -0.006911
C112  C     C_1   0.029295 0.252634 0.999295 -0.008680
C113  C     C_1   0.970457 0.747901 0.000194 -0.006914
C114  C     C_1   0.970704 0.252634 0.000703 -0.008689
C115  C     C_R   0.193055 0.689843 0.879722 0.860257
C116  C     C_1   0.029542 0.747901 0.999805 -0.006915
C117  C     C_R   0.775440 0.892133 0.894764 0.172147
C118  C     C_R   0.301446 0.194220 0.275548 0.172169
C119  C     C_R   0.224557 0.892128 0.105246 0.172165
C120  C     C_R   0.698524 0.194233 0.724427 0.172173
C121  C     C_R   0.275436 0.392139 0.894776 0.172146
C122  C     C_R   0.801460 0.694226 0.275559 0.172172
C123  C     C_R   0.724552 0.392118 0.105265 0.172216
C124  C     C_R   0.198531 0.694230 0.724433 0.172168
C125  C     C_R   0.799006 0.935648 0.918337 -0.139473
C126  C     C_R   0.701935 0.884031 0.827146 0.053716
C127  C     C_R   0.325927 0.205650 0.360573 -0.139641
C128  C     C_R   0.200986 0.935642 0.081675 -0.139477
C129  C     C_R   0.674026 0.205665 0.639397 -0.139645
C130  C     C_R   0.298996 0.435655 0.918350 -0.139467
C131  C     C_R   0.825949 0.705657 0.360587 -0.139644
C132  C     C_R   0.700970 0.435630 0.081696 -0.139535
C133  C     C_R   0.174038 0.705661 0.639404 -0.139638
C134  C     C_R   0.754999 0.970266 0.867707 -0.183710
C135  C     C_R   0.377785 0.180815 0.431579 -0.176964
C136  C     C_R   0.244990 0.970261 0.132302 -0.183713
H1    H     H_    0.571319 0.805059 0.724120 0.166945
H2    H     H_    0.301027 0.231909 0.371284 0.140306
H3    H     H_    0.146876 0.942751 0.026640 0.139767
H4    H     H_    0.698910 0.231929 0.628675 0.140304
H5    H     H_    0.353101 0.442769 0.973396 0.139763
H6    H     H_    0.801056 0.731919 0.371303 0.140305
H7    H     H_    0.646854 0.442735 0.026672 0.139750
H8    H     H_    0.198926 0.731924 0.628684 0.140306
H9    H     H_    0.774328 0.003580 0.885072 0.153351
H10   H     H_    0.394305 0.188770 0.496458 0.152691
H11   H     H_    0.225658 0.003574 0.114938 0.153352
H12   H     H_    0.357803 0.114527 0.115228 0.164527
H13   H     H_    0.605638 0.188782 0.503513 0.152693
H14   H     H_    0.274312 0.503586 0.885081 0.153352
H15   H     H_    0.894331 0.688775 0.496472 0.152692
H16   H     H_    0.725633 0.503564 0.114949 0.153348
H17   H     H_    0.105654 0.688778 0.503520 0.152693
H18   H     H_    0.656292 0.989487 0.751200 0.139997
H19   H     H_    0.440789 0.123476 0.474340 0.140420
H20   H     H_    0.343699 0.989485 0.248801 0.140006
H21   H     H_    0.559186 0.123478 0.525651 0.140408
H22   H     H_    0.156282 0.489488 0.751201 0.139995
H23   H     H_    0.428686 0.805062 0.275873 0.166943
H24   H     H_    0.940800 0.623476 0.474344 0.140417
H25   H     H_    0.843686 0.489482 0.248798 0.140003
H26   H     H_    0.059194 0.623477 0.525654 0.140414
H27   H     H_    0.511802 0.861700 0.613910 0.149770
H28   H     H_    0.418814 0.059538 0.229115 0.153289
H29   H     H_    0.488202 0.861703 0.386083 0.149774
H30   H     H_    0.581215 0.059528 0.770903 0.153277
H31   H     H_    0.011811 0.361694 0.613897 0.149761
H32   H     H_    0.918799 0.559532 0.229105 0.153281
H33   H     H_    0.988208 0.361706 0.386081 0.149776
H34   H     H_    0.642228 0.114517 0.884788 0.164535
H35   H     H_    0.081206 0.559531 0.770898 0.153279
H36   H     H_    0.859652 0.870130 0.845379 0.270342
H37   H     H_    0.919051 0.894746 0.952429 0.253408
H38   H     H_    0.923011 0.837088 0.938833 0.258881
H39   H     H_    0.859123 0.854941 0.004935 0.230401
H40   H     H_    0.808404 0.824592 0.903505 0.196133
H41   H     H_    0.118675 0.204326 0.154063 0.259266
H42   H     H_    0.174759 0.159847 0.222567 0.267865
H43   H     H_    0.179878 0.212490 0.269686 0.255591
H44   H     H_    0.229044 0.246700 0.198703 0.227925
H45   H     H_    0.071328 0.305054 0.724107 0.166947
H46   H     H_    0.211248 0.196655 0.138209 0.197061
H47   H     H_    0.140375 0.870124 0.154662 0.270351
H48   H     H_    0.080954 0.894729 0.047611 0.253417
H49   H     H_    0.077017 0.837071 0.061225 0.258889
H50   H     H_    0.140867 0.854935 0.995084 0.230408
H51   H     H_    0.191601 0.824585 0.096508 0.196145
H52   H     H_    0.881286 0.204377 0.845873 0.259270
H53   H     H_    0.825225 0.159885 0.777394 0.267865
H54   H     H_    0.820064 0.212527 0.730248 0.255589
H55   H     H_    0.770907 0.246722 0.801260 0.227932
H56   H     H_    0.857788 0.614522 0.115220 0.164530
H57   H     H_    0.788734 0.196674 0.861759 0.197056
H58   H     H_    0.359680 0.370158 0.845431 0.270339
H59   H     H_    0.419074 0.394753 0.952503 0.253393
H60   H     H_    0.423014 0.337097 0.938868 0.258884
H61   H     H_    0.359111 0.354946 0.004953 0.230408
H62   H     H_    0.308409 0.324601 0.903518 0.196132
H63   H     H_    0.618693 0.704347 0.154092 0.259267
H64   H     H_    0.674769 0.659864 0.222589 0.267865
H65   H     H_    0.679904 0.712507 0.269716 0.255591
H66   H     H_    0.729066 0.746710 0.198720 0.227928
H67   H     H_    0.928694 0.305064 0.275872 0.166939
H68   H     H_    0.711256 0.696663 0.138225 0.197059
H69   H     H_    0.640507 0.370021 0.154867 0.270312
H70   H     H_    0.581054 0.394730 0.047916 0.253429
H71   H     H_    0.577050 0.337054 0.061330 0.258877
H72   H     H_    0.640808 0.354945 0.995110 0.230331
H73   H     H_    0.691612 0.324567 0.096498 0.196156
H74   H     H_    0.381296 0.704367 0.845889 0.259269
H75   H     H_    0.325227 0.659883 0.777389 0.267871
H76   H     H_    0.320079 0.712530 0.730268 0.255590
H77   H     H_    0.270915 0.746717 0.801272 0.227938
H78   H     H_    0.142218 0.614520 0.884783 0.164532
H79   H     H_    0.288739 0.696668 0.861765 0.197058
H80   H     H_    0.853113 0.942760 0.973379 0.139761
O1    O     O_R   0.678330 0.769930 0.856640 -0.620995
O2    O     O_R   0.269970 0.178360 0.039920 -0.621276
O3    O     O_R   0.269970 0.821640 0.039920 -0.622403
O4    O     O_R   0.730030 0.178360 0.960080 -0.621278
O5    O     O_R   0.230030 0.321640 0.960080 -0.622420
O6    O     O_R   0.769970 0.678360 0.039920 -0.621275
O7    O     O_R   0.769970 0.321640 0.039920 -0.622381
O8    O     O_R   0.230030 0.678360 0.960080 -0.621278
O9    O     O_R   0.641350 0.724120 0.948260 -0.612835
O10   O     O_R   0.358650 0.275880 0.051740 -0.628060
O11   O     O_R   0.358650 0.724120 0.051740 -0.612837
O12   O     O_R   0.321670 0.230070 0.143360 -0.617991
O13   O     O_R   0.641350 0.275880 0.948260 -0.628043
O14   O     O_R   0.141350 0.224120 0.948260 -0.612835
O15   O     O_R   0.858650 0.775880 0.051740 -0.628058
O16   O     O_R   0.858650 0.224120 0.051740 -0.612838
O17   O     O_R   0.141350 0.775880 0.948260 -0.628056
O18   O     O_R   0.693050 0.775840 0.051700 -0.625619
O19   O     O_R   0.306950 0.224160 0.948300 -0.611828
O20   O     O_R   0.306950 0.775840 0.948300 -0.625621
O21   O     O_R   0.693050 0.224160 0.051700 -0.611825
O22   O     O_R   0.193050 0.275840 0.051700 -0.625616
O23   O     O_R   0.321670 0.769930 0.143360 -0.620995
O24   O     O_R   0.806950 0.724160 0.948300 -0.611828
O25   O     O_R   0.806950 0.275840 0.948300 -0.625623
O26   O     O_R   0.193050 0.724160 0.051700 -0.611828
O27   O     O_R   0.999060 0.545790 0.591600 -0.624932
O28   O     O_R   0.000940 0.454210 0.408400 -0.620113
O29   O     O_R   0.000940 0.545790 0.408400 -0.624931
O30   O     O_R   0.999060 0.454210 0.591600 -0.620110
O31   O     O_R   0.499060 0.045790 0.591600 -0.624932
O32   O     O_R   0.500940 0.954210 0.408400 -0.620112
O33   O     O_R   0.500940 0.045790 0.408400 -0.624930
O34   O     O_R   0.678330 0.230070 0.856640 -0.618003
O35   O     O_R   0.499060 0.954210 0.591600 -0.620111
O36   O     O_R   0.092510 0.545780 0.591590 -0.620247
O37   O     O_R   0.907490 0.454220 0.408410 -0.615592
O38   O     O_R   0.907490 0.545780 0.408410 -0.620253
O39   O     O_R   0.092510 0.454220 0.591590 -0.615591
O40   O     O_R   0.592510 0.045780 0.591590 -0.620247
O41   O     O_R   0.407490 0.954220 0.408410 -0.615592
O42   O     O_R   0.407490 0.045780 0.408410 -0.620251
O43   O     O_R   0.592510 0.954220 0.591590 -0.615592
O44   O     O_R   0.178330 0.269930 0.856640 -0.620995
O45   O     O_R   0.821670 0.730070 0.143360 -0.617996
O46   O     O_R   0.821670 0.269930 0.143360 -0.620997
O47   O     O_R   0.178330 0.730070 0.856640 -0.618000
O48   O     O_R   0.730030 0.821640 0.960080 -0.622411
Zn1   Zn    Zn3+2 0.715450 0.715450 0.930910 0.956426
Zn2   Zn    Zn3+2 0.062420 0.500000 0.500010 0.960579
Zn3   Zn    Zn3+2 0.437580 0.000000 0.499990 0.960577
Zn4   Zn    Zn3+2 0.562420 1.000000 0.500010 0.960579
Zn5   Zn    Zn3+2 0.284550 0.284550 0.069090 0.938768
Zn6   Zn    Zn3+2 0.284550 0.715450 0.069090 0.956423
Zn7   Zn    Zn3+2 0.715450 0.284550 0.930910 0.938793
Zn8   Zn    Zn3+2 0.215450 0.215450 0.930910 0.956424
Zn9   Zn    Zn3+2 0.784550 0.784550 0.069090 0.938771
Zn10  Zn    Zn3+2 0.784550 0.215450 0.069090 0.956425
Zn11  Zn    Zn3+2 0.215450 0.784550 0.930910 0.938774
Zn12  Zn    Zn3+2 0.937580 0.500000 0.499990 0.960577

loop_
_geom_bond_atom_site_label_1
_geom_bond_atom_site_label_2
_ccdc_geom_bond_type
C125  C134  A    
C96   C105  S    
C56   H12   S    
C86   O31   A    
C25   C45   A    
C123  C132  A    
C2    C18   A    
C25   C80   A    
C48   C57   A    
C41   C42   S    
C122  C131  A    
C90   O9    A    
O29   Zn2   S    
C89   O43   A    
C26   C117  S    
C57   C66   A    
C98   O26   A    
C87   O41   A    
C112  C114  S    
C2    C118  A    
C42   H76   S    
C87   O32   A    
C47   C49   S    
C82   O5    A    
C99   C108  T    
C129  H4    S    
O15   Zn9   S    
C26   C27   S    
O18   Zn9   S    
C124  C133  A    
C106  C114  T    
C11   H21   S    
O26   Zn6   S    
C41   C124  S    
C105  C113  T    
C28   C29   S    
C58   H34   S    
C70   H33   S    
C10   C136  A    
C43   C52   A    
C7    C133  A    
O12   Zn5   S    
C109  C111  S    
O10   Zn5   S    
C30   C31   S    
C31   H48   S    
C125  H80   S    
C17   C126  A    
C97   O16   A    
O45   Zn9   S    
C30   C119  S    
C53   C104  S    
C86   O40   A    
C56   C65   A    
O17   Zn11  S    
C91   O19   A    
C16   C25   A    
C39   C123  S    
C39   H73   S    
C90   O18   A    
C33   H53   S    
C96   O15   A    
C59   H45   S    
C130  H5    S    
C28   H46   S    
O43   Zn4   S    
C94   O21   A    
C6    C15   A    
C44   C53   A    
C74   C88   S    
C20   C24   A    
C92   O11   A    
C95   C103  S    
C38   H65   S    
O41   Zn3   S    
C46   C55   A    
C61   H56   S    
C37   H66   S    
C95   O14   A    
C93   O6    A    
C127  H2    S    
C91   C100  S    
C4    C12   A    
C8    H18   S    
C117  C126  A    
C121  C130  A    
C104  O7    A    
C34   C36   S    
C71   O34   A    
O23   Zn6   S    
C88   O42   A    
C113  C116  S    
C6    H16   S    
C119  C128  A    
O21   Zn10  S    
C15   C23   A    
C88   O33   A    
O40   Zn4   S    
C40   H71   S    
C77   C85   S    
C100  C109  T    
C18   C74   A    
C29   H41   S    
C55   C64   A    
C17   C73   A    
C96   O24   A    
C62   C70   A    
C27   H37   S    
C69   C78   A    
C104  O46   A    
O34   Zn7   S    
C32   C120  S    
C64   H27   S    
O42   Zn3   S    
C27   H38   S    
O9    Zn1   S    
C13   C119  A    
C46   C126  A    
C48   C60   S    
C93   O45   A    
C45   C124  A    
C24   C50   A    
O46   Zn10  S    
C40   H70   S    
C11   C20   A    
C85   O39   A    
C3    H13   S    
C13   C19   A    
C24   C120  A    
C82   O44   A    
C120  C129  A    
C50   C58   A    
C72   H35   S    
O16   Zn10  S    
C115  O8    A    
C35   C121  A    
C22   C78   A    
C6    C132  A    
C60   O3    A    
C10   H20   S    
C39   C40   S    
O6    Zn1   S    
O38   Zn12  S    
C32   H57   S    
C4    C130  A    
C97   O25   A    
C16   H26   S    
O19   Zn8   S    
C8    C134  A    
C12   C21   A    
C92   O20   A    
O2    Zn8   S    
C65   C74   A    
O25   Zn7   S    
C32   H55   S    
C14   H24   S    
C33   H54   S    
C95   O22   A    
O44   Zn8   S    
O22   Zn5   S    
C50   C71   S    
C36   H60   S    
O7    Zn7   S    
C37   C38   S    
C59   C68   A    
C1    O48   A    
C41   H77   S    
C53   C62   A    
C34   H62   S    
O11   Zn6   S    
C22   C43   A    
C7    H17   S    
C26   H40   S    
C10   C19   A    
C64   C73   A    
C135  H10   S    
C54   C115  S    
C31   H49   S    
O3    Zn11  S    
C35   C51   A    
C52   C93   S    
C60   O23   A    
C49   O12   A    
C102  C111  T    
C28   H44   S    
C51   C82   S    
C39   H72   S    
C5    C14   A    
C131  H6    S    
C115  O47   A    
C92   C101  S    
C21   C35   A    
C97   C106  S    
C9    C135  A    
C67   H30   S    
O36   Zn2   S    
C7    C16   A    
C128  C136  A    
C83   O37   A    
C45   C54   A    
C34   C121  S    
O1    Zn1   S    
C29   H42   S    
C84   O29   A    
C91   O10   A    
C84   O38   A    
C85   O30   A    
C38   H64   S    
C51   C59   A    
C118  C127  A    
C81   O36   A    
O35   Zn3   S    
C90   C99   S    
C98   C107  S    
O5    Zn5   S    
O33   Zn4   S    
C75   C87   S    
C68   C77   A    
C134  H9    S    
C107  C116  T    
C40   H69   S    
C133  H8    S    
O27   Zn12  S    
C89   O35   A    
C66   H29   S    
C31   H47   S    
C70   C79   A    
C3    C129  A    
O24   Zn1   S    
C128  H3    S    
C12   H22   S    
O48   Zn9   S    
C127  C135  A    
C80   C81   S    
O37   Zn12  S    
C5    H15   S    
C13   C48   A    
C9    C18   A    
O32   Zn4   S    
O39   Zn2   S    
C2    C47   A    
C4    H14   S    
C44   C123  A    
O47   Zn11  S    
C8    C17   A    
C55   H1    S    
C49   O2    A    
C52   C61   A    
O20   Zn11  S    
C61   C69   A    
C30   H51   S    
C14   C22   A    
O30   Zn12  S    
C42   H74   S    
C101  C110  T    
C36   H59   S    
O31   Zn3   S    
C72   C80   A    
C15   H25   S    
C28   C118  S    
C32   C33   S    
C29   H43   S    
C79   C83   S    
O13   Zn7   S    
C34   H61   S    
C81   O27   A    
C94   O13   A    
C98   O17   A    
O14   Zn8   S    
C26   H39   S    
C132  H7    S    
C41   H79   S    
C66   C75   A    
C83   O28   A    
C65   H28   S    
C19   C75   A    
C37   H68   S    
C108  C110  S    
C33   H52   S    
O28   Zn2   S    
C20   C76   A    
C63   H78   S    
C57   H23   S    
C1    C46   S    
C36   H58   S    
C62   H67   S    
C69   H32   S    
C136  H11   S    
C3    C11   A    
C71   O4    A    
C73   C89   S    
C37   C122  S    
C68   H31   S    
C78   C84   S    
C58   C67   A    
C5    C131  A    
C63   C72   A    
C9    H19   S    
C54   C63   A    
C76   C86   S    
C21   C77   A    
O4    Zn10  S    
C30   H50   S    
C38   H63   S    
C47   C56   A    
C1    O1    A    
C67   C76   A    
O8    Zn6   S    
C23   C79   A    
C103  C112  T    
C117  C125  A    
C27   H36   S    
C42   H75   S    
C94   C102  S    
C43   C122  A    
C23   C44   A    
