data_mof_unit_49547.cif
_audit_creation_date              2012-12-10T16:56:30-0500
_audit_creation_method            fapswitch 2.2
_symmetry_space_group_name_H-M    P1
_symmetry_Int_Tables_number       1
_space_group_crystal_system       triclinic
_cell_length_a                    7.88331
_cell_length_b                    8.427495
_cell_length_c                    15.67249
_cell_angle_alpha                 91.376986
_cell_angle_beta                  86.01193
_cell_angle_gamma                 93.489427
_cell_volume                      1036.57432224

loop_
_atom_site_label
_atom_site_type_symbol
_atom_type_description
_atom_site_fract_x
_atom_site_fract_y
_atom_site_fract_z
_atom_type_partial_charge
C1    C     C_R   0.545804 0.795071 0.508576 0.811244
C2    C     C_3   0.412382 0.368589 0.028487 -0.168148
C3    C     C_1   0.506586 0.500743 0.750505 -0.124618
C4    C     C_1   0.493668 0.500356 0.249380 -0.178773
C5    C     C_3   0.340127 0.497945 0.975333 -0.153033
C6    C     C_3   0.660344 0.503498 0.024418 -0.165751
C7    C     C_3   0.504340 0.500720 0.917024 0.196604
C8    C     C_3   0.496122 0.500726 0.082751 0.197743
C9    C     C_1   0.507191 0.500722 0.825937 -0.041081
C10   C     C_1   0.493185 0.500610 0.173899 -0.078121
C11   C     C_R   0.455204 0.205743 0.512086 0.814741
C12   C     C_R   0.502241 0.500781 0.661640 0.901667
C13   C     C_R   0.497875 0.499883 0.338341 0.882584
C14   C     C_2   0.570387 0.959176 0.536137 0.051195
C15   C     C_2   0.433673 0.045900 0.543488 0.081278
C16   C     C_3   0.423851 0.630082 0.031407 -0.162627
C17   C     C_3   0.576609 0.371365 0.968342 -0.152271
C18   C     C_3   0.588082 0.632856 0.971259 -0.153031
H1    H     H_    0.660040 0.740676 0.945560 0.150379
H2    H     H_    0.110386 0.338970 0.399885 0.228606
H3    H     H_    0.949848 0.458401 0.634095 0.237953
H4    H     H_    0.890533 0.643206 0.605952 0.273663
H5    H     H_    0.340388 0.260732 0.054107 0.139562
H6    H     H_    0.361229 0.735666 0.059405 0.138598
H7    H     H_    0.639197 0.265809 0.940275 0.154288
H8    H     H_    0.791136 0.505769 0.046709 0.138881
H9    H     H_    0.209374 0.495662 0.952988 0.145613
H10   H     H_    0.686264 0.868220 0.699317 0.352938
H11   H     H_    0.252127 0.217029 0.704011 0.344878
H12   H     H_    0.056345 0.521770 0.363272 0.197557
N1    N     N_2   0.950320 0.457950 0.477300 -0.005083
N2    N     N_2   0.049680 0.542050 0.522700 -0.003561
N3    N     N_3   0.014636 0.417852 0.395498 -0.337217
N4    N     N_3   0.989074 0.567668 0.606632 -0.260003
O1    O     O_R   0.389250 0.738570 0.505570 -0.573039
O2    O     O_2   0.728088 0.173097 0.641369 -0.281107
O3    O     O_3   0.792204 0.882117 0.661790 -0.513120
O4    O     O_2   0.142595 0.884471 0.594095 -0.165865
O5    O     O_2   0.351828 0.929695 0.700344 -0.345895
O6    O     O_3   0.177509 0.166695 0.661493 -0.463311
O7    O     O_R   0.610750 0.261430 0.494430 -0.565826
O8    O     O_R   0.678390 0.711630 0.491020 -0.592557
O9    O     O_R   0.321610 0.288370 0.508980 -0.580934
O10   O     O_R   0.355460 0.513480 0.630490 -0.576737
O11   O     O_R   0.644540 0.486520 0.369510 -0.597208
O12   O     O_R   0.644600 0.486540 0.615950 -0.631400
O13   O     O_R   0.355400 0.513460 0.384050 -0.659073
O14   O     O_2   0.901644 0.044379 0.527308 -0.210323
S1    S     S_3+6 0.752857 0.020490 0.591811 0.107023
S2    S     S_3+6 0.273901 0.002214 0.626707 0.101419
Zn1   Zn    Zn3+2 0.306940 0.517990 0.509710 1.050163
Zn2   Zn    Zn3+2 0.693060 0.482010 0.490290 1.041139

loop_
_geom_bond_atom_site_label_1
_geom_bond_atom_site_label_2
_ccdc_geom_bond_type
C6    C8    S    
N1    N3    S    
N2    Zn1   S    
C11   O9    A    
H3    N4    S    
O10   Zn1   S    
C1    C14   S    
O3    S1    S    
O7    Zn2   S    
N1    N2    D    
H12   N3    S    
N1    Zn2   S    
C7    C18   S    
C17   H7    S    
C7    C9    S    
C16   H6    S    
C2    C17   S    
C13   O11   A    
O9    Zn1   S    
C6    H8    S    
H10   O3    S    
C3    C9    T    
H2    N3    S    
H11   O6    S    
C16   C18   S    
O14   S1    D    
C11   O7    A    
C5    C7    S    
O1    Zn1   S    
H4    N4    S    
C6    C18   S    
O6    S2    S    
C14   S1    S    
O4    S2    D    
C4    C10   T    
C2    C5    S    
O12   Zn2   S    
C1    O8    A    
C2    H5    S    
O5    S2    D    
C1    O1    A    
C12   O12   A    
C18   H1    S    
C8    C16   S    
C15   S2    S    
C4    C13   S    
C13   O13   A    
C6    C17   S    
C14   C15   D    
C12   O10   A    
C5    C16   S    
O13   Zn1   S    
C3    C12   S    
O11   Zn2   S    
C5    H9    S    
C11   C15   S    
C8    C10   S    
C2    C8    S    
O2    S1    D    
O8    Zn2   S    
C7    C17   S    
N2    N4    S    
