data_mof_unit_57127.cif
_audit_creation_date              2012-12-10T20:00:28-0500
_audit_creation_method            fapswitch 2.2
_symmetry_space_group_name_H-M    P1
_symmetry_Int_Tables_number       1
_space_group_crystal_system       triclinic
_cell_length_a                    14.991547
_cell_length_b                    14.262423
_cell_length_c                    15.805311
_cell_angle_alpha                 89.593174
_cell_angle_beta                  90.58012
_cell_angle_gamma                 89.881199
_cell_volume                      3379.15879175

loop_
_atom_site_label
_atom_site_type_symbol
_atom_type_description
_atom_site_fract_x
_atom_site_fract_y
_atom_site_fract_z
_atom_type_partial_charge
C1    C     C_R   0.328214 0.500082 0.499481 0.846884
C2    C     C_R   0.671741 0.499896 0.499886 0.842910
C3    C     C_R   0.048193 0.485672 0.497536 0.072431
C4    C     C_R   0.951557 0.484311 0.496018 0.071536
C5    C     C_R   0.457155 0.105460 0.435861 -0.391004
C6    C     C_R   0.563472 0.893461 0.546891 -0.388874
C7    C     C_R   0.543550 0.104280 0.563623 -0.390037
C8    C     C_R   0.436976 0.894545 0.452788 -0.387791
C9    C     C_R   0.460411 0.204722 0.434605 0.533703
C10   C     C_R   0.559599 0.794376 0.549919 0.553947
C11   C     C_R   0.539781 0.203520 0.565159 0.531427
C12   C     C_R   0.440667 0.795496 0.449874 0.552729
C13   C     C_R   0.500365 0.052863 0.499743 0.094056
C14   C     C_R   0.500268 0.946062 0.499815 0.073716
C15   C     C_R   0.500491 0.500391 0.339428 0.890618
C16   C     C_R   0.500588 0.499788 0.660688 0.891223
C17   C     C_R   0.457171 0.570589 0.955308 -0.191691
C18   C     C_R   0.559734 0.438607 0.045525 -0.192610
C19   C     C_R   0.456973 0.570970 0.043008 -0.192504
C20   C     C_R   0.560211 0.438482 0.957878 -0.200178
C21   C     C_R   0.508200 0.503802 0.913311 0.185434
C22   C     C_R   0.507821 0.504569 0.087393 0.185121
C23   C     C_1   0.505796 0.501343 0.824317 -0.106995
C24   C     C_1   0.505642 0.503131 0.176199 -0.109383
C25   C     C_1   0.503304 0.501686 0.251087 -0.203377
C26   C     C_1   0.503263 0.499840 0.749289 -0.194492
C27   C     C_R   0.092651 0.520676 0.568537 -0.202619
C28   C     C_R   0.905766 0.454014 0.567397 -0.204793
C29   C     C_R   0.905735 0.521100 0.426020 -0.203692
C30   C     C_R   0.095281 0.458390 0.426251 -0.205873
C31   C     C_R   0.184950 0.527368 0.569951 0.067337
C32   C     C_R   0.813764 0.463056 0.571060 0.078275
C33   C     C_R   0.813328 0.527958 0.426193 0.067596
C34   C     C_R   0.187487 0.466730 0.424567 0.077792
C35   C     C_R   0.232455 0.499499 0.497628 -0.051759
C36   C     C_R   0.767398 0.498793 0.499466 -0.053260
H1    H     H_    0.416989 0.622122 0.076082 0.133956
H2    H     H_    0.600446 0.387489 0.925198 0.137242
H3    H     H_    0.417385 0.621569 0.920457 0.133603
H4    H     H_    0.599075 0.387316 0.080525 0.134515
H5    H     H_    0.055156 0.543828 0.622878 0.137656
H6    H     H_    0.942418 0.426931 0.621815 0.135143
H7    H     H_    0.942198 0.546782 0.371699 0.139534
H8    H     H_    0.059694 0.433269 0.370845 0.134487
H9    H     H_    0.421626 0.070638 0.385468 0.157199
H10   H     H_    0.616466 0.927673 0.581345 0.170093
H11   H     H_    0.579227 0.068570 0.613979 0.158186
H12   H     H_    0.384141 0.929562 0.418143 0.170326
N1    N     N_R   0.500000 0.252470 0.500000 -0.166284
N2    N     N_R   0.500000 0.747530 0.500000 -0.173760
O1    O     O_R   0.369060 0.579480 0.500010 -0.586448
O2    O     O_R   0.630940 0.420520 0.499990 -0.604344
O3    O     O_R   0.630940 0.579480 0.499990 -0.587347
O4    O     O_R   0.369060 0.420520 0.500010 -0.606724
O5    O     O_R   0.499980 0.579460 0.378020 -0.616628
O6    O     O_R   0.500020 0.420540 0.621980 -0.591797
O7    O     O_R   0.500020 0.579460 0.621980 -0.614756
O8    O     O_R   0.499980 0.420540 0.378020 -0.588336
Zn1   Zn    Zn3+2 0.500000 0.606140 0.500000 0.992742
Zn2   Zn    Zn3+2 0.500000 0.393860 0.500000 0.997355
C37   C     C_3   0.229428 0.562315 0.650205 -0.436432
C38   C     C_3   0.250850 0.480540 0.710519 -0.346989
C39   C     C_3   0.275563 0.516066 0.798473 -0.881969
H13   H     H_    0.328738 0.569818 0.794172 0.263194
H14   H     H_    0.216319 0.547767 0.828843 0.256006
H15   H     H_    0.299780 0.456829 0.838537 0.258139
H16   H     H_    0.192069 0.433547 0.716215 0.226866
H17   H     H_    0.307269 0.439086 0.685044 0.220231
H18   H     H_    0.291055 0.602252 0.636441 0.215323
H19   H     H_    0.184146 0.612650 0.682007 0.206301
C40   C     C_3   0.769438 0.445221 0.655440 -0.431229
C41   C     C_3   0.756488 0.538424 0.701868 -0.346531
C42   C     C_3   0.745037 0.524240 0.796850 -0.895915
H20   H     H_    0.689501 0.475535 0.809658 0.265319
H21   H     H_    0.807251 0.495233 0.825519 0.260046
H22   H     H_    0.730141 0.592578 0.826898 0.256752
H23   H     H_    0.815348 0.584551 0.692359 0.230823
H24   H     H_    0.696856 0.574761 0.675340 0.249596
H25   H     H_    0.704494 0.409123 0.647171 0.241492
H26   H     H_    0.811709 0.397369 0.694791 0.209700
C43   C     C_3   0.767804 0.567923 0.347630 -0.427663
C44   C     C_3   0.765919 0.495942 0.275983 -0.358806
C45   C     C_3   0.740518 0.542164 0.191729 -0.870351
H27   H     H_    0.676753 0.581156 0.197247 0.271066
H28   H     H_    0.793492 0.591783 0.171920 0.256396
H29   H     H_    0.732967 0.487708 0.142359 0.250003
H30   H     H_    0.832462 0.462432 0.269150 0.225335
H31   H     H_    0.716623 0.440302 0.291152 0.220660
H32   H     H_    0.698634 0.591317 0.359656 0.213067
H33   H     H_    0.804745 0.631630 0.327191 0.208824
C46   C     C_3   0.233635 0.451011 0.340976 -0.427809
C47   C     C_3   0.244320 0.545056 0.294358 -0.350197
C48   C     C_3   0.260117 0.532470 0.199947 -0.903340
H34   H     H_    0.320091 0.489154 0.189190 0.269883
H35   H     H_    0.201543 0.498332 0.169684 0.263891
H36   H     H_    0.270134 0.602115 0.169708 0.249145
H37   H     H_    0.183135 0.588447 0.301504 0.231122
H38   H     H_    0.301233 0.583619 0.322807 0.252253
H39   H     H_    0.299591 0.416973 0.350389 0.238367
H40   H     H_    0.193458 0.402245 0.301393 0.210439
O9    O     O_3   0.416228 0.254006 0.371128 -0.585973
C49   C     C_3   0.456746 0.236432 0.292119 0.108615
H41   H     H_    0.466179 0.160596 0.279075 0.113578
H42   H     H_    0.523016 0.271214 0.289295 0.154936
C50   C     C_3   0.397606 0.275465 0.221583 -0.835491
H43   H     H_    0.384935 0.350780 0.232165 0.262140
H44   H     H_    0.430850 0.266897 0.159630 0.209103
H45   H     H_    0.332838 0.237823 0.220328 0.248555
O10   O     O_3   0.620281 0.743272 0.598207 -0.583581
C51   C     C_3   0.613677 0.765868 0.685203 0.096667
H46   H     H_    0.597353 0.700845 0.720777 0.173648
H47   H     H_    0.560437 0.817697 0.700694 0.111412
C52   C     C_3   0.703063 0.801945 0.717798 -0.881488
H48   H     H_    0.720184 0.868988 0.685910 0.249298
H49   H     H_    0.699494 0.813945 0.787020 0.215300
H50   H     H_    0.756400 0.749901 0.705448 0.263411
O11   O     O_3   0.583514 0.251715 0.628740 -0.587274
C53   C     C_3   0.543245 0.232378 0.707698 0.119089
H51   H     H_    0.528609 0.156864 0.718525 0.111989
H52   H     H_    0.479600 0.271997 0.712885 0.159421
C54   C     C_3   0.606047 0.262481 0.778245 -0.861862
H53   H     H_    0.620301 0.338243 0.772042 0.258212
H54   H     H_    0.574852 0.248540 0.840468 0.204990
H55   H     H_    0.669663 0.222730 0.774715 0.253857
O12   O     O_3   0.380423 0.745555 0.400999 -0.584472
C55   C     C_3   0.388518 0.769157 0.314040 0.095702
H56   H     H_    0.405125 0.704434 0.278855 0.171954
H57   H     H_    0.442262 0.820648 0.299158 0.112680
C56   C     C_3   0.299850 0.806594 0.280066 -0.886454
H58   H     H_    0.282809 0.873649 0.311242 0.250299
H59   H     H_    0.304484 0.819006 0.210815 0.213092
H60   H     H_    0.245910 0.755190 0.292112 0.264229

loop_
_geom_bond_atom_site_label_1
_geom_bond_atom_site_label_2
_ccdc_geom_bond_type
C37   H19   S    
C39   H14   S    
C55   H56   S    
O5    Zn1   S    
C42   H20   S    
C31   C37   S    
C40   H25   S    
C43   C44   S    
O3    Zn1   S    
C47   H38   S    
O4    Zn2   S    
C7    C11   A    
C50   H44   S    
O9    C49   S    
N1    Zn2   S    
C38   H16   S    
C49   C50   S    
N2    Zn1   S    
C32   C36   A    
C52   H48   S    
O7    Zn1   S    
O8    Zn2   S    
C44   H30   S    
C29   C33   A    
C33   C36   A    
C10   O10   S    
C34   C35   A    
C17   H3    S    
C23   C26   T    
C18   H4    S    
C34   C46   S    
C54   H55   S    
C41   H24   S    
C19   H1    S    
C17   C19   A    
C51   H46   S    
C55   H57   S    
C46   H40   S    
O2    Zn2   S    
C5    C13   A    
C4    C29   A    
C52   H50   S    
C43   H32   S    
C39   H15   S    
C48   H35   S    
C13   C14   S    
C29   H7    S    
C42   H21   S    
C30   H8    S    
C49   H41   S    
C40   H26   S    
C4    C28   A    
C47   H37   S    
C32   C40   S    
C53   H52   S    
C16   C26   S    
C50   H45   S    
C30   C34   A    
C27   C31   A    
C28   C32   A    
C19   C22   A    
C9    N1    A    
C24   C25   T    
C46   C47   S    
C12   O12   S    
C55   C56   S    
C5    H9    S    
C17   C21   A    
O6    Zn2   S    
C52   H49   S    
C53   C54   S    
C15   O5    A    
C3    C30   A    
C1    O4    A    
C16   O6    A    
C5    C9    A    
C41   H23   S    
C11   N1    A    
C6    C14   A    
C20   H2    S    
C27   H5    S    
C45   H27   S    
C8    C12   A    
C38   C39   S    
C53   H51   S    
C48   H34   S    
C49   H42   S    
C1    O1    A    
C51   C52   S    
C54   H53   S    
C2    O2    A    
C43   H33   S    
C45   H28   S    
C48   H36   S    
C21   C23   S    
O12   C55   S    
C42   H22   S    
C22   C24   S    
O1    Zn1   S    
C3    C4    S    
C11   O11   S    
C1    C35   S    
C56   H58   S    
C2    C36   S    
C8    C14   A    
C6    H10   S    
C18   C22   A    
C41   C42   S    
C2    O3    A    
C6    C10   A    
C18   C20   A    
C12   N2    A    
C50   H43   S    
C38   H17   S    
C37   H18   S    
C56   H60   S    
C3    C27   A    
C40   C41   S    
C8    H12   S    
C44   H31   S    
C28   H6    S    
C47   C48   S    
C15   O8    A    
C31   C35   A    
C16   O7    A    
C37   C38   S    
C51   H47   S    
C54   H54   S    
C15   C25   S    
C39   H13   S    
C7    C13   A    
C45   H29   S    
C20   C21   A    
C9    O9    S    
C44   C45   S    
O10   C51   S    
C46   H39   S    
O11   C53   S    
C33   C43   S    
C7    H11   S    
C56   H59   S    
C10   N2    A    
