data_mof_unit_42367.cif
_audit_creation_date              2012-12-11T16:34:24-0500
_audit_creation_method            fapswitch 2.2
_symmetry_space_group_name_H-M    P1
_symmetry_Int_Tables_number       1
_space_group_crystal_system       triclinic
_cell_length_a                    25.792139
_cell_length_b                    7.278478
_cell_length_c                    23.158522
_cell_angle_alpha                 89.999659
_cell_angle_beta                  104.058691
_cell_angle_gamma                 89.999836
_cell_volume                      4217.27315098

loop_
_atom_site_label
_atom_site_type_symbol
_atom_type_description
_atom_site_fract_x
_atom_site_fract_y
_atom_site_fract_z
_atom_type_partial_charge
O1    O     O_R   0.438720 0.630760 0.439780 -0.537648
O2    O     O_R   0.061280 0.869240 0.060220 -0.539778
O3    O     O_R   0.561280 0.130760 0.560220 -0.537648
O4    O     O_R   0.938720 0.369240 0.939780 -0.539783
O5    O     O_R   0.546410 0.956760 0.446260 -0.542132
O6    O     O_R   0.953590 0.543240 0.053740 -0.541250
O7    O     O_R   0.453590 0.456760 0.553740 -0.542132
O8    O     O_R   0.046410 0.043240 0.946260 -0.541247
C1    C     C_R   0.562874 0.791961 0.434545 0.668097
C2    C     C_R   0.937429 0.708090 0.065818 0.674152
C3    C     C_R   0.437126 0.291960 0.565455 0.668103
C4    C     C_R   0.062571 0.208090 0.934182 0.674168
O9    O     O_R   0.438220 0.960230 0.432810 -0.519613
O10   O     O_R   0.061780 0.539770 0.067190 -0.519529
O11   O     O_R   0.561780 0.460230 0.567190 -0.519618
O12   O     O_R   0.938220 0.039770 0.932810 -0.519528
O13   O     O_R   0.452310 0.134250 0.546660 -0.541943
O14   O     O_R   0.047690 0.365750 0.953340 -0.542051
O15   O     O_R   0.547690 0.634250 0.453340 -0.541945
O16   O     O_R   0.952310 0.865750 0.046660 -0.542049
C5    C     C_R   0.418007 0.792557 0.417518 0.716793
C6    C     C_R   0.080727 0.708272 0.083220 0.723582
C7    C     C_R   0.581994 0.292556 0.582481 0.716792
C8    C     C_R   0.919273 0.208273 0.916780 0.723604
O17   O     O_3   0.504750 0.798450 0.537370 -0.374692
O18   O     O_3   0.995250 0.701550 0.962630 -0.375906
O19   O     O_3   0.495250 0.298450 0.462630 -0.374691
O20   O     O_3   0.004750 0.201550 0.037370 -0.375905
V1    V     V_3+5 0.499120 0.071860 0.493070 1.402063
V2    V     V_3+5 0.000880 0.428140 0.006930 1.428176
V3    V     V_3+5 0.500880 0.571860 0.506930 1.402059
V4    V     V_3+5 0.999120 0.928140 0.993070 1.428180
C9    C     C_R   0.701331 0.107332 0.699056 -0.184445
C10   C     C_R   0.777436 0.315020 0.835277 -0.154213
C11   C     C_R   0.298672 0.607339 0.300939 -0.184414
C12   C     C_R   0.222561 0.815057 0.164723 -0.154189
H1    H     H_    0.719210 0.974718 0.712538 0.203785
H2    H     H_    0.742941 0.369099 0.847709 0.130020
H3    H     H_    0.280795 0.474726 0.287455 0.203770
H4    H     H_    0.257053 0.869161 0.152291 0.130028
C13   C     C_R   0.655329 0.116310 0.652290 -0.277256
C14   C     C_R   0.824844 0.302482 0.879575 -0.240138
C15   C     C_R   0.344674 0.616313 0.347706 -0.277207
C16   C     C_R   0.175152 0.802515 0.120427 -0.240133
H5    H     H_    0.637936 0.989488 0.632335 0.197992
H6    H     H_    0.825656 0.353225 0.923782 0.139501
H7    H     H_    0.362066 0.489491 0.367662 0.197976
H8    H     H_    0.174337 0.853281 0.076220 0.139506
C17   C     C_R   0.632606 0.286081 0.630944 -0.209961
C18   C     C_R   0.870268 0.220041 0.868031 -0.176615
C19   C     C_R   0.367395 0.786084 0.369054 -0.209946
C20   C     C_R   0.129732 0.720040 0.131968 -0.176633
C21   C     C_R   0.658822 0.448175 0.657285 0.342682
C22   C     C_R   0.868133 0.152787 0.810276 0.344347
C23   C     C_R   0.341180 0.948179 0.342712 0.342682
C24   C     C_R   0.131872 0.652760 0.189721 0.344369
C25   C     C_R   0.698261 0.436628 0.711363 0.370175
C26   C     C_R   0.820367 0.168795 0.764998 0.361776
C27   C     C_R   0.301743 0.936635 0.288633 0.370161
C28   C     C_R   0.179637 0.668782 0.235000 0.361755
C29   C     C_R   0.723270 0.265984 0.729812 -0.034897
C30   C     C_R   0.774348 0.251506 0.777278 -0.008358
C31   C     C_R   0.276733 0.765993 0.270184 -0.034939
C32   C     C_R   0.225654 0.751518 0.222721 -0.008384
C33   C     C_R   0.122344 0.385864 0.882813 -0.176944
C34   C     C_R   0.375888 0.114198 0.614917 -0.166636
C35   C     C_R   0.877665 0.885865 0.117198 -0.176947
C36   C     C_R   0.624110 0.614197 0.385081 -0.166641
H9    H     H_    0.112123 0.512271 0.902095 0.126146
H10   H     H_    0.387827 0.987092 0.597546 0.120536
H11   H     H_    0.887892 0.012274 0.097922 0.126153
H12   H     H_    0.612169 0.487090 0.402450 0.120535
C37   C     C_R   0.157855 0.394305 0.845730 -0.145468
C38   C     C_R   0.338291 0.106354 0.649503 -0.140016
C39   C     C_R   0.842156 0.894306 0.154282 -0.145475
C40   C     C_R   0.661709 0.606354 0.350497 -0.140017
H13   H     H_    0.173847 0.526826 0.837690 0.138070
H14   H     H_    0.322694 0.973502 0.657891 0.134438
H15   H     H_    0.826170 0.026829 0.162330 0.138072
H16   H     H_    0.677304 0.473500 0.342107 0.134436
C41   C     C_R   0.172543 0.234166 0.819573 0.021773
C42   C     C_R   0.321252 0.267432 0.673017 0.023394
C43   C     C_R   0.827461 0.734166 0.180433 0.021766
C44   C     C_R   0.678751 0.767433 0.326987 0.023400
C45   C     C_R   0.150594 0.065373 0.831418 -0.136972
C46   C     C_R   0.342609 0.436701 0.660622 -0.137242
C47   C     C_R   0.849403 0.565372 0.168579 -0.136972
C48   C     C_R   0.657396 0.936702 0.339384 -0.137246
H17   H     H_    0.160847 0.939132 0.812075 0.138293
H18   H     H_    0.330397 0.563774 0.677743 0.138603
H19   H     H_    0.839145 0.439130 0.187916 0.138295
H20   H     H_    0.669611 0.063777 0.322267 0.138603
C49   C     C_R   0.115090 0.056853 0.868510 -0.162423
C50   C     C_R   0.380179 0.444617 0.626011 -0.165089
C51   C     C_R   0.884906 0.556852 0.131487 -0.162412
C52   C     C_R   0.619826 0.944619 0.373993 -0.165098
H21   H     H_    0.099029 0.924292 0.876394 0.121478
H22   H     H_    0.395583 0.577670 0.617494 0.123247
H23   H     H_    0.900962 0.424290 0.123596 0.121485
H24   H     H_    0.604423 0.077673 0.382513 0.123246
C53   C     C_R   0.100408 0.216993 0.894735 -0.046135
C54   C     C_R   0.397562 0.283403 0.602856 -0.043705
C55   C     C_R   0.899594 0.716993 0.105267 -0.046158
C56   C     C_R   0.602439 0.783404 0.397145 -0.043702
N1    N     N_R   0.226256 0.087934 0.756687 -0.283290
N2    N     N_R   0.266292 0.414032 0.734426 -0.282461
N3    N     N_R   0.773745 0.587932 0.243314 -0.283289
N4    N     N_R   0.733716 0.914034 0.265583 -0.282460
N5    N     N_R   0.260992 0.095696 0.722463 -0.285228
N6    N     N_R   0.231577 0.406261 0.768665 -0.284654
N7    N     N_R   0.739008 0.595695 0.277538 -0.285228
N8    N     N_R   0.768431 0.906263 0.231345 -0.284654
C57   C     C_R   0.281867 0.258915 0.710596 0.513064
C58   C     C_R   0.210803 0.243016 0.780656 0.512582
C59   C     C_R   0.718137 0.758915 0.289408 0.513065
C60   C     C_R   0.789201 0.743017 0.219350 0.512589
O21   O     O_3   0.645013 0.621000 0.633273 -0.571759
C61   C     C_3   0.662202 0.642813 0.579882 0.125466
H25   H     H_    0.637193 0.752123 0.553383 0.134638
H26   H     H_    0.656189 0.517550 0.551349 0.091272
C62   C     C_3   0.720785 0.702231 0.592289 -0.342122
H27   H     H_    0.727186 0.827097 0.620525 0.224059
H28   H     H_    0.746660 0.591186 0.616462 0.192186
C63   C     C_3   0.736617 0.742748 0.534145 -0.849139
H29   H     H_    0.728380 0.621937 0.503970 0.240139
H30   H     H_    0.779959 0.773767 0.543556 0.235813
H31   H     H_    0.713935 0.862941 0.511435 0.236551
O22   O     O_3   0.911747 0.065611 0.797573 -0.555157
C64   C     C_3   0.949128 0.198700 0.788841 0.087817
H32   H     H_    0.975568 0.238531 0.832372 0.102421
H33   H     H_    0.929677 0.325894 0.766725 0.091856
C65   C     C_3   0.983528 0.115186 0.750335 -0.281377
H34   H     H_    0.008438 0.003033 0.775445 0.196070
H35   H     H_    0.957287 0.055440 0.709349 0.205848
C66   C     C_3   0.019766 0.258941 0.732422 -0.824011
H36   H     H_    0.995388 0.364000 0.703089 0.227087
H37   H     H_    0.046596 0.191679 0.707876 0.240274
H38   H     H_    0.044588 0.327752 0.772372 0.246057
O23   O     O_3   0.354991 0.121001 0.366724 -0.571761
C67   C     C_3   0.337795 0.142820 0.420110 0.125448
H39   H     H_    0.362802 0.252129 0.446610 0.134645
H40   H     H_    0.343803 0.017558 0.448645 0.091266
C68   C     C_3   0.279211 0.202244 0.407692 -0.342083
H41   H     H_    0.272812 0.327082 0.379443 0.224078
H42   H     H_    0.253337 0.091183 0.383529 0.192146
C69   C     C_3   0.263373 0.242822 0.465828 -0.849201
H43   H     H_    0.271599 0.122028 0.496012 0.240125
H44   H     H_    0.220033 0.273880 0.456406 0.235849
H45   H     H_    0.286060 0.363010 0.488534 0.236538
O24   O     O_3   0.088263 0.565546 0.202424 -0.555149
C70   C     C_3   0.050868 0.698597 0.211146 0.087873
H46   H     H_    0.024411 0.738323 0.167614 0.102416
H47   H     H_    0.070303 0.825856 0.233230 0.091830
C71   C     C_3   0.016496 0.615096 0.249685 -0.281390
H48   H     H_    0.991592 0.502885 0.224603 0.196068
H49   H     H_    0.042756 0.555435 0.290674 0.205867
C72   C     C_3   0.980250 0.758833 0.267592 -0.824036
H50   H     H_    0.004627 0.863950 0.296901 0.227091
H51   H     H_    0.953438 0.691575 0.292161 0.240278
H52   H     H_    0.955410 0.827575 0.227637 0.246068
O25   O     O_3   0.713572 0.595248 0.743950 -0.563981
C73   C     C_3   0.680029 0.621487 0.783854 0.070284
H53   H     H_    0.703682 0.698337 0.822901 0.150098
H54   H     H_    0.667301 0.490256 0.801157 0.086558
C74   C     C_3   0.629449 0.731782 0.755953 -0.286500
H55   H     H_    0.639846 0.854910 0.733427 0.223507
H56   H     H_    0.601513 0.646065 0.722692 0.207148
C75   C     C_3   0.600607 0.792703 0.802960 -0.845388
H57   H     H_    0.589167 0.671335 0.826194 0.235722
H58   H     H_    0.563804 0.869371 0.781255 0.239151
H59   H     H_    0.626699 0.884379 0.836028 0.234165
O26   O     O_3   0.817804 0.090244 0.709974 -0.559027
C76   C     C_3   0.827002 0.226334 0.670111 0.089904
H60   H     H_    0.870398 0.256234 0.679127 0.131118
H61   H     H_    0.805118 0.356498 0.673402 0.102296
C77   C     C_3   0.808336 0.153329 0.606662 -0.293750
H62   H     H_    0.827318 0.017797 0.603701 0.211176
H63   H     H_    0.764228 0.135151 0.595517 0.201826
C78   C     C_3   0.823253 0.283512 0.561675 -0.844534
H64   H     H_    0.805853 0.421448 0.564539 0.241051
H65   H     H_    0.807513 0.229023 0.515988 0.240746
H66   H     H_    0.867390 0.295966 0.570233 0.236347
O27   O     O_3   0.286431 0.095259 0.256047 -0.563982
C79   C     C_3   0.319976 0.121505 0.216144 0.070275
H67   H     H_    0.296324 0.198374 0.177099 0.150100
H68   H     H_    0.332700 0.990278 0.198837 0.086560
C80   C     C_3   0.370558 0.231781 0.244049 -0.286496
H69   H     H_    0.360164 0.354893 0.266584 0.223513
H70   H     H_    0.398494 0.146040 0.277303 0.207137
C81   C     C_3   0.399398 0.292730 0.197044 -0.845388
H71   H     H_    0.410834 0.171377 0.173800 0.235723
H72   H     H_    0.436203 0.369379 0.218751 0.239151
H73   H     H_    0.373307 0.384431 0.163984 0.234165
O28   O     O_3   0.182200 0.590224 0.290024 -0.559026
C82   C     C_3   0.173009 0.726322 0.329887 0.089996
H74   H     H_    0.129623 0.756473 0.320813 0.130994
H75   H     H_    0.194969 0.856367 0.326655 0.102330
C83   C     C_3   0.191566 0.653153 0.393329 -0.293663
H76   H     H_    0.172484 0.517761 0.396240 0.211084
H77   H     H_    0.235665 0.634627 0.404525 0.201868
C84   C     C_3   0.176687 0.783454 0.438309 -0.844498
H78   H     H_    0.194217 0.921224 0.435517 0.241034
H79   H     H_    0.192324 0.728775 0.483990 0.240746
H80   H     H_    0.132554 0.796349 0.429681 0.236327

loop_
_geom_bond_atom_site_label_1
_geom_bond_atom_site_label_2
_ccdc_geom_bond_type
O17   V3    S    
C66   H38   S    
C43   C47   A    
C48   C52   A    
C26   C30   A    
C81   H71   S    
C47   H19   S    
O12   V4    S    
O19   V1    S    
C77   H63   S    
O13   V1    S    
C84   H78   S    
C34   C54   A    
O3    C7    A    
C10   C14   A    
C67   C68   S    
C33   C53   A    
O4    V2    S    
O15   V3    S    
O22   C64   S    
C40   C44   A    
C61   H26   S    
O25   C73   S    
C33   C37   A    
C66   H36   S    
C76   H60   S    
C33   H9    S    
O1    C5    A    
C74   H55   S    
N4    C59   A    
C6    C20   S    
C2    C55   S    
C24   C28   A    
C67   H40   S    
C73   H53   S    
C23   C27   A    
C65   C66   S    
N2    N6    A    
C11   H3    S    
O4    C8    A    
C21   O21   S    
C7    C17   S    
N8    C60   A    
C50   H22   S    
C51   H23   S    
C68   H41   S    
C73   C74   S    
O1    V3    S    
C23   O23   S    
C79   H67   S    
C62   H28   S    
O2    V4    S    
C14   H6    S    
C70   C71   S    
C37   C41   A    
O3    V1    S    
C61   H25   S    
C62   C63   S    
C46   C50   A    
C81   H73   S    
C20   C24   A    
C45   C49   A    
C9    C29   A    
C1    O15   A    
C77   C78   S    
C48   H20   S    
C2    O16   A    
C65   H34   S    
C80   C81   S    
C47   C51   A    
C41   C58   S    
O2    C6    A    
C81   H72   S    
C70   H46   S    
C77   H62   S    
C83   H76   S    
O14   V2    S    
C11   C15   A    
N6    C58   A    
C71   H49   S    
N5    C57   A    
C78   H66   S    
C16   C20   A    
O11   C7    A    
O28   C82   S    
C74   H56   S    
C66   H37   S    
C72   H50   S    
C84   H79   S    
O10   V2    S    
C64   C65   S    
C13   C17   A    
C51   C55   A    
C69   H44   S    
C76   H61   S    
C8    C18   S    
O7    V3    S    
N2    C57   A    
C35   C55   A    
O8    V4    S    
C36   C56   A    
N1    C58   A    
C12   H4    S    
C67   H39   S    
C71   C72   S    
C46   H18   S    
C68   C69   S    
C49   C53   A    
C21   C25   A    
O18   V4    S    
C19   C23   A    
C42   C46   A    
C22   O22   S    
O11   V3    S    
C9    H1    S    
C31   C32   S    
C36   H12   S    
C61   C62   S    
C44   C48   A    
O7    C3    A    
O27   C79   S    
O5    C1    A    
C69   H45   S    
C28   O28   S    
O8    C4    A    
C83   C84   S    
C22   C26   A    
C71   H48   S    
O9    C5    A    
C18   C22   A    
C64   H33   S    
C27   O27   S    
C62   H27   S    
C78   H64   S    
C14   C18   A    
C63   H31   S    
C65   H35   S    
C75   H57   S    
O6    V2    S    
C44   C59   S    
C74   C75   S    
C52   C56   A    
C84   H80   S    
C12   C16   A    
C35   C39   A    
C24   O24   S    
O5    V1    S    
C49   H21   S    
C5    C19   S    
C38   C42   A    
O26   C76   S    
C63   H30   S    
C69   H43   S    
O16   V4    S    
C76   C77   S    
O9    V1    S    
C68   H42   S    
N1    N5    A    
C3    O13   A    
C45   H17   S    
C10   H2    S    
N3    N7    A    
C43   C60   S    
C10   C30   A    
C40   H16   S    
C42   C57   S    
C83   H77   S    
O6    C2    A    
C11   C31   A    
O23   C67   S    
C25   C29   A    
C26   O26   S    
C72   H52   S    
C36   C40   A    
C27   C31   A    
C79   C80   S    
C28   C32   A    
C9    C13   A    
O10   C6    A    
O20   V2    S    
C64   H32   S    
C4    C53   S    
C73   H54   S    
C13   H5    S    
O21   C61   S    
C39   C43   A    
C34   H10   S    
C15   H7    S    
C15   C19   A    
C1    C56   S    
C17   C21   A    
C52   H24   S    
C75   H58   S    
C79   H68   S    
C3    C54   S    
C35   H11   S    
C70   H47   S    
C29   C30   S    
O12   C8    A    
N3    C60   A    
C80   H70   S    
C82   H74   S    
C82   C83   S    
N4    N8    A    
C80   H69   S    
C25   O25   S    
C50   C54   A    
C72   H51   S    
C38   H14   S    
C4    O14   A    
C37   H13   S    
O24   C70   S    
N7    C59   A    
C75   H59   S    
C82   H75   S    
C12   C32   A    
C39   H15   S    
C41   C45   A    
C16   H8    S    
C63   H29   S    
C78   H65   S    
C34   C38   A    
