data_mof_unit_13954.cif
_audit_creation_date              2012-12-10T17:26:24-0500
_audit_creation_method            fapswitch 2.2
_symmetry_space_group_name_H-M    P1
_symmetry_Int_Tables_number       1
_space_group_crystal_system       triclinic
_cell_length_a                    10.136031
_cell_length_b                    10.868415
_cell_length_c                    27.649067
_cell_angle_alpha                 90.462652
_cell_angle_beta                  81.143898
_cell_angle_gamma                 95.424175
_cell_volume                      2996.03869819

loop_
_atom_site_label
_atom_site_type_symbol
_atom_type_description
_atom_site_fract_x
_atom_site_fract_y
_atom_site_fract_z
_atom_type_partial_charge
C1    C     C_R   0.556174 0.732230 0.496025 0.925814
C2    C     C_R   0.497127 0.602315 0.126245 -0.071371
C3    C     C_R   0.501073 0.500222 0.646050 -0.160445
C4    C     C_R   0.499312 0.498097 0.353526 -0.131673
C5    C     C_R   0.466847 0.591287 0.026857 0.010349
C6    C     C_R   0.551770 0.390632 0.971189 0.017782
C7    C     C_R   0.529474 0.378923 0.022719 0.043052
C8    C     C_R   0.438603 0.580616 0.978469 0.042281
C9    C     C_R   0.502358 0.486780 0.049924 0.037443
C10   C     C_R   0.497004 0.486387 0.949214 0.038774
C11   C     C_R   0.475880 0.705336 0.050719 -0.212235
C12   C     C_R   0.443805 0.267888 0.504552 0.915472
C13   C     C_R   0.635612 0.316240 0.941550 -0.233240
C14   C     C_R   0.497554 0.713688 0.099535 0.205578
C15   C     C_R   0.648847 0.320260 0.890456 0.178031
C16   C     C_R   0.500590 0.501171 0.593609 0.866385
C17   C     C_R   0.499621 0.499407 0.406217 0.887821
C18   C     C_R   0.354915 0.657780 0.958059 0.139480
C19   C     C_R   0.531824 0.265939 0.048364 0.147693
C20   C     C_2   0.588035 0.863617 0.497040 -0.456634
C21   C     C_2   0.411534 0.136567 0.504616 -0.450421
C22   C     C_2   0.490763 0.936511 0.494196 0.521592
C23   C     C_R   0.501606 0.488383 0.898093 -0.095545
C24   C     C_2   0.508349 0.063721 0.508143 0.528052
C25   C     C_2   0.927268 0.509769 0.503824 0.092207
C26   C     C_2   0.072570 0.489866 0.496352 0.091083
C27   C     C_R   0.433118 0.575625 0.826866 0.606425
C28   C     C_R   0.537145 0.386673 0.174380 0.621277
C29   C     C_R   0.575410 0.410970 0.816934 0.531319
C30   C     C_R   0.482818 0.595941 0.177619 0.518478
C31   C     C_R   0.439755 0.397371 0.724524 -0.183696
C32   C     C_R   0.589961 0.579586 0.272792 -0.224443
C33   C     C_R   0.438669 0.396072 0.673954 0.099571
C34   C     C_R   0.510152 0.490463 0.100201 -0.089211
C35   C     C_R   0.585642 0.586191 0.323343 0.109577
C36   C     C_R   0.565769 0.602136 0.668154 -0.029788
C37   C     C_R   0.414883 0.407473 0.332726 -0.048828
C38   C     C_R   0.567127 0.598841 0.718593 0.674515
C39   C     C_R   0.416922 0.407799 0.281966 0.677450
C40   C     C_R   0.503721 0.497389 0.746465 0.115774
C41   C     C_R   0.505930 0.491930 0.252139 0.123494
C42   C     C_3   0.630577 0.715735 0.638936 -0.356503
C43   C     C_3   0.526052 0.802601 0.630774 -0.787201
C44   C     C_3   0.327544 0.306178 0.363283 -0.343318
C45   C     C_R   0.431457 0.575016 0.877345 -0.061499
C46   C     C_3   0.410648 0.203581 0.375224 -0.790869
C47   C     C_3   0.669668 0.691393 0.343744 -0.403277
C48   C     C_3   0.582981 0.792348 0.364913 -0.767130
C49   C     C_3   0.374440 0.285659 0.648604 -0.359383
C50   C     C_3   0.321255 0.172824 0.680985 -0.819225
C51   C     C_3   0.534645 0.841974 0.118773 -0.356115
C52   C     C_3   0.667237 0.900519 0.090524 -0.927450
C53   C     C_3   0.741333 0.232324 0.862988 -0.360587
C54   C     C_3   0.662691 0.112157 0.850689 -0.733109
C55   C     C_3   0.246687 0.726151 0.988651 -0.422439
C56   C     C_R   0.531079 0.382239 0.124285 -0.060232
C57   C     C_3   0.145634 0.637460 0.021291 -0.804543
C58   C     C_3   0.502928 0.138463 0.026611 -0.421376
C59   C     C_3   0.370384 0.126201 0.006255 -0.830796
C60   C     C_R   0.356146 0.655824 0.907385 -0.190051
C61   C     C_R   0.539013 0.270899 0.098583 -0.188909
C62   C     C_R   0.576023 0.404311 0.867985 -0.059600
F1    F     F_    0.110776 0.635492 0.552103 -0.554958
F2    F     F_    0.889467 0.365211 0.447618 -0.557494
F3    F     F_    0.628957 0.694506 0.741092 -0.652244
F4    F     F_    0.333295 0.325571 0.261137 -0.643447
F5    F     F_    0.625703 0.107612 0.523483 -0.645996
F6    F     F_    0.373279 0.893053 0.478832 -0.648145
H1    H     H_    0.313880 0.100511 0.496303 0.191584
H2    H     H_    0.698229 0.259486 0.958209 0.141160
H3    H     H_    0.451368 0.756198 0.609556 0.268033
H4    H     H_    0.473358 0.832928 0.666480 0.284895
H5    H     H_    0.576248 0.885517 0.609982 0.257918
H6    H     H_    0.706530 0.767509 0.658251 0.269047
H7    H     H_    0.685985 0.689236 0.603165 0.207708
H8    H     H_    0.457846 0.161284 0.340929 0.286537
H9    H     H_    0.490389 0.240211 0.396274 0.250956
H10   H     H_    0.344734 0.130769 0.397485 0.260917
H11   H     H_    0.274481 0.343545 0.397472 0.216276
H12   H     H_    0.685710 0.899461 0.505391 0.193276
H13   H     H_    0.247022 0.264266 0.343561 0.272632
H14   H     H_    0.534865 0.831705 0.335810 0.276931
H15   H     H_    0.503736 0.755171 0.394776 0.271081
H16   H     H_    0.646533 0.867540 0.379944 0.251361
H17   H     H_    0.724671 0.657688 0.371907 0.236009
H18   H     H_    0.747900 0.733982 0.314484 0.217904
H19   H     H_    0.403027 0.138508 0.698164 0.271899
H20   H     H_    0.237911 0.195857 0.709608 0.259163
H21   H     H_    0.281864 0.097608 0.658157 0.263946
H22   H     H_    0.289921 0.315831 0.631830 0.227207
H23   H     H_    0.109619 0.421544 0.470183 0.132056
H24   H     H_    0.450142 0.254792 0.618634 0.217236
H25   H     H_    0.749096 0.841289 0.093672 0.275417
H26   H     H_    0.660731 0.913466 0.051238 0.252509
H27   H     H_    0.692954 0.992584 0.106126 0.266226
H28   H     H_    0.453098 0.901577 0.115722 0.206208
H29   H     H_    0.549879 0.842560 0.157371 0.270832
H30   H     H_    0.615798 0.062610 0.884960 0.232987
H31   H     H_    0.582473 0.130043 0.829251 0.284606
H32   H     H_    0.731788 0.051758 0.828985 0.258721
H33   H     H_    0.803797 0.276358 0.830160 0.254130
H34   H     H_    0.890027 0.577671 0.530174 0.137849
H35   H     H_    0.816252 0.207517 0.885831 0.175069
H36   H     H_    0.063034 0.688873 0.040100 0.246023
H37   H     H_    0.102239 0.563380 0.998885 0.257545
H38   H     H_    0.193636 0.594891 0.049633 0.266845
H39   H     H_    0.287586 0.800689 0.010930 0.198672
H40   H     H_    0.189248 0.774072 0.964554 0.203824
H41   H     H_    0.287341 0.150651 0.034739 0.266310
H42   H     H_    0.375564 0.186521 0.973747 0.267411
H43   H     H_    0.347959 0.029237 0.994894 0.233034
H44   H     H_    0.585158 0.112336 0.998600 0.197598
H45   H     H_    0.294881 0.715976 0.891396 0.187129
H46   H     H_    0.493406 0.066285 0.055372 0.209289
H47   H     H_    0.544577 0.186102 0.118223 0.187053
H48   H     H_    0.656658 0.645049 0.249027 0.175771
H49   H     H_    0.392022 0.321271 0.747760 0.179589
H50   H     H_    0.479379 0.789633 0.029970 0.145272
N1    N     N_R   0.504623 0.495075 0.798063 -0.324231
N2    N     N_R   0.509077 0.491303 0.200179 -0.323478
N3    N     N_2   0.842700 0.448890 0.480020 0.140635
N4    N     N_2   0.157300 0.551110 0.519980 0.142323
O1    O     O_R   0.431060 0.692470 0.504020 -0.502308
O2    O     O_2   0.569295 0.287015 0.197306 -0.529593
O3    O     O_2   0.434527 0.689218 0.205245 -0.564022
O4    O     O_2   0.643643 0.334924 0.785876 -0.566266
O5    O     O_R   0.568940 0.307530 0.495980 -0.498805
O6    O     O_R   0.651120 0.659650 0.491200 -0.651028
O7    O     O_R   0.348880 0.340350 0.508800 -0.651150
O8    O     O_R   0.389980 0.516390 0.577660 -0.591912
O9    O     O_R   0.610020 0.483610 0.422340 -0.593893
O10   O     O_R   0.610040 0.483570 0.564830 -0.631909
O11   O     O_R   0.389960 0.516430 0.435170 -0.639530
O12   O     O_2   0.362867 0.655402 0.806498 -0.540097
Zn1   Zn    Zn3+2 0.353060 0.521910 0.508560 1.063055
Zn2   Zn    Zn3+2 0.646940 0.478090 0.491440 1.067214

loop_
_geom_bond_atom_site_label_1
_geom_bond_atom_site_label_2
_ccdc_geom_bond_type
C51   H29   S    
C57   H37   S    
C45   C60   A    
C34   C56   A    
C43   H4    S    
C23   C45   A    
C17   O9    A    
C36   C42   S    
O8    Zn1   S    
C1    O6    A    
C49   H22   S    
C35   C47   S    
C46   H8    S    
C28   C56   A    
C39   C41   A    
C12   O5    A    
C53   C54   S    
C29   N1    A    
C42   H7    S    
C58   H44   S    
C47   H17   S    
C53   H35   S    
C5    C11   A    
O6    Zn2   S    
C11   C14   A    
C25   H34   S    
C13   H2    S    
C3    C33   A    
C33   C49   S    
F2    N3    S    
C59   H42   S    
C31   C40   A    
C52   H27   S    
C31   H49   S    
C24   F5    S    
O7    Zn1   S    
C43   H5    S    
C23   C62   A    
C47   C48   S    
C53   H33   S    
C61   H47   S    
C59   H43   S    
C32   C41   A    
C31   C33   A    
C52   H26   S    
C16   O8    A    
C50   H20   S    
C51   H28   S    
C2    C34   A    
C57   H38   S    
C30   O3    S    
C41   N2    S    
C55   H39   S    
C29   O4    S    
C54   H32   S    
C60   H45   S    
C2    C14   A    
C25   C26   S    
C44   C46   S    
C19   C58   S    
C42   H6    S    
C12   O7    A    
C20   H12   S    
C51   C52   S    
C32   C35   A    
O5    Zn2   S    
O9    Zn2   S    
C28   N2    A    
C46   H10   S    
C58   C59   S    
C12   C21   S    
C8    C18   A    
C48   H16   S    
O1    Zn1   S    
C1    O1    A    
C5    C9    A    
C5    C8    A    
C50   H21   S    
C14   C51   S    
C38   F3    S    
O10   Zn2   S    
C52   H25   S    
C32   H48   S    
C22   F6    S    
C18   C55   S    
C4    C17   S    
C50   H19   S    
C18   C60   A    
C20   C22   D    
C44   H13   S    
C7    C19   A    
C55   C57   S    
C17   O11   A    
C9    C34   A    
C39   F4    S    
C22   C24   S    
C54   H31   S    
C42   C43   S    
C49   H24   S    
C15   C53   S    
F1    N4    S    
O11   Zn1   S    
C7    C9    A    
C57   H36   S    
C29   C62   A    
C1    C20   S    
C43   H3    S    
C27   O12   S    
C44   H11   S    
C6    C10   A    
C46   H9    S    
C28   O2    S    
C6    C7    A    
C27   N1    A    
C10   C23   A    
C48   H15   S    
C55   H40   S    
C2    C30   A    
C37   C44   S    
C13   C15   A    
C47   H18   S    
C26   H23   S    
C37   C39   A    
C6    C13   A    
C38   C40   A    
C27   C45   A    
C30   N2    A    
C3    C36   A    
C19   C61   A    
C36   C38   A    
C59   H41   S    
C15   C62   A    
C48   H14   S    
N3    Zn2   S    
C16   O10   A    
N4    Zn1   S    
C4    C35   A    
C40   N1    S    
C4    C37   A    
C8    C10   A    
C49   C50   S    
C21   C24   D    
C21   H1    S    
C58   H46   S    
C56   C61   A    
C54   H30   S    
C26   N4    D    
C11   H50   S    
C25   N3    D    
C3    C16   S    
