data_mof_unit_23430.cif
_audit_creation_date              2012-12-10T18:50:00-0500
_audit_creation_method            fapswitch 2.2
_symmetry_space_group_name_H-M    P1
_symmetry_Int_Tables_number       1
_space_group_crystal_system       triclinic
_cell_length_a                    10.800917
_cell_length_b                    9.813993
_cell_length_c                    10.736238
_cell_angle_alpha                 90.414279
_cell_angle_beta                  90.461247
_cell_angle_gamma                 90.485608
_cell_volume                      1137.93449317

loop_
_atom_site_label
_atom_site_type_symbol
_atom_type_description
_atom_site_fract_x
_atom_site_fract_y
_atom_site_fract_z
_atom_type_partial_charge
C1    C     C_R   0.260510 0.499511 0.500115 0.892022
C2    C     C_R   0.560471 0.929364 0.591294 -0.040011
C3    C     C_R   0.438116 0.926619 0.409371 -0.052827
C4    C     C_R   0.437390 0.070634 0.409979 -0.034611
C5    C     C_R   0.506316 0.499020 0.257968 0.861617
C6    C     C_R   0.740315 0.500632 0.499104 0.882822
C7    C     C_R   0.503869 0.500038 0.742224 0.850832
C8    C     C_3   0.542556 0.641022 0.073146 -0.428417
C9    C     C_3   0.382657 0.452032 0.071511 -0.446703
C10   C     C_3   0.559231 0.637564 0.931406 -0.210639
C11   C     C_3   0.374582 0.480868 0.930984 -0.215088
C12   C     C_3   0.595731 0.374563 0.926408 -0.062911
C13   C     C_3   0.614960 0.391031 0.072888 -0.078251
C14   C     C_3   0.512905 0.494630 0.121783 0.023446
C15   C     C_3   0.510072 0.496596 0.878918 -0.024538
C16   C     C_1   0.689143 0.668451 0.899913 0.208198
C17   C     C_1   0.294422 0.378870 0.866991 0.215306
C18   C     C_1   0.739853 0.444677 0.107536 0.152692
C19   C     C_1   0.608717 0.255043 0.133490 0.203571
C20   C     C_1   0.715558 0.370323 0.859127 0.151168
C21   C     C_1   0.535835 0.240620 0.895212 0.193184
C22   C     C_1   0.127705 0.310623 0.342161 0.202196
C23   C     C_R   0.064221 0.401322 0.427954 -0.049295
C24   C     C_1   0.133334 0.691318 0.654136 0.214640
C25   C     C_1   0.872531 0.281047 0.376153 0.235849
C26   C     C_1   0.881383 0.730506 0.605686 0.251133
C27   C     C_R   0.066980 0.599005 0.569525 -0.061271
C28   C     C_R   0.936391 0.395786 0.434809 -0.052337
C29   C     C_R   0.939760 0.608370 0.558009 -0.055461
C30   C     C_R   0.873550 0.501887 0.497063 -0.135482
C31   C     C_R   0.128681 0.498948 0.500123 -0.140776
C32   C     C_R   0.563078 0.073303 0.589509 -0.024771
H1    H     H_    0.625254 0.685657 0.121657 0.197086
H2    H     H_    0.606303 0.875829 0.665824 0.146974
H3    H     H_    0.365896 0.342137 0.091097 0.202875
H4    H     H_    0.388900 0.870897 0.336849 0.133785
H5    H     H_    0.388312 0.124177 0.337604 0.151516
H6    H     H_    0.464240 0.710056 0.095582 0.188216
H7    H     H_    0.308604 0.510059 0.119738 0.170993
H8    H     H_    0.503256 0.722216 0.892374 0.166500
H9    H     H_    0.325867 0.579516 0.918552 0.158334
H10   H     H_    0.615354 0.129008 0.659649 0.143727
N1    N     N_R   0.499970 0.857200 0.499970 -0.091575
N2    N     N_1   0.185990 0.764464 0.721448 -0.189597
N3    N     N_1   0.823469 0.187984 0.330454 -0.171284
N4    N     N_1   0.837748 0.830033 0.642441 -0.204260
N5    N     N_R   0.499970 0.142800 0.499970 -0.092437
N6    N     N_1   0.791571 0.692715 0.877890 -0.176850
N7    N     N_1   0.231301 0.299600 0.816773 -0.157006
N8    N     N_1   0.837007 0.486619 0.134481 -0.195133
N9    N     N_1   0.603117 0.148280 0.178328 -0.185728
N10   N     N_1   0.808647 0.366547 0.806535 -0.181475
N11   N     N_1   0.489475 0.136363 0.872835 -0.207438
N12   N     N_1   0.177164 0.238802 0.273009 -0.223487
O1    O     O_R   0.316750 0.614620 0.499990 -0.617059
O2    O     O_R   0.316750 0.385380 0.499990 -0.607086
O3    O     O_R   0.499970 0.614670 0.314790 -0.632398
O4    O     O_R   0.499970 0.385330 0.314790 -0.625396
O5    O     O_R   0.683220 0.614710 0.500010 -0.617329
O6    O     O_R   0.683220 0.385290 0.500010 -0.616327
O7    O     O_R   0.500010 0.614660 0.685200 -0.632796
O8    O     O_R   0.500010 0.385340 0.685200 -0.618840
Zn1   Zn    Zn3+2 0.499980 0.653120 0.500000 0.969935
Zn2   Zn    Zn3+2 0.499980 0.346880 0.500000 0.988274

loop_
_geom_bond_atom_site_label_1
_geom_bond_atom_site_label_2
_ccdc_geom_bond_type
O8    Zn2   S    
C9    C14   S    
C24   C27   S    
C7    O8    A    
O3    Zn1   S    
C29   C30   A    
C19   N9    T    
C27   C29   A    
C20   N10   T    
C9    H7    S    
O5    Zn1   S    
C12   C20   S    
C12   C15   S    
C5    O3    A    
C2    N1    A    
O6    Zn2   S    
C2    H2    S    
C7    C15   S    
C1    O1    A    
N1    Zn1   S    
C22   N12   T    
C10   C16   S    
C23   C28   A    
C4    H5    S    
C25   C28   S    
C21   N11   T    
C12   C13   S    
C9    C11   S    
C3    N1    A    
C5    C14   S    
C8    H6    S    
C13   C18   S    
C3    H4    S    
C6    O5    A    
C28   C30   A    
C6    C30   S    
C1    O2    A    
C11   H9    S    
C10   C15   S    
O4    Zn2   S    
C24   N2    T    
C32   N5    A    
C13   C19   S    
C25   N3    T    
C27   C31   A    
C3    C4    A    
C6    O6    A    
C1    C31   S    
C16   N6    T    
C18   N8    T    
C26   C29   S    
C2    C32   A    
C5    O4    A    
O2    Zn2   S    
C17   N7    T    
N5    Zn2   S    
C9    H3    S    
C32   H10   S    
C22   C23   S    
C11   C17   S    
C10   H8    S    
C8    C14   S    
C13   C14   S    
C26   N4    T    
C11   C15   S    
C12   C21   S    
C8    C10   S    
C7    O7    A    
O1    Zn1   S    
C8    H1    S    
O7    Zn1   S    
C4    N5    A    
C23   C31   A    
