data_mof_unit_22740.cif
_audit_creation_date              2012-10-26T18:47:33-0400
_audit_creation_method            fapswitch 2.2
_symmetry_space_group_name_H-M    P1
_symmetry_Int_Tables_number       1
_space_group_crystal_system       triclinic
_cell_length_a                    10.829919
_cell_length_b                    12.997593
_cell_length_c                    11.652329
_cell_angle_alpha                 99.843217
_cell_angle_beta                  93.87763
_cell_angle_gamma                 90.512162
_cell_volume                      1612.01995035

loop_
_atom_site_label
_atom_site_type_symbol
_atom_type_description
_atom_site_fract_x
_atom_site_fract_y
_atom_site_fract_z
_atom_type_partial_charge
C1    C     C_R   0.498316 0.299017 0.478615 0.543568
C2    C     C_R   0.497608 0.984802 0.655527 -0.143024
C3    C     C_R   0.500717 0.123304 0.355424 -0.138288
C4    C     C_R   0.499243 0.876696 0.644575 -0.138290
C5    C     C_R   0.496359 0.139229 0.565982 -0.140177
C6    C     C_R   0.503579 0.860770 0.434018 -0.140184
C7    C     C_R   0.498430 0.031245 0.555813 0.047357
C8    C     C_R   0.501507 0.968754 0.444186 0.047349
C9    C     C_R   0.384973 0.400263 0.021223 -0.181110
C10   C     C_R   0.615022 0.599740 0.978777 -0.181097
C11   C     C_R   0.395737 0.410013 0.143615 0.054638
C12   C     C_R   0.501674 0.700983 0.521385 0.543580
C13   C     C_R   0.604260 0.589989 0.856386 0.054647
C14   C     C_R   0.549241 0.543443 0.157426 0.043575
C15   C     C_R   0.450758 0.456557 0.842574 0.043565
C16   C     C_R   0.262223 0.503189 0.500317 0.547423
C17   C     C_R   0.737778 0.496814 0.499683 0.547412
C18   C     C_R   0.541650 0.536327 0.034454 0.002651
C19   C     C_R   0.458347 0.463674 0.965546 0.002649
C20   C     C_R   0.230697 0.712495 0.243769 -0.095514
C21   C     C_R   0.769279 0.287606 0.756270 -0.095502
C22   C     C_R   0.178914 0.673524 0.334842 -0.052474
C23   C     C_R   0.871677 0.494353 0.499841 -0.002937
C24   C     C_R   0.821049 0.326551 0.665189 -0.052424
C25   C     C_R   0.107253 0.580638 0.311423 0.052154
C26   C     C_R   0.892757 0.419401 0.688586 0.052151
C27   C     C_R   0.086440 0.528549 0.195585 -0.101919
C28   C     C_R   0.913636 0.471475 0.804411 -0.101955
C29   C     C_R   0.138648 0.567736 0.104880 -0.117677
C30   C     C_R   0.861440 0.432315 0.895123 -0.117721
C31   C     C_R   0.211117 0.659376 0.128994 -0.098173
C32   C     C_R   0.788921 0.340713 0.871030 -0.098196
C33   C     C_R   0.926894 0.530080 0.408476 -0.154564
C34   C     C_R   0.128324 0.505653 0.500161 -0.002932
C35   C     C_R   0.073109 0.469927 0.591525 -0.154570
C36   C     C_R   0.945300 0.462745 0.592137 -0.032039
C37   C     C_R   0.054703 0.537268 0.407867 -0.032042
C38   C     C_R   0.501769 0.814364 0.533793 -0.002340
C39   C     C_R   0.498195 0.185636 0.466206 -0.002340
C40   C     C_R   0.502334 0.015197 0.344472 -0.143027
Cu1   Cu    Cu3+1 0.509250 0.507730 0.615930 0.934213
Cu2   Cu    Cu3+1 0.490750 0.492270 0.384070 0.934226
H1    H     H_    0.252027 0.689227 0.058738 0.107168
H2    H     H_    0.713879 0.216285 0.737930 0.099537
H3    H     H_    0.195393 0.715045 0.423520 0.097503
H4    H     H_    0.804522 0.285039 0.576523 0.097515
H5    H     H_    0.031482 0.456876 0.175895 0.097398
H6    H     H_    0.968639 0.543118 0.824087 0.097417
H7    H     H_    0.123778 0.526620 0.015981 0.102632
H8    H     H_    0.876360 0.473422 0.984012 0.102650
H9    H     H_    0.870218 0.556047 0.338927 0.125280
H10   H     H_    0.129786 0.443960 0.661073 0.125280
H11   H     H_    0.506699 0.813070 0.348313 0.113127
H12   H     H_    0.748017 0.310883 0.941292 0.107192
H13   H     H_    0.493226 0.186928 0.651687 0.113110
H14   H     H_    0.497956 0.842004 0.722656 0.127589
H15   H     H_    0.502017 0.157996 0.277343 0.127589
H16   H     H_    0.504444 0.968067 0.258405 0.097554
H17   H     H_    0.495497 0.031933 0.741595 0.097555
H18   H     H_    0.386837 0.401011 0.788676 0.110435
H19   H     H_    0.613162 0.598989 0.211324 0.110437
H20   H     H_    0.661320 0.639037 0.814270 0.125181
H21   H     H_    0.338676 0.360966 0.185731 0.125173
H22   H     H_    0.319646 0.343736 0.970704 0.081173
H23   H     H_    0.680346 0.656269 0.029297 0.081177
H24   H     H_    0.286062 0.783844 0.262127 0.099531
N1    N     N_R   0.523180 0.519350 0.790130 -0.224512
N2    N     N_R   0.476820 0.480650 0.209870 -0.224509
O1    O     O_R   0.506570 0.354460 0.582000 -0.510110
O2    O     O_R   0.493430 0.645540 0.418000 -0.510097
O3    O     O_R   0.490940 0.341410 0.386200 -0.511028
O4    O     O_R   0.509060 0.658590 0.613800 -0.511030
O5    O     O_R   0.327460 0.506540 0.597900 -0.513890
O6    O     O_R   0.672540 0.493460 0.402100 -0.513883
O7    O     O_R   0.311830 0.493480 0.402100 -0.490393
O8    O     O_R   0.688170 0.506520 0.597900 -0.490395

loop_
_geom_bond_atom_site_label_1
_geom_bond_atom_site_label_2
_ccdc_geom_bond_type
C27   C29   A    
C16   O7    A    
Cu1   Cu2   S    
C14   C18   A    
C35   C36   A    
C7    C8    A    
Cu1   N1    S    
C29   H7    S    
C15   C19   A    
Cu2   O7    S    
C17   C23   S    
C31   H1    S    
C20   H24   S    
C24   C26   A    
C18   C19   A    
C11   H21   S    
C9    H22   S    
Cu2   O2    S    
C34   C35   A    
C15   H18   S    
C16   C34   S    
C9    C19   A    
C13   H20   S    
C2    C7    A    
C23   C33   A    
C22   C25   A    
C17   O8    A    
C6    C38   A    
C25   C37   S    
C12   O4    A    
C3    C39   A    
C4    H14   S    
Cu2   N2    S    
C32   H12   S    
C21   C32   A    
Cu2   O6    S    
C40   H16   S    
C16   O5    A    
C5    C7    A    
C2    H17   S    
C6    C8    A    
C14   H19   S    
C33   C37   A    
C2    C4    A    
C21   H2    S    
C15   N1    A    
C1    O3    A    
C9    C11   A    
Cu1   O4    S    
C3    H15   S    
C26   C36   S    
C20   C22   A    
C3    C40   A    
C5    C39   A    
C17   O6    A    
C25   C27   A    
C6    H11   S    
C12   C38   S    
C11   N2    A    
Cu1   O1    S    
C13   N1    A    
C10   H23   S    
C27   H5    S    
C12   O2    A    
C28   H6    S    
C5    H13   S    
C4    C38   A    
C10   C13   A    
C34   C37   A    
C33   H9    S    
C26   C28   A    
C24   H4    S    
C28   C30   A    
C29   C31   A    
Cu1   O8    S    
C30   C32   A    
C10   C18   A    
Cu2   O3    S    
C30   H8    S    
C1    O1    A    
C1    C39   S    
Cu1   O5    S    
C22   H3    S    
C23   C36   A    
C21   C24   A    
C35   H10   S    
C14   N2    A    
C8    C40   A    
C20   C31   A    
