data_mof_unit_15440.cif
_audit_creation_date              2012-12-10T20:39:05-0500
_audit_creation_method            fapswitch 2.2
_symmetry_space_group_name_H-M    P1
_symmetry_Int_Tables_number       1
_space_group_crystal_system       triclinic
_cell_length_a                    18.945511
_cell_length_b                    10.671187
_cell_length_c                    9.910757
_cell_angle_alpha                 91.976369
_cell_angle_beta                  90.818894
_cell_angle_gamma                 91.409921
_cell_volume                      2001.64050644

loop_
_atom_site_label
_atom_site_type_symbol
_atom_type_description
_atom_site_fract_x
_atom_site_fract_y
_atom_site_fract_z
_atom_type_partial_charge
C1    C     C_R   0.499652 0.260598 0.497466 0.880064
C2    C     C_R   0.288518 0.478735 0.497298 -0.061472
C3    C     C_R   0.928199 0.374390 0.503060 0.287635
C4    C     C_R   0.070711 0.376993 0.498909 0.291903
C5    C     C_R   0.816841 0.423075 0.631005 0.234845
C6    C     C_R   0.745801 0.455635 0.625796 -0.239698
C7    C     C_R   0.709897 0.465541 0.502420 -0.087705
C8    C     C_R   0.744319 0.436426 0.382074 -0.203729
C9    C     C_R   0.814264 0.401490 0.384872 -0.199544
C10   C     C_R   0.851821 0.396593 0.507929 0.018599
C11   C     C_R   0.552688 0.070680 0.568071 0.101741
C12   C     C_R   0.365063 0.498305 0.499245 0.862073
C13   C     C_R   0.503443 0.129343 0.489336 -0.107887
C14   C     C_R   0.459836 0.059798 0.398092 -0.212395
C15   C     C_R   0.457971 0.930324 0.404064 -0.225301
C16   C     C_R   0.499563 0.872648 0.501282 -0.083969
C17   C     C_R   0.550589 0.942667 0.575191 0.063579
C18   C     C_3   0.567016 0.949813 0.723314 -0.501618
C19   C     C_3   0.571627 0.091291 0.713982 0.018364
C20   C     C_R   0.470046 0.402103 0.066487 0.111963
C21   C     C_R   0.535407 0.591348 0.077349 0.172440
C22   C     C_R   0.536132 0.590455 0.932646 0.170236
C23   C     C_R   0.499569 0.739971 0.501617 0.874964
C24   C     C_R   0.470170 0.402107 0.924299 0.080671
C25   C     C_3   0.394828 0.359096 0.914500 0.032705
C26   C     C_3   0.394544 0.358920 0.068275 -0.559879
C27   C     C_R   0.634771 0.494147 0.500659 0.850182
C28   C     C_R   0.247572 0.510384 0.611000 0.207034
C29   C     C_R   0.176970 0.470103 0.612918 -0.241402
C30   C     C_R   0.146231 0.404770 0.501033 0.065574
C31   C     C_R   0.186184 0.378547 0.386676 -0.167777
C32   C     C_R   0.257009 0.414088 0.385416 -0.252648
H1    H     H_    0.520618 0.919713 0.782513 0.176803
H2    H     H_    0.530677 0.139412 0.774426 0.139891
H3    H     H_    0.145323 0.494644 0.699691 0.148043
H4    H     H_    0.388187 0.264479 0.111227 0.198014
H5    H     H_    0.718445 0.474207 0.718304 0.168328
H6    H     H_    0.424435 0.105304 0.329397 0.150364
N1    N     N_R   0.032939 0.387317 0.382984 -0.174224
N2    N     N_R   0.962900 0.386172 0.385141 -0.181811
N3    N     N_R   0.966271 0.356571 0.617318 -0.156191
N4    N     N_R   0.036298 0.358746 0.615659 -0.179097
N5    N     N_R   0.499530 0.499140 0.142800 -0.120874
N6    N     N_R   0.499530 0.499180 0.857150 -0.137550
O1    O     O_R   0.500010 0.316790 0.614690 -0.615696
O2    O     O_R   0.500000 0.316760 0.385350 -0.615154
O3    O     O_R   0.398140 0.500000 0.614710 -0.583947
O4    O     O_R   0.398130 0.499970 0.385370 -0.626868
O5    O     O_R   0.500000 0.683240 0.614650 -0.589396
O6    O     O_R   0.499990 0.683210 0.385310 -0.596843
O7    O     O_R   0.601870 0.500030 0.614630 -0.607725
O8    O     O_R   0.601860 0.500000 0.385290 -0.601703
Zn1   Zn    Zn3+2 0.500000 0.500020 0.653130 0.968068
Zn2   Zn    Zn3+2 0.500000 0.499980 0.346870 0.954794
N7    N     N_2   0.276670 0.582170 0.723272 -0.306991
H7    H     H_    0.251263 0.567957 0.813083 0.212469
C33   C     C_3   0.288199 0.714036 0.699083 -0.764102
H8    H     H_    0.236935 0.759301 0.680193 0.233967
H9    H     H_    0.323029 0.727157 0.611211 0.234042
H10   H     H_    0.314289 0.760735 0.789115 0.232141
H11   H     H_    0.422126 0.875868 0.337532 0.154032
H12   H     H_    0.617958 0.906712 0.748630 0.222181
N8    N     N_2   0.642413 0.145362 0.739075 -0.290428
H13   H     H_    0.641855 0.238926 0.768775 0.231106
C34   C     C_3   0.698047 0.118350 0.643850 -0.735849
H14   H     H_    0.749586 0.152176 0.687425 0.238844
H15   H     H_    0.688526 0.167402 0.548431 0.236497
H16   H     H_    0.701402 0.016022 0.622044 0.240075
N9    N     N_2   0.567017 0.693138 0.154553 -0.251665
H17   H     H_    0.548775 0.780823 0.134188 0.200021
C35   C     C_3   0.642124 0.688962 0.182320 -0.689514
H18   H     H_    0.664380 0.598015 0.148267 0.221167
H19   H     H_    0.651882 0.703511 0.292392 0.241994
H20   H     H_    0.670120 0.766412 0.131851 0.203250
N10   N     N_2   0.572193 0.688048 0.866585 -0.248955
H21   H     H_    0.561748 0.774641 0.908942 0.193087
C36   C     C_3   0.647237 0.671716 0.848718 -0.737999
H22   H     H_    0.678002 0.747895 0.903299 0.205643
H23   H     H_    0.659921 0.679175 0.740530 0.246444
H24   H     H_    0.664740 0.580442 0.886249 0.219186
H25   H     H_    0.360184 0.429568 0.869369 0.179925
N11   N     N_2   0.387488 0.234777 0.850842 -0.271168
H26   H     H_    0.418160 0.167150 0.892793 0.221729
C37   C     C_3   0.315635 0.192846 0.821600 -0.778253
H27   H     H_    0.315736 0.100767 0.765883 0.236588
H28   H     H_    0.288684 0.260886 0.757281 0.250654
H29   H     H_    0.286268 0.182315 0.916951 0.235767
H30   H     H_    0.359967 0.431499 0.112805 0.194450
H31   H     H_    0.162808 0.329178 0.299045 0.150714
H32   H     H_    0.287586 0.387300 0.298268 0.159819
N12   N     N_2   0.854489 0.426255 0.757205 -0.290344
H33   H     H_    0.889535 0.501390 0.769766 0.235697
C38   C     C_3   0.817326 0.395323 0.878851 -0.807652
H34   H     H_    0.856300 0.374186 0.959085 0.253227
H35   H     H_    0.782366 0.311248 0.860664 0.249446
H36   H     H_    0.785984 0.476015 0.915136 0.222088
H37   H     H_    0.717084 0.438864 0.285508 0.159128
H38   H     H_    0.839289 0.380241 0.289486 0.160767

loop_
_geom_bond_atom_site_label_1
_geom_bond_atom_site_label_2
_ccdc_geom_bond_type
C8    C9    A    
N7    H7    S    
N8    C34   S    
C38   H34   S    
N3    N4    A    
C37   H29   S    
C12   O4    A    
C2    C12   S    
C7    C8    A    
C36   H22   S    
O4    Zn2   S    
C11   C19   S    
C9    H38   S    
C4    N4    A    
C28   C29   A    
C37   H28   S    
C5    C6    A    
C1    O2    A    
C23   O5    A    
N12   C38   S    
C15   C16   A    
C7    C27   S    
C2    C32   A    
C18   C19   S    
N9    C35   S    
C21   N5    A    
N6    Zn1   S    
C22   N6    A    
C20   C24   A    
C27   O7    A    
C16   C17   A    
C34   H15   S    
C9    C10   A    
O3    Zn1   S    
O1    Zn1   S    
C38   H35   S    
C13   C14   A    
C25   H25   S    
C22   N10   S    
C12   O3    A    
C28   N7    S    
O8    Zn2   S    
C36   H23   S    
C32   H32   S    
C24   C25   S    
C19   N8    S    
N1    N2    A    
C35   H19   S    
C18   H12   S    
C33   H10   S    
C31   H31   S    
C25   C26   S    
C21   N9    S    
O7    Zn1   S    
N10   H21   S    
C29   C30   A    
C14   H6    S    
N5    Zn2   S    
C31   C32   A    
C4    N1    A    
C34   H16   S    
O2    Zn2   S    
C17   C18   S    
C15   H11   S    
C6    H5    S    
O6    Zn2   S    
C37   H27   S    
N10   C36   S    
C5    N12   S    
C26   H4    S    
C3    N2    A    
C34   H14   S    
C38   H36   S    
N11   C37   S    
N7    C33   S    
C25   N11   S    
C24   N6    A    
C1    C13   S    
N12   H33   S    
C20   N5    A    
C27   O8    A    
C36   H24   S    
C3    N3    A    
C23   O6    A    
C19   H2    S    
C11   C17   A    
C35   H20   S    
C6    C7    A    
C16   C23   S    
C29   H3    S    
C5    C10   A    
C3    C10   S    
C11   C13   A    
C1    O1    A    
C33   H8    S    
C30   C31   A    
C20   C26   S    
C8    H37   S    
O5    Zn1   S    
N9    H17   S    
C18   H1    S    
C33   H9    S    
N8    H13   S    
C35   H18   S    
C26   H30   S    
N11   H26   S    
C14   C15   A    
C2    C28   A    
C21   C22   A    
C4    C30   S    
