data_mof_unit_58717.cif
_audit_creation_date              2012-12-11T15:37:15-0500
_audit_creation_method            fapswitch 2.2
_symmetry_space_group_name_H-M    P1
_symmetry_Int_Tables_number       1
_space_group_crystal_system       triclinic
_cell_length_a                    17.541505
_cell_length_b                    24.600067
_cell_length_c                    14.839385
_cell_angle_alpha                 89.491937
_cell_angle_beta                  126.154189
_cell_angle_gamma                 90.467256
_cell_volume                      5170.1748054

loop_
_atom_site_label
_atom_site_type_symbol
_atom_type_description
_atom_site_fract_x
_atom_site_fract_y
_atom_site_fract_z
_atom_type_partial_charge
C1    C     C_R   0.853718 0.653258 0.912121 0.683319
C2    C     C_R   0.182307 0.366582 0.089855 0.655590
C3    C     C_R   0.184506 0.632019 0.089783 0.585424
C4    C     C_R   0.864928 0.344832 0.912058 0.670255
C5    C     C_R   0.353718 0.153258 0.912121 0.683319
C6    C     C_R   0.682307 0.866582 0.089855 0.655591
C7    C     C_R   0.684506 0.132019 0.089783 0.585424
C8    C     C_R   0.364928 0.844832 0.912058 0.670255
C9    C     C_3   0.391552 0.499243 0.476625 0.073228
C10   C     C_3   0.571469 0.498774 0.638055 0.070175
C11   C     C_3   0.891552 0.999243 0.476625 0.073227
C12   C     C_3   0.071469 0.998774 0.638055 0.070175
C13   C     C_R   0.881898 0.217049 0.034625 0.650947
C14   C     C_R   0.195956 0.741250 0.963915 0.655467
C15   C     C_R   0.224401 0.254781 0.043459 0.667393
C16   C     C_R   0.824385 0.774294 0.950129 0.708979
C17   C     C_R   0.381898 0.717048 0.034625 0.650947
C18   C     C_R   0.695956 0.241250 0.963915 0.655467
C19   C     C_R   0.724401 0.754780 0.043459 0.667393
C20   C     C_R   0.324385 0.274294 0.950129 0.708979
C21   C     C_R   0.323711 0.676003 0.029476 -0.424578
C22   C     C_R   0.753266 0.281556 0.967631 -0.423121
C23   C     C_R   0.784776 0.715927 0.052162 -0.492362
C24   C     C_R   0.264462 0.313729 0.942726 -0.501484
C25   C     C_R   0.823711 0.176003 0.029476 -0.424578
C26   C     C_R   0.253266 0.781556 0.967631 -0.423121
C27   C     C_R   0.284776 0.215927 0.052162 -0.492362
C28   C     C_R   0.764462 0.813728 0.942726 -0.501484
C29   C     C_R   0.231589 0.688298 0.991681 -0.037563
C30   C     C_R   0.845285 0.269715 0.005569 -0.079448
C31   C     C_R   0.835252 0.726371 0.008387 -0.039862
C32   C     C_R   0.215783 0.303341 0.988481 -0.035677
C33   C     C_R   0.731589 0.188298 0.991681 -0.037564
C34   C     C_R   0.345285 0.769715 0.005569 -0.079448
C35   C     C_R   0.335252 0.226371 0.008387 -0.039862
C36   C     C_R   0.715784 0.803341 0.988481 -0.035677
C37   C     C_R   0.890146 0.450251 0.460765 -0.177752
C38   C     C_R   0.890266 0.548450 0.365813 -0.185075
C39   C     C_R   0.892641 0.450110 0.369310 -0.178701
C40   C     C_R   0.888174 0.548643 0.457640 -0.171578
C41   C     C_R   0.390147 0.950251 0.460765 -0.177752
C42   C     C_R   0.390266 0.048450 0.365813 -0.185075
C43   C     C_R   0.392641 0.950110 0.369310 -0.178701
C44   C     C_R   0.388174 0.048643 0.457640 -0.171578
C45   C     C_R   0.904069 0.499294 0.330141 0.146500
C46   C     C_R   0.898412 0.499609 0.512592 0.149998
C47   C     C_R   0.404069 0.999294 0.330141 0.146500
C48   C     C_R   0.398412 0.999609 0.512592 0.149998
C49   C     C_R   0.950222 0.348495 0.095934 -0.225913
C50   C     C_R   0.089759 0.628776 0.903180 -0.222683
C51   C     C_R   0.083152 0.366961 0.901975 -0.220669
C52   C     C_R   0.944915 0.649191 0.096526 -0.307592
C53   C     C_R   0.450222 0.848495 0.095934 -0.225913
C54   C     C_R   0.589759 0.128776 0.903180 -0.222683
C55   C     C_R   0.583152 0.866961 0.901975 -0.220669
C56   C     C_R   0.444915 0.149191 0.096526 -0.307592
C57   C     C_R   0.981100 0.545487 0.248972 -0.132428
C58   C     C_R   0.949518 0.454438 0.694338 -0.133997
C59   C     C_R   0.949249 0.545465 0.693367 -0.143418
C60   C     C_R   0.979401 0.453890 0.247198 -0.161446
C61   C     C_R   0.481100 0.045487 0.248972 -0.132428
C62   C     C_R   0.449518 0.954438 0.694338 -0.133997
C63   C     C_R   0.449248 0.045465 0.693367 -0.143418
C64   C     C_R   0.479401 0.953890 0.247198 -0.161446
C65   C     C_R   0.729850 0.454744 0.742684 0.505257
C66   C     C_R   0.250596 0.544454 0.309909 0.568680
C67   C     C_R   0.251330 0.455557 0.309902 0.524861
C68   C     C_R   0.729343 0.544326 0.741667 0.511930
C69   C     C_R   0.229850 0.954744 0.742684 0.505257
C70   C     C_R   0.750596 0.044454 0.309909 0.568680
C71   C     C_R   0.751330 0.955557 0.309902 0.524861
C72   C     C_R   0.229343 0.044326 0.741667 0.511930
C73   C     C_R   0.884014 0.681337 0.006609 -0.009858
C74   C     C_R   0.166645 0.346965 0.993137 -0.065960
C75   C     C_R   0.176018 0.646832 0.994634 -0.023297
C76   C     C_R   0.898014 0.314371 0.006677 -0.014886
C77   C     C_R   0.384014 0.181337 0.006609 -0.009858
C78   C     C_R   0.666645 0.846965 0.993137 -0.065960
C79   C     C_R   0.676018 0.146832 0.994634 -0.023297
C80   C     C_R   0.398014 0.814371 0.006677 -0.014886
C81   C     C_R   0.949072 0.499518 0.272762 0.046191
C82   C     C_R   0.932490 0.499915 0.629427 0.046762
C83   C     C_R   0.449072 0.999518 0.272762 0.046191
C84   C     C_R   0.432490 0.999915 0.629427 0.046762
C85   C     C_R   0.673184 0.499215 0.715446 -0.216324
C86   C     C_R   0.295602 0.499752 0.376114 -0.286174
C87   C     C_R   0.173184 0.999215 0.715446 -0.216324
C88   C     C_R   0.795602 0.999752 0.376114 -0.286174
C89   C     C_3   0.503512 0.452402 0.618106 -0.298161
C90   C     C_3   0.460187 0.545440 0.497923 -0.341321
C91   C     C_3   0.460793 0.455236 0.492453 -0.302566
C92   C     C_3   0.502933 0.542799 0.623782 -0.328734
C93   C     C_3   0.003512 0.952402 0.618106 -0.298161
C94   C     C_3   0.960187 0.045440 0.497923 -0.341322
C95   C     C_3   0.960793 0.955236 0.492453 -0.302567
C96   C     C_3   0.002933 0.042799 0.623782 -0.328735
C97   C     C_3   0.433511 0.496439 0.600443 0.688862
C98   C     C_3   0.528096 0.501343 0.513830 0.674969
C99   C     C_3   0.933511 0.996439 0.600443 0.688862
C100  C     C_3   0.028096 0.001343 0.513830 0.674968
H1    H     H_    0.992197 0.336440 0.182823 0.144353
H2    H     H_    0.058541 0.637223 0.816372 0.140717
H3    H     H_    0.047938 0.356409 0.815340 0.144470
H4    H     H_    0.987707 0.661467 0.183049 0.141030
H5    H     H_    0.492196 0.836440 0.182823 0.144353
H6    H     H_    0.558541 0.137223 0.816372 0.140717
H7    H     H_    0.547938 0.856409 0.815340 0.144470
H8    H     H_    0.487707 0.161467 0.183049 0.141030
H9    H     H_    0.971941 0.587267 0.261364 0.096959
H10   H     H_    0.931319 0.412869 0.666540 0.084844
H11   H     H_    0.931200 0.586902 0.663976 0.074342
H12   H     H_    0.967284 0.411847 0.256173 0.096703
H13   H     H_    0.471941 0.087267 0.261364 0.096959
H14   H     H_    0.431319 0.912869 0.666540 0.084844
H15   H     H_    0.431200 0.086902 0.663976 0.074342
H16   H     H_    0.467284 0.911847 0.256173 0.096703
H17   H     H_    0.523134 0.414958 0.669521 0.174243
H18   H     H_    0.442095 0.583232 0.447802 0.189316
H19   H     H_    0.444846 0.419767 0.438673 0.162337
H20   H     H_    0.522389 0.577878 0.680144 0.176163
H21   H     H_    0.023134 0.914958 0.669521 0.174243
H22   H     H_    0.942094 0.083232 0.447802 0.189317
H23   H     H_    0.944846 0.919767 0.438673 0.162337
H24   H     H_    0.022390 0.077878 0.680144 0.176163
H25   H     H_    0.349470 0.634866 0.055687 0.160478
H26   H     H_    0.727029 0.322710 0.942086 0.167635
H27   H     H_    0.789772 0.676558 0.088612 0.171402
H28   H     H_    0.257641 0.353168 0.905699 0.170115
H29   H     H_    0.849470 0.134866 0.055687 0.160478
H30   H     H_    0.227029 0.822710 0.942086 0.167635
H31   H     H_    0.289772 0.176558 0.088612 0.171402
H32   H     H_    0.757641 0.853168 0.905699 0.170115
H33   H     H_    0.891363 0.411447 0.496190 0.104573
H34   H     H_    0.891061 0.587187 0.331464 0.101875
H35   H     H_    0.895827 0.411278 0.338244 0.107514
H36   H     H_    0.887813 0.587505 0.490728 0.104057
H37   H     H_    0.391363 0.911447 0.496190 0.104573
H38   H     H_    0.391061 0.087188 0.331464 0.101875
H39   H     H_    0.395827 0.911278 0.338244 0.107514
H40   H     H_    0.387813 0.087505 0.490728 0.104057
N1    N     N_R   0.892620 0.603790 0.941800 -0.116595
N2    N     N_R   0.107380 0.396210 0.058200 -0.100003
N3    N     N_R   0.107380 0.603790 0.058200 -0.102898
N4    N     N_R   0.892620 0.396210 0.941800 -0.104374
N5    N     N_R   0.392620 0.103790 0.941800 -0.116595
N6    N     N_R   0.607380 0.896210 0.058200 -0.100003
N7    N     N_R   0.607380 0.103790 0.058200 -0.102898
N8    N     N_R   0.392620 0.896210 0.941800 -0.104374
N9    N     N_R   0.952210 0.397600 0.057910 -0.082014
N10   N     N_R   0.047790 0.602400 0.942090 -0.087848
N11   N     N_R   0.047790 0.397600 0.942090 -0.075958
N12   N     N_R   0.952210 0.602400 0.057910 -0.066471
N13   N     N_R   0.452210 0.897600 0.057910 -0.082014
N14   N     N_R   0.547790 0.102400 0.942090 -0.087848
N15   N     N_R   0.547790 0.897600 0.942090 -0.075958
N16   N     N_R   0.452210 0.102400 0.057910 -0.066471
N17   N     N_R   0.026300 0.529110 0.206760 -0.040884
N18   N     N_R   0.973700 0.470890 0.793240 -0.036027
N19   N     N_R   0.973700 0.529110 0.793240 -0.041197
N20   N     N_R   0.026300 0.470890 0.206760 -0.049478
N21   N     N_R   0.526300 0.029110 0.206760 -0.040884
N22   N     N_R   0.473700 0.970890 0.793240 -0.036027
N23   N     N_R   0.473700 0.029110 0.793240 -0.041197
N24   N     N_R   0.526300 0.970890 0.206760 -0.049478
N25   N     N_R   0.818530 0.472270 0.792960 -0.132049
N26   N     N_R   0.181470 0.527730 0.207040 -0.140756
N27   N     N_R   0.181470 0.472270 0.207040 -0.146535
N28   N     N_R   0.818530 0.527730 0.792960 -0.139135
N29   N     N_R   0.318530 0.972270 0.792960 -0.132049
N30   N     N_R   0.681470 0.027730 0.207040 -0.140756
N31   N     N_R   0.681470 0.972270 0.207040 -0.146535
N32   N     N_R   0.318530 0.027730 0.792960 -0.139135
Ni1   Ni    Ni4+2 0.934150 0.565840 0.869060 0.188486
Ni2   Ni    Ni4+2 0.065850 0.434160 0.130940 0.225307
Ni3   Ni    Ni4+2 0.065850 0.565840 0.130940 0.209641
Ni4   Ni    Ni4+2 0.934150 0.434160 0.869060 0.223688
Ni5   Ni    Ni4+2 0.434150 0.065840 0.869060 0.188486
Ni6   Ni    Ni4+2 0.565850 0.934160 0.130940 0.225307
Ni7   Ni    Ni4+2 0.565850 0.065840 0.130940 0.209641
Ni8   Ni    Ni4+2 0.434150 0.934160 0.869060 0.223688
O1    O     O_3   0.811111 0.677649 0.808902 -0.595710
C101  C     C_3   0.876026 0.681295 0.782586 -0.193669
H41   H     H_    0.887142 0.640905 0.760023 0.119479
H42   H     H_    0.943973 0.699899 0.851435 0.206344
H43   H     H_    0.845932 0.707973 0.708357 0.144031
O2    O     O_3   0.247468 0.347656 0.196925 -0.568935
C102  C     C_3   0.339479 0.359204 0.229549 -0.235825
H44   H     H_    0.349087 0.403408 0.222361 0.101078
H45   H     H_    0.358165 0.335326 0.182270 0.115284
H46   H     H_    0.390349 0.347030 0.318133 0.175287
O3    O     O_3   0.250077 0.652620 0.194851 -0.605037
C103  C     C_3   0.206942 0.694210 0.214817 -0.112507
H47   H     H_    0.145868 0.678615 0.211997 0.138100
H48   H     H_    0.184435 0.728332 0.154828 0.114162
H49   H     H_    0.259368 0.710582 0.299683 0.156915
O4    O     O_3   0.832296 0.325604 0.807334 -0.615926
C104  C     C_3   0.874265 0.275791 0.812906 -0.273976
H50   H     H_    0.837932 0.241442 0.822088 0.154419
H51   H     H_    0.951631 0.275208 0.880483 0.182008
H52   H     H_    0.864951 0.269987 0.732910 0.154058
O5    O     O_3   0.311111 0.177649 0.808902 -0.595710
C105  C     C_3   0.376026 0.181295 0.782586 -0.193669
H53   H     H_    0.387142 0.140904 0.760023 0.119479
H54   H     H_    0.443973 0.199899 0.851435 0.206344
H55   H     H_    0.345932 0.207973 0.708357 0.144031
O6    O     O_3   0.747468 0.847656 0.196925 -0.568935
C106  C     C_3   0.839479 0.859204 0.229549 -0.235825
H56   H     H_    0.849087 0.903408 0.222361 0.101078
H57   H     H_    0.858165 0.835326 0.182270 0.115284
H58   H     H_    0.890349 0.847030 0.318133 0.175287
O7    O     O_3   0.750077 0.152620 0.194851 -0.605037
C107  C     C_3   0.706942 0.194211 0.214817 -0.112507
H59   H     H_    0.645868 0.178615 0.211997 0.138100
H60   H     H_    0.684435 0.228332 0.154828 0.114162
H61   H     H_    0.759368 0.210582 0.299683 0.156915
O8    O     O_3   0.332296 0.825604 0.807334 -0.615926
C108  C     C_3   0.374265 0.775791 0.812906 -0.273976
H62   H     H_    0.337933 0.741442 0.822088 0.154419
H63   H     H_    0.451631 0.775208 0.880483 0.182008
H64   H     H_    0.364951 0.769987 0.732910 0.154058
O9    O     O_3   0.699146 0.401870 0.711776 -0.608438
C109  C     C_3   0.699155 0.389020 0.619267 -0.077972
H65   H     H_    0.769135 0.396581 0.636015 0.125347
H66   H     H_    0.643163 0.411322 0.543626 0.143521
H67   H     H_    0.682735 0.345141 0.600748 0.160510
O10   O     O_3   0.253504 0.596374 0.346980 -0.590539
C110  C     C_3   0.240625 0.595393 0.432347 -0.217840
H68   H     H_    0.308852 0.588205 0.514517 0.181467
H69   H     H_    0.187055 0.564880 0.417407 0.136199
H70   H     H_    0.214983 0.635882 0.435562 0.137444
O11   O     O_3   0.261178 0.403079 0.349182 -0.571163
C111  C     C_3   0.215352 0.397387 0.401082 -0.138042
H71   H     H_    0.139129 0.389708 0.337239 0.122382
H72   H     H_    0.226042 0.432718 0.453908 0.142812
H73   H     H_    0.244550 0.361175 0.456532 0.146648
O12   O     O_3   0.697752 0.596909 0.708965 -0.600387
C112  C     C_3   0.688645 0.609008 0.609704 -0.065035
H74   H     H_    0.618041 0.597190 0.536078 0.155692
H75   H     H_    0.744832 0.590640 0.606315 0.094878
H76   H     H_    0.692065 0.653659 0.602282 0.158490
O13   O     O_3   0.199146 0.901870 0.711776 -0.608438
C113  C     C_3   0.199155 0.889020 0.619267 -0.077972
H77   H     H_    0.269134 0.896581 0.636015 0.125347
H78   H     H_    0.143163 0.911322 0.543626 0.143521
H79   H     H_    0.182735 0.845141 0.600748 0.160510
O14   O     O_3   0.753504 0.096374 0.346980 -0.590539
C114  C     C_3   0.740625 0.095393 0.432347 -0.217840
H80   H     H_    0.808852 0.088205 0.514517 0.181467
H81   H     H_    0.687055 0.064880 0.417407 0.136199
H82   H     H_    0.714983 0.135882 0.435562 0.137444
O15   O     O_3   0.761178 0.903079 0.349182 -0.571163
C115  C     C_3   0.715353 0.897387 0.401083 -0.138041
H83   H     H_    0.639129 0.889709 0.337240 0.122382
H84   H     H_    0.726042 0.932718 0.453908 0.142812
H85   H     H_    0.744550 0.861174 0.456533 0.146648
O16   O     O_3   0.197752 0.096909 0.708965 -0.600387
C116  C     C_3   0.188645 0.109007 0.609704 -0.065036
H86   H     H_    0.118041 0.097189 0.536078 0.155692
H87   H     H_    0.244832 0.090640 0.606315 0.094878
H88   H     H_    0.192065 0.153658 0.602282 0.158490
O17   O     O_3   0.375322 0.493860 0.636871 -0.634740
C117  C     C_3   0.432326 0.490167 0.754144 -0.309546
H89   H     H_    0.479581 0.526155 0.793321 0.141391
H90   H     H_    0.474146 0.451989 0.783971 0.140423
H91   H     H_    0.385804 0.489210 0.781828 0.175201
O18   O     O_3   0.583323 0.503145 0.473119 -0.650097
C118  C     C_3   0.523864 0.507743 0.355932 -0.350526
H92   H     H_    0.483652 0.546468 0.328559 0.158290
H93   H     H_    0.474971 0.472471 0.317011 0.138232
H94   H     H_    0.568361 0.508102 0.325457 0.186055
O19   O     O_3   0.875322 0.993860 0.636871 -0.634740
C119  C     C_3   0.932326 0.990167 0.754144 -0.309547
H95   H     H_    0.979581 0.026156 0.793321 0.141391
H96   H     H_    0.974146 0.951989 0.783971 0.140423
H97   H     H_    0.885804 0.989210 0.781829 0.175201
O20   O     O_3   0.083323 0.003145 0.473119 -0.650097
C120  C     C_3   0.023864 0.007743 0.355932 -0.350524
H98   H     H_    0.983652 0.046468 0.328559 0.158289
H99   H     H_    0.974971 0.972471 0.317011 0.138231
H100  H     H_    0.068361 0.008102 0.325457 0.186054
O21   O     O_3   0.974244 0.208244 0.070665 -0.603794
C121  C     C_3   0.982306 0.159236 0.027946 -0.264057
H101  H     H_    0.921362 0.152194 0.939437 0.116646
H102  H     H_    0.991610 0.124343 0.081560 0.136584
H103  H     H_    0.046201 0.161515 0.029601 0.199768
O22   O     O_3   0.105084 0.751329 0.932287 -0.635723
C122  C     C_3   0.098524 0.802113 0.971258 -0.306453
H104  H     H_    0.078904 0.834337 0.908195 0.159269
H105  H     H_    0.164060 0.813531 0.053938 0.120898
H106  H     H_    0.042382 0.799546 0.983476 0.227752
O23   O     O_3   0.168248 0.245877 0.080158 -0.613184
C123  C     C_3   0.219673 0.221402 0.187154 -0.109079
H107  H     H_    0.292632 0.238068 0.244121 0.126231
H108  H     H_    0.221429 0.176572 0.180488 0.089805
H109  H     H_    0.182713 0.229891 0.225611 0.194643
O24   O     O_3   0.878463 0.781675 0.910271 -0.636092
C124  C     C_3   0.833938 0.814870 0.813833 -0.255287
H110  H     H_    0.843194 0.858521 0.836751 0.131051
H111  H     H_    0.757998 0.804203 0.752273 0.157758
H112  H     H_    0.869068 0.808346 0.772526 0.172843
O25   O     O_3   0.474243 0.708243 0.070665 -0.603794
C125  C     C_3   0.482306 0.659236 0.027946 -0.264057
H113  H     H_    0.421362 0.652194 0.939437 0.116646
H114  H     H_    0.491610 0.624343 0.081560 0.136584
H115  H     H_    0.546201 0.661515 0.029601 0.199768
O26   O     O_3   0.605084 0.251329 0.932287 -0.635723
C126  C     C_3   0.598524 0.302113 0.971258 -0.306453
H116  H     H_    0.578904 0.334337 0.908195 0.159269
H117  H     H_    0.664060 0.313531 0.053938 0.120898
H118  H     H_    0.542382 0.299546 0.983476 0.227752
O27   O     O_3   0.668248 0.745876 0.080158 -0.613184
C127  C     C_3   0.719673 0.721402 0.187154 -0.109078
H119  H     H_    0.792632 0.738068 0.244121 0.126231
H120  H     H_    0.721429 0.676572 0.180488 0.089804
H121  H     H_    0.682713 0.729891 0.225611 0.194642
O28   O     O_3   0.378463 0.281675 0.910271 -0.636092
C128  C     C_3   0.333938 0.314870 0.813833 -0.255287
H122  H     H_    0.343194 0.358521 0.836751 0.131051
H123  H     H_    0.257998 0.304204 0.752273 0.157758
H124  H     H_    0.369068 0.308346 0.772526 0.172843

loop_
_geom_bond_atom_site_label_1
_geom_bond_atom_site_label_2
_ccdc_geom_bond_type
N32   Ni5   S    
C10   C85   S    
C69   O13   S    
O23   C123  S    
N3    Ni3   S    
C64   N24   A    
C15   C32   A    
O25   C125  S    
C16   C31   A    
C63   N23   A    
C121  H101  S    
C72   N32   A    
C23   H27   S    
C93   H21   S    
C62   H14   S    
C58   C82   A    
C6    N6    A    
O19   C119  S    
C96   C99   S    
C18   O26   S    
C19   O27   S    
C104  H51   S    
C101  H41   S    
C38   C45   A    
C57   H9    S    
C119  H95   S    
C106  H58   S    
C59   H11   S    
C122  H105  S    
N31   Ni6   S    
C47   C83   S    
N29   Ni8   S    
C26   H30   S    
C97   O17   S    
C63   H15   S    
C67   O11   S    
C41   C43   A    
C42   C44   A    
C71   O15   S    
C113  H79   S    
C105  H53   S    
O3    C103  S    
C103  H49   S    
C13   C30   A    
C3    N3    A    
C1    O1    S    
O6    C106  S    
C27   C35   A    
C21   C29   A    
C17   C21   A    
O28   C128  S    
N25   Ni4   S    
C101  H43   S    
C23   C31   A    
N2    N11   A    
C128  H124  S    
C19   C23   A    
C24   C32   A    
C54   N14   A    
C30   C76   S    
C90   C92   S    
C110  H68   S    
C111  H72   S    
O26   C126  S    
C14   C26   A    
C94   C96   S    
N27   Ni2   S    
C94   H22   S    
O24   C124  S    
C100  O20   S    
N17   N20   A    
N18   N19   A    
C12   C93   S    
C17   C34   A    
C40   C46   A    
C5    C77   A    
N15   Ni8   S    
C7    C79   A    
C54   C79   A    
C114  H82   S    
C67   N27   A    
C4    O4    S    
N11   Ni4   S    
C58   H10   S    
C45   C81   S    
O4    C104  S    
C8    O8    S    
C9    C90   S    
C4    N4    A    
C20   O28   S    
C63   C84   A    
C123  H108  S    
C119  H97   S    
C38   H34   S    
C91   C98   S    
C71   C88   A    
N7    Ni7   S    
C107  H59   S    
N14   Ni5   S    
C55   H7    S    
C116  H87   S    
O2    C102  S    
C43   C47   A    
C44   C48   A    
C115  H83   S    
C38   C40   A    
C53   N13   A    
C59   C82   A    
C56   N16   A    
C55   N15   A    
C32   C74   S    
O17   C117  S    
C118  H94   S    
C6    C78   A    
N30   N31   A    
C127  H119  S    
N6    Ni6   S    
C11   C99   S    
O13   C113  S    
C56   H8    S    
C46   C82   S    
C20   C35   A    
C10   C89   S    
C89   C91   S    
C3    C75   A    
N22   Ni8   S    
C39   C45   A    
C93   C95   S    
C112  H74   S    
C68   C85   A    
C124  H111  S    
C92   C97   S    
C7    N7    A    
C125  H114  S    
C5    N5    A    
C53   C80   A    
C55   C78   A    
C109  H67   S    
C108  H62   S    
C28   H32   S    
C103  H48   S    
O9    C109  S    
C60   C81   A    
C113  H78   S    
C107  H61   S    
C94   C100  S    
N4    Ni4   S    
C69   N29   A    
C109  H66   S    
C115  H85   S    
C68   N28   A    
C110  H69   S    
C89   H17   S    
C57   C81   A    
C2    N2    A    
C71   N31   A    
C14   C29   A    
C72   C87   A    
N24   Ni6   S    
C95   H23   S    
C62   C84   A    
O14   C114  S    
C22   C30   A    
C18   C22   A    
C66   C86   A    
C7    O7    S    
C118  H92   S    
C117  H89   S    
C121  H102  S    
C127  H121  S    
N30   Ni7   S    
C116  H88   S    
C120  H99   S    
C92   H20   S    
C13   O21   S    
C98   O18   S    
C15   O23   S    
N29   N32   A    
C22   H26   S    
C91   H19   S    
C104  H50   S    
C18   C33   A    
C101  H42   S    
C6    O6    S    
C10   C92   S    
C53   H5    S    
N10   Ni1   S    
O20   C120  S    
C121  H103  S    
C119  H96   S    
O10   C110  S    
C120  H100  S    
C106  H57   S    
N8    N13   A    
N1    N12   A    
C25   C33   A    
C64   H16   S    
C42   H38   S    
C51   C74   A    
C117  H91   S    
C65   O9    S    
O15   C115  S    
C39   H35   S    
O1    C101  S    
C108  H64   S    
C40   H36   S    
N26   Ni3   S    
C105  H54   S    
C16   O24   S    
C90   H18   S    
C49   H1    S    
C51   H3    S    
C65   N25   A    
N9    Ni2   S    
C124  H110  S    
C128  H123  S    
C102  H46   S    
N13   Ni6   S    
N5    N16   A    
C59   N19   A    
N6    N15   A    
C105  H55   S    
N23   Ni5   S    
C93   C99   S    
C41   H37   S    
C69   C87   A    
C70   C88   A    
C44   H40   S    
C8    N8    A    
C72   O16   S    
C114  H81   S    
C54   H6    S    
C106  H56   S    
C61   C83   A    
C95   C100  S    
C33   C79   S    
C35   C77   S    
C126  H116  S    
C104  H52   S    
C64   C83   A    
C51   N11   A    
O7    C107  S    
C52   N12   A    
C66   O10   S    
C113  H77   S    
C122  H106  S    
C70   O14   S    
C11   C94   S    
C107  H60   S    
C50   H2    S    
C21   H25   S    
N21   N24   A    
C115  H84   S    
N22   N23   A    
C52   H4    S    
C67   C86   A    
C9    C97   S    
N20   Ni2   S    
C1    C73   A    
C126  H118  S    
C70   N30   A    
C102  H44   S    
C37   C39   A    
C50   C75   A    
C5    O5    S    
C118  H93   S    
C62   N22   A    
C111  H71   S    
C127  H120  S    
C12   C100  S    
C1    N1    A    
C28   C36   A    
C12   C96   S    
C37   C46   A    
C16   C28   A    
O27   C127  S    
C27   H31   S    
O5    C105  S    
C25   H29   S    
C9    C91   S    
N2    Ni2   S    
O12   C112  S    
C125  H115  S    
C61   N21   A    
C123  H107  S    
C14   O22   S    
C116  H86   S    
C19   C36   A    
O22   C122  S    
N16   Ni7   S    
C31   C73   S    
C99   O19   S    
C10   C98   S    
N7    N14   A    
C68   O12   S    
C34   C80   S    
C15   C27   A    
C26   C34   A    
N3    N10   A    
C20   C24   A    
C43   H39   S    
C2    C74   A    
N1    Ni1   S    
C13   C25   A    
C128  H122  S    
N28   Ni1   S    
C4    C76   A    
C96   H24   S    
O8    C108  S    
C52   C73   A    
C58   N18   A    
C117  H90   S    
O21   C121  S    
C111  H73   S    
C56   C77   A    
C48   C84   S    
C89   C97   S    
C126  H117  S    
C2    O2    S    
N4    N9    A    
C60   H12   S    
C3    O3    S    
C9    C86   S    
C50   N10   A    
C11   C88   S    
O16   C116  S    
C49   C76   A    
N17   Ni3   S    
N18   Ni4   S    
N25   N28   A    
C112  H75   S    
C122  H104  S    
C61   H13   S    
N26   N27   A    
C124  H112  S    
C37   H33   S    
C112  H76   S    
N21   Ni7   S    
C24   H28   S    
C11   C95   S    
C57   N17   A    
C125  H113  S    
C12   C87   S    
C123  H109  S    
C60   N20   A    
C66   N26   A    
C17   O25   S    
N8    Ni8   S    
C114  H80   S    
N12   Ni3   S    
C65   C85   A    
C29   C75   S    
C108  H63   S    
C49   N9    A    
C103  H47   S    
C36   C78   S    
C41   C48   A    
C42   C47   A    
C109  H65   S    
C102  H45   S    
O18   C118  S    
C110  H70   S    
N19   Ni1   S    
N5    Ni5   S    
O11   C111  S    
C8    C80   A    
C120  H98   S    
C90   C98   S    
