data_mof_unit_54930.cif
_audit_creation_date              2013-03-05T15:52:20-0500
_audit_creation_method            fapswitch 2.2
_symmetry_space_group_name_H-M    P1
_symmetry_Int_Tables_number       1
_space_group_crystal_system       triclinic
_cell_length_a                    14.802703
_cell_length_b                    15.511529
_cell_length_c                    9.881138
_cell_angle_alpha                 90.002078
_cell_angle_beta                  87.871721
_cell_angle_gamma                 90.001232
_cell_volume                      2267.26828622

loop_
_atom_site_label
_atom_site_type_symbol
_atom_site_description
_atom_site_fract_x
_atom_site_fract_y
_atom_site_fract_z
_atom_type_partial_charge
O1    O     O_R   0.408390 0.908380 0.614690 -0.669159
O2    O     O_R   0.408390 0.091620 0.614690 -0.669172
O3    O     O_R   0.908390 0.408380 0.614690 -0.669246
O4    O     O_R   0.908390 0.591620 0.614690 -0.669233
O5    O     O_R   0.408370 0.908380 0.385360 -0.580639
O6    O     O_R   0.408370 0.091620 0.385360 -0.580630
O7    O     O_R   0.908370 0.408380 0.385360 -0.579380
O8    O     O_R   0.908370 0.591620 0.385360 -0.579333
C1    C     C_R   0.386942 0.873843 0.501953 0.914517
C2    C     C_R   0.386934 0.126152 0.501958 0.914568
C3    C     C_R   0.886272 0.374268 0.502012 0.914722
C4    C     C_R   0.886265 0.625729 0.502014 0.914666
Zn1   Zn    Zn3+2 0.500010 0.000000 0.653130 0.918460
Zn2   Zn    Zn3+2 0.000010 0.500000 0.653130 0.916830
Zn3   Zn    Zn3+2 0.499980 0.000000 0.346870 1.003770
Zn4   Zn    Zn3+2 0.999980 0.500000 0.346870 1.002101
O9    O     O_R   0.591620 0.091610 0.614640 -0.628295
O10   O     O_R   0.591620 0.908390 0.614640 -0.628318
O11   O     O_R   0.091620 0.591610 0.614640 -0.628170
O12   O     O_R   0.091620 0.408390 0.614640 -0.628180
O13   O     O_R   0.591610 0.091610 0.385310 -0.613388
O14   O     O_R   0.591610 0.908390 0.385310 -0.613243
O15   O     O_R   0.091610 0.591610 0.385310 -0.618927
O16   O     O_R   0.091610 0.408390 0.385310 -0.618898
C5    C     C_R   0.613794 0.125330 0.499309 0.909414
C6    C     C_R   0.613776 0.874656 0.499310 0.909440
C7    C     C_R   0.114894 0.624538 0.499261 0.904874
C8    C     C_R   0.114890 0.375460 0.499259 0.904888
C9    C     C_R   0.313147 0.206927 0.762026 -0.136158
C10   C     C_R   0.313220 0.793016 0.762009 -0.136083
C11   C     C_R   0.810960 0.705513 0.762087 -0.130228
C12   C     C_R   0.810934 0.294542 0.762093 -0.130237
H1    H     H_    0.383010 0.191686 0.778870 0.170579
H2    H     H_    0.383090 0.808248 0.778822 0.170523
H3    H     H_    0.880841 0.690459 0.778958 0.170129
H4    H     H_    0.880815 0.309594 0.778995 0.170135
C13   C     C_R   0.256036 0.215181 0.876773 -0.119609
C14   C     C_R   0.256127 0.784749 0.876773 -0.119623
C15   C     C_R   0.754153 0.714153 0.877072 -0.113159
C16   C     C_R   0.754100 0.285939 0.877054 -0.113158
H5    H     H_    0.280940 0.201358 0.976043 0.198482
H6    H     H_    0.281055 0.798526 0.976043 0.198527
H7    H     H_    0.779277 0.700482 0.976218 0.198739
H8    H     H_    0.779206 0.299629 0.976208 0.198581
C17   C     C_R   0.664460 0.737814 0.863749 -0.157132
C18   C     C_R   0.664405 0.262276 0.863692 -0.157012
C19   C     C_R   0.166160 0.238117 0.862838 -0.149937
C20   C     C_R   0.166240 0.761842 0.862859 -0.149924
H9    H     H_    0.619034 0.740769 0.952058 0.177217
H10   H     H_    0.618957 0.259340 0.951980 0.177236
H11   H     H_    0.120367 0.240371 0.950776 0.180805
H12   H     H_    0.120461 0.759577 0.950812 0.180758
C21   C     C_R   0.634166 0.760632 0.736936 -0.126627
C22   C     C_R   0.634139 0.239412 0.736877 -0.126675
C23   C     C_R   0.136129 0.261061 0.735836 -0.136185
C24   C     C_R   0.136184 0.738918 0.735860 -0.136198
H13   H     H_    0.563889 0.778735 0.730101 0.151205
H14   H     H_    0.563862 0.221273 0.730044 0.151225
H15   H     H_    0.065693 0.278470 0.728628 0.154623
H16   H     H_    0.065742 0.721513 0.728672 0.154629
C25   C     C_R   0.694229 0.760705 0.621771 0.102568
C26   C     C_R   0.694235 0.239304 0.621740 0.102540
C27   C     C_R   0.196741 0.262319 0.621216 0.100215
C28   C     C_R   0.196778 0.737662 0.621222 0.100190
C29   C     C_R   0.280914 0.222628 0.630712 0.039459
C30   C     C_R   0.280958 0.777341 0.630704 0.039469
C31   C     C_R   0.778452 0.720847 0.630819 0.041322
C32   C     C_R   0.778454 0.279169 0.630815 0.041343
C33   C     C_R   0.329087 0.201416 0.508034 -0.220891
C34   C     C_R   0.329110 0.798567 0.508020 -0.220883
C35   C     C_R   0.826537 0.699546 0.507879 -0.222728
C36   C     C_R   0.826572 0.300431 0.507891 -0.222724
C37   C     C_R   0.308867 0.243361 0.386367 0.400144
C38   C     C_R   0.308872 0.756632 0.386350 0.400167
C39   C     C_R   0.804166 0.739155 0.385359 0.400203
C40   C     C_R   0.804277 0.260740 0.385401 0.400155
H17   H     H_    0.713998 0.821248 0.288497 0.188305
H18   H     H_    0.714213 0.178486 0.288573 0.188376
H19   H     H_    0.222234 0.331301 0.291711 0.196931
H20   H     H_    0.222226 0.668694 0.291699 0.196935
C41   C     C_R   0.728574 0.789714 0.382433 -0.215194
C42   C     C_R   0.728711 0.210135 0.382466 -0.215351
C43   C     C_R   0.234479 0.295916 0.383812 -0.220954
C44   C     C_R   0.234483 0.704076 0.383804 -0.220996
C45   C     C_R   0.674903 0.802641 0.499298 -0.184715
C46   C     C_R   0.674960 0.197309 0.499287 -0.184598
C47   C     C_R   0.178315 0.305486 0.499224 -0.177030
C48   C     C_R   0.178329 0.694505 0.499227 -0.177066
C49   C     C_R   0.334403 0.000019 0.148151 -0.170726
C50   C     C_R   0.834501 0.500014 0.148501 -0.162434
H21   H     H_    0.329012 0.000006 0.255727 0.233578
H22   H     H_    0.829009 0.500001 0.256047 0.231821
C51   C     C_R   0.252655 0.000031 0.082326 0.380240
C52   C     C_R   0.752873 0.500037 0.082716 0.376308
C53   C     C_R   0.252780 0.000024 0.940519 0.097723
C54   C     C_R   0.752781 0.500042 0.941365 0.080728
C55   C     C_R   0.335496 0.000010 0.867673 -0.245424
C56   C     C_R   0.835360 0.500019 0.867841 -0.238078
H23   H     H_    0.332397 0.999999 0.760212 0.244564
H24   H     H_    0.832424 0.500011 0.760430 0.239237
C57   C     C_R   0.418651 0.000009 0.931985 0.081909
C58   C     C_R   0.918621 0.500009 0.932027 0.080969
C59   C     C_R   0.418453 0.000014 0.076464 0.120483
C60   C     C_R   0.918473 0.500008 0.076569 0.121759
N1    N     N_R   0.498810 1.000000 0.142780 -0.093249
N2    N     N_R   0.998810 0.500000 0.142780 -0.093989
C61   C     C_R   0.578547 0.999983 0.064875 0.214436
C62   C     C_R   0.078570 0.499992 0.065120 0.233664
H25   H     H_    0.640060 0.999983 0.861423 0.164652
H26   H     H_    0.140495 0.499985 0.862555 0.169884
C63   C     C_R   0.577552 0.000005 0.921894 -0.095155
C64   C     C_R   0.077614 0.499991 0.922215 -0.102012
N3    N     N_R   0.498740 0.000000 0.857170 -0.135926
N4    N     N_R   0.998740 0.500000 0.857170 -0.135364
Cl1   Cl    Cl    0.378316 0.239107 0.236934 -0.630416
Cl2   Cl    Cl    0.378296 0.760904 0.236901 -0.630514
Cl3   Cl    Cl    0.872398 0.735179 0.234544 -0.631043
Cl4   Cl    Cl    0.872590 0.264672 0.234672 -0.630827
C65   C     C_3   0.167122 0.000023 0.862422 -0.787920
H27   H     H_    0.104987 0.000043 0.928319 0.287681
H28   H     H_    0.165514 0.057817 0.796493 0.242171
H29   H     H_    0.165493 0.942207 0.796536 0.242168
C66   C     C_3   0.665272 0.500068 0.868297 -0.747112
H30   H     H_    0.676857 0.500070 0.756569 0.222710
H31   H     H_    0.625221 0.441961 0.896687 0.262798
H32   H     H_    0.625260 0.558197 0.896700 0.262809
C67   C     C_3   0.669375 0.999805 0.126787 -0.779760
H33   H     H_    0.725352 0.999981 0.048695 0.211137
H34   H     H_    0.678124 0.057920 0.187870 0.251216
H35   H     H_    0.678020 0.941326 0.187049 0.250844
C68   C     C_3   0.170236 0.499984 0.125027 -0.828532
H36   H     H_    0.168477 0.499998 0.235543 0.286075
H37   H     H_    0.208187 0.441794 0.090274 0.227764
H38   H     H_    0.208213 0.558155 0.090250 0.227744
Cl5   Cl    Cl    0.151871 0.000046 0.183051 -0.593956
Cl6   Cl    Cl    0.651300 0.500060 0.181492 -0.589315

loop_
_geom_bond_atom_site_label_1
_geom_bond_atom_site_label_2
_geom_bond_distance
_ccdc_geom_bond_type
C43   C47   1.394029 A    
C27   C29   1.396082 A    
C23   H15   1.081960 S    
C57   N3    1.373641 A    
C39   Cl3   1.770002 S    
H20   C44   1.083803 S    
C68   H38   1.110836 S    
C60   N2    1.378413 A    
C66   H30   1.110926 S    
C12   C32   1.420203 A    
C11   C31   1.420184 A    
N1    C61   1.385013 A    
Zn1   O10   1.991130 S    
C13   H5    1.082092 S    
C12   H4    1.079480 S    
C23   C27   1.418670 A    
C14   H6    1.082057 S    
H25   C63   1.082649 S    
C58   C60   1.428156 A    
C66   H31   1.109155 S    
C9    H1    1.079757 S    
C10   C14   1.394801 A    
O8    Zn4   1.991241 S    
O2    Zn1   2.010401 S    
C25   C31   1.397454 A    
C62   C68   1.500413 S    
O6    Zn3   1.991241 S    
C21   C25   1.417854 A    
Zn3   O14   2.010393 S    
Zn1   N3    2.015537 S    
H19   C43   1.083806 S    
O10   C6    1.285401 A    
C34   C38   1.408881 A    
C52   Cl6   1.761907 S    
C24   C28   1.418653 A    
C33   C37   1.408898 A    
O15   C7    1.294703 A    
O4    C4    1.286047 A    
O11   C7    1.284600 A    
C16   H8    1.081744 S    
C14   C20   1.388936 A    
Zn4   N2    2.017359 S    
C15   C17   1.388465 A    
C17   C21   1.392222 A    
Zn4   O16   2.010393 S    
C49   C59   1.408643 A    
O4    Zn2   2.010401 S    
C64   N4    1.353505 A    
C55   H23   1.064526 S    
C41   C45   1.391669 A    
C50   C52   1.393163 A    
C65   H28   1.108965 S    
C10   H2    1.079751 S    
Zn2   O12   1.991130 S    
O1    C1    1.286446 A    
C1    C34   1.447748 S    
C63   N3    1.351099 A    
C40   C42   1.367697 A    
C21   H13   1.082057 S    
C3    C36   1.446465 S    
C39   C41   1.367625 A    
C66   H32   1.109154 S    
C19   H11   1.082579 S    
O12   C8    1.284595 A    
C53   C65   1.508620 S    
C42   C46   1.391729 A    
C40   Cl4   1.769928 S    
C24   H16   1.081981 S    
C54   C56   1.398595 A    
C32   C36   1.423785 A    
C28   C30   1.396063 A    
O7    C3    1.299089 A    
C67   H34   1.095197 S    
O5    C1    1.299143 A    
C58   N4    1.374228 A    
C26   C46   1.412570 A    
H18   C42   1.078227 S    
C50   H22   1.062767 S    
C17   H9    1.082633 S    
O8    C4    1.299075 A    
C38   Cl2   1.768749 S    
C18   C22   1.392244 A    
C8    C47   1.435125 S    
C36   C40   1.408016 A    
C59   N1    1.379198 A    
C52   C54   1.396752 A    
C50   C60   1.408781 A    
C10   C30   1.420048 A    
O3    Zn2   2.010342 S    
C25   C45   1.412537 A    
C9    C29   1.420065 A    
O7    Zn4   1.991220 S    
C4    C35   1.446497 S    
Zn4   O15   2.010331 S    
C56   H24   1.063842 S    
C11   H3    1.079447 S    
Zn3   O13   2.010331 S    
C13   C19   1.388946 A    
C16   C18   1.388526 A    
C68   H36   1.091366 S    
O2    C2    1.286446 A    
C19   C23   1.393053 A    
C22   H14   1.082200 S    
C65   H29   1.108970 S    
C20   C24   1.393054 A    
O13   C5    1.295263 A    
C28   C48   1.414282 A    
C54   C66   1.506227 S    
C27   C47   1.414297 A    
C61   C63   1.413433 A    
Zn2   O11   1.991107 S    
O16   C8    1.294716 A    
C38   C44   1.371059 A    
C68   H37   1.110812 S    
O6    C2    1.299150 A    
C15   H7    1.081721 S    
C65   H27   1.107007 S    
C53   C55   1.397093 A    
C51   Cl5   1.762381 S    
Zn2   N4    2.015537 S    
C22   C26   1.417930 A    
C18   H10   1.082647 S    
C37   Cl1   1.768816 S    
C57   C59   1.427511 A    
C26   C32   1.397451 A    
O9    C5    1.285409 A    
Zn3   N1    2.017359 S    
C67   H35   1.095214 S    
C61   C67   1.497671 S    
C56   C58   1.406898 A    
C35   C39   1.408059 A    
C30   C34   1.421927 A    
C44   C48   1.394036 A    
N2    C62   1.384027 A    
C6    C45   1.437570 S    
C29   C33   1.421968 A    
C49   H21   1.063005 S    
C5    C46   1.437466 S    
C11   C15   1.394631 A    
C31   C35   1.423825 A    
C12   C16   1.394629 A    
C49   C51   1.394925 A    
C7    C48   1.435116 S    
H26   C64   1.083137 S    
O5    Zn3   1.991220 S    
O3    C3    1.286009 A    
Zn1   O9    1.991107 S    
C2    C33   1.447764 S    
C62   C64   1.412664 A    
C20   H12   1.082595 S    
O1    Zn1   2.010342 S    
C51   C53   1.401141 A    
H17   C41   1.078083 S    
O14   C6    1.295319 A    
C9    C13   1.394799 A    
C37   C43   1.371065 A    
C55   C57   1.406092 A    
C67   H33   1.111098 S    
