data_mof_unit_12686.cif
_audit_creation_date              2012-12-11T15:16:46-0500
_audit_creation_method            fapswitch 2.2
_symmetry_space_group_name_H-M    P1
_symmetry_Int_Tables_number       1
_space_group_crystal_system       triclinic
_cell_length_a                    25.119975
_cell_length_b                    7.233232
_cell_length_c                    21.920245
_cell_angle_alpha                 89.999946
_cell_angle_beta                  110.226682
_cell_angle_gamma                 89.998042
_cell_volume                      3737.2623359

loop_
_atom_site_label
_atom_site_type_symbol
_atom_type_description
_atom_site_fract_x
_atom_site_fract_y
_atom_site_fract_z
_atom_type_partial_charge
O1    O     O_R   0.554350 0.505270 0.581390 -0.531722
O2    O     O_R   0.445650 0.005270 0.418610 -0.531711
O3    O     O_R   0.553380 0.177580 0.454800 -0.540486
O4    O     O_R   0.446620 0.677580 0.545200 -0.540489
C1    C     C_R   0.565874 0.344560 0.438305 0.677386
C2    C     C_R   0.434127 0.844563 0.561695 0.677377
O5    O     O_R   0.560970 0.175640 0.583140 -0.532238
O6    O     O_R   0.439030 0.675640 0.416860 -0.532241
O7    O     O_R   0.453290 0.004120 0.547860 -0.538971
O8    O     O_R   0.546710 0.504120 0.452140 -0.538979
C3    C     C_R   0.576083 0.343892 0.607558 0.678288
C4    C     C_R   0.423918 0.843898 0.392442 0.678297
O9    O     O_3   0.464660 0.338800 0.488280 -0.372650
O10   O     O_3   0.535340 0.838800 0.511720 -0.372658
V1    V     V_3+5 0.506560 0.064420 0.502170 1.418451
V2    V     V_3+5 0.493440 0.564420 0.497830 1.418427
C5    C     C_R   0.148040 0.983918 0.288915 0.644979
C6    C     C_R   0.851932 0.484482 0.711103 0.644964
H1    H     H_    0.062847 0.011188 0.222101 0.145597
H2    H     H_    0.937123 0.511775 0.777918 0.145605
H3    H     H_    0.234468 0.981850 0.401576 0.191872
H4    H     H_    0.765494 0.482664 0.598452 0.191863
C7    C     C_R   0.120737 0.942609 0.172479 -0.126375
C8    C     C_R   0.879261 0.442659 0.827520 -0.126387
C9    C     C_R   0.396514 0.812289 0.273841 -0.160835
C10   C     C_R   0.603504 0.311944 0.726150 -0.160814
C11   C     C_R   0.357057 0.808948 0.211108 -0.119964
C12   C     C_R   0.642968 0.308452 0.788877 -0.119972
C13   C     C_R   0.299771 0.841234 0.199993 -0.154414
C14   C     C_R   0.700248 0.340862 0.799995 -0.154413
C15   C     C_R   0.280167 0.878577 0.251977 0.112993
C16   C     C_R   0.719837 0.378497 0.748020 0.112997
C17   C     C_R   0.321225 0.883773 0.316497 0.072950
C18   C     C_R   0.678770 0.383871 0.683507 0.072953
C19   C     C_R   0.221299 0.910596 0.242054 0.006200
C20   C     C_R   0.778699 0.410641 0.757946 0.006199
C21   C     C_R   0.205225 0.949058 0.296960 -0.003841
C22   C     C_R   0.794757 0.449443 0.703052 -0.003818
C23   C     C_R   0.246277 0.953176 0.359430 -0.122337
C24   C     C_R   0.753696 0.453732 0.640589 -0.122336
C25   C     C_R   0.303140 0.920731 0.369101 -0.214494
C26   C     C_R   0.696841 0.421137 0.630913 -0.214517
C27   C     C_R   0.177650 0.906652 0.179708 -0.221266
C28   C     C_R   0.822357 0.406514 0.820285 -0.221272
C29   C     C_R   0.106492 0.981835 0.227232 -0.229047
C30   C     C_R   0.893487 0.482246 0.772780 -0.229019
C31   C     C_R   0.379600 0.849908 0.326971 -0.080548
C32   C     C_R   0.620403 0.349861 0.673029 -0.080572
H5    H     H_    0.186377 0.878594 0.135816 0.111501
H6    H     H_    0.813643 0.378192 0.864168 0.111520
H7    H     H_    0.440703 0.784937 0.281065 0.107974
H8    H     H_    0.559322 0.284464 0.718922 0.107983
H9    H     H_    0.271955 0.835785 0.150056 0.109714
H10   H     H_    0.728070 0.335277 0.849928 0.109711
H11   H     H_    0.370987 0.780083 0.170534 0.126193
H12   H     H_    0.629050 0.279356 0.829445 0.126192
H13   H     H_    0.332988 0.925269 0.418453 0.115121
H14   H     H_    0.666986 0.425816 0.581566 0.115169
C33   C     C_R   0.120648 0.765339 0.881502 -0.152833
C34   C     C_R   0.879331 0.265346 0.118470 -0.152844
H15   H     H_    0.105383 0.637333 0.895118 0.124254
H16   H     H_    0.894581 0.137339 0.104834 0.124253
C35   C     C_R   0.156419 0.755506 0.844757 -0.127826
C36   C     C_R   0.843560 0.255512 0.155215 -0.127831
H17   H     H_    0.167495 0.620538 0.831393 0.136416
H18   H     H_    0.832469 0.120543 0.168558 0.136409
C37   C     C_R   0.177367 0.917186 0.825392 0.019511
C38   C     C_R   0.822632 0.417193 0.174607 0.019508
C39   C     C_R   0.161705 0.089147 0.844137 -0.125704
C40   C     C_R   0.838313 0.589156 0.155888 -0.125691
H19   H     H_    0.176961 0.216747 0.830226 0.140069
H20   H     H_    0.823072 0.716756 0.169819 0.140075
C41   C     C_R   0.125911 0.099085 0.880958 -0.152486
C42   C     C_R   0.874107 0.599094 0.119066 -0.152474
H21   H     H_    0.114701 0.234120 0.894112 0.122158
H22   H     H_    0.885332 0.734129 0.105933 0.122154
C43   C     C_R   0.104714 0.937265 0.900091 -0.046939
C44   C     C_R   0.895285 0.437272 0.099908 -0.046940
N1    N     N_R   0.235216 0.062000 0.766655 -0.274659
N2    N     N_R   0.764813 0.562005 0.233384 -0.274642
N3    N     N_R   0.268852 0.051980 0.731151 -0.278319
N4    N     N_R   0.731178 0.551981 0.268889 -0.278310
C45   C     C_R   0.283907 0.885735 0.713078 0.520550
C46   C     C_R   0.716093 0.385732 0.286923 0.520548
N5    N     N_R   0.263757 0.729943 0.732190 -0.274123
N6    N     N_R   0.736212 0.229938 0.267769 -0.274129
N7    N     N_R   0.230121 0.739963 0.767692 -0.277723
N8    N     N_R   0.769848 0.239963 0.232267 -0.277737
C47   C     C_R   0.215076 0.906202 0.785778 0.520398
C48   C     C_R   0.784923 0.406206 0.214220 0.520398
C49   C     C_R   0.337580 0.702665 0.655116 -0.125527
C50   C     C_R   0.662374 0.202653 0.344825 -0.125536
H23   H     H_    0.322320 0.575093 0.669041 0.140577
H24   H     H_    0.677596 0.075081 0.330851 0.140562
C51   C     C_R   0.373615 0.692622 0.618595 -0.153681
C52   C     C_R   0.626340 0.192611 0.381347 -0.153655
H25   H     H_    0.384999 0.557576 0.605644 0.122144
H26   H     H_    0.614917 0.057563 0.394248 0.122116
C53   C     C_R   0.394870 0.854392 0.599531 -0.049890
C54   C     C_R   0.605131 0.354384 0.400471 -0.049878
C55   C     C_R   0.378677 0.026389 0.617742 -0.158414
C56   C     C_R   0.621372 0.526383 0.382321 -0.158438
H27   H     H_    0.393950 0.154307 0.604069 0.123931
H28   H     H_    0.606138 0.654303 0.396043 0.123943
C57   C     C_R   0.342665 0.036343 0.654193 -0.128805
C58   C     C_R   0.657384 0.536337 0.345869 -0.128785
H29   H     H_    0.331420 0.171355 0.667329 0.135863
H30   H     H_    0.668667 0.671351 0.332782 0.135873
C59   C     C_R   0.321727 0.874695 0.673600 0.020369
C60   C     C_R   0.678274 0.374688 0.326401 0.020365
O11   O     O_R   0.953220 0.285790 0.047790 -0.538442
O12   O     O_R   0.046780 0.785790 0.952210 -0.538443
O13   O     O_R   0.939020 0.617570 0.916840 -0.533570
O14   O     O_R   0.060980 0.117570 0.083160 -0.533561
C61   C     C_R   0.923962 0.448744 0.892451 0.717168
C62   C     C_R   0.076037 0.948737 0.107549 0.717172
O15   O     O_R   0.946600 0.615450 0.045180 -0.541716
O16   O     O_R   0.053400 0.115450 0.954820 -0.541714
O17   O     O_R   0.054370 0.786770 0.081410 -0.530006
O18   O     O_R   0.945630 0.286770 0.918590 -0.530003
C63   C     C_R   0.934274 0.446966 0.061693 0.678496
C64   C     C_R   0.065726 0.946963 0.938306 0.678494
O19   O     O_3   0.035300 0.454160 0.011680 -0.375100
O20   O     O_3   0.964700 0.954160 0.988320 -0.375105
V3    V     V_3+5 0.993450 0.728620 0.997830 1.419831
V4    V     V_3+5 0.006550 0.228620 0.002170 1.419838
F1    F     F_    0.132236 0.021768 0.340925 -0.666020
F2    F     F_    0.867719 0.522694 0.659107 -0.666034

loop_
_geom_bond_atom_site_label_1
_geom_bond_atom_site_label_2
_ccdc_geom_bond_type
C22   C24   A    
C35   H17   S    
C7    C29   A    
C11   C13   A    
O1    C3    A    
C50   C52   A    
O2    C4    A    
C33   C43   A    
C2    O7    A    
C12   H12   S    
C23   C25   A    
O5    C3    A    
C57   H29   S    
C34   C44   A    
C42   H22   S    
C16   C20   A    
C19   C21   A    
C46   N6    A    
O14   V4    S    
N6    N8    A    
O11   C63   A    
C51   C53   A    
C37   C47   S    
C7    C27   A    
C34   H16   S    
O16   C64   A    
C39   H19   S    
C44   C63   S    
O15   C63   A    
C43   C64   S    
C6    F2    S    
C7    C62   S    
C18   C26   A    
C52   H26   S    
C40   C42   A    
C38   C48   S    
C45   C59   S    
C39   C41   A    
C19   C27   A    
C9    C31   A    
C10   C32   A    
C58   H30   S    
O5    V1    S    
C55   H27   S    
C13   C15   A    
C41   H21   S    
C26   H14   S    
C3    C32   S    
C4    C31   S    
C6    C30   A    
C50   H24   S    
N3    C45   A    
N5    N7    A    
C55   C57   A    
C35   C37   A    
C33   H15   S    
N2    N4    A    
N1    N3    A    
C5    F1    S    
O19   V4    S    
C49   C51   A    
C46   C60   S    
H1    C29   S    
C37   C39   A    
C36   H18   S    
O4    V2    S    
C9    H7    S    
O12   C64   A    
C10   H8    S    
C49   H23   S    
C14   H10   S    
H3    C23   S    
C1    C54   S    
O6    C4    A    
H4    C24   S    
O11   V4    S    
C15   C17   A    
O1    V2    S    
C5    C21   A    
C56   H28   S    
O2    V1    S    
O12   V3    S    
O17   V3    S    
O4    C2    A    
C53   C55   A    
N8    C48   A    
N4    C46   A    
N7    C47   A    
C17   C31   A    
C15   C19   A    
C20   C28   A    
C18   C32   A    
C36   C38   A    
O3    V1    S    
C54   C56   A    
C58   C60   A    
C28   H6    S    
C57   C59   A    
C45   N5    A    
O7    V1    S    
C10   C12   A    
C27   H5    S    
C5    C29   A    
O3    C1    A    
O14   C62   A    
C51   H25   S    
C9    C11   A    
C11   H11   S    
C33   C35   A    
C62   O17   A    
C34   C36   A    
C17   C25   A    
C2    C53   S    
C49   C59   A    
C20   C22   A    
C6    C22   A    
C8    C30   A    
C1    O8    A    
C21   C23   A    
O8    V2    S    
C14   C16   A    
C50   C60   A    
C13   H9    S    
C8    C28   A    
C52   C54   A    
C24   C26   A    
C12   C14   A    
C56   C58   A    
O18   V4    S    
N2    C48   A    
N1    C47   A    
C25   H13   S    
O13   V3    S    
C8    C61   S    
O6    V2    S    
C61   O18   A    
C42   C44   A    
O9    V2    S    
C38   C40   A    
C41   C43   A    
O10   V1    S    
C40   H20   S    
O16   V4    S    
O15   V3    S    
H2    C30   S    
C16   C18   A    
O20   V3    S    
O13   C61   A    
