data_mof_unit_62785.cif
_audit_creation_date              2012-12-10T19:48:19-0500
_audit_creation_method            fapswitch 2.2
_symmetry_space_group_name_H-M    P1
_symmetry_Int_Tables_number       1
_space_group_crystal_system       triclinic
_cell_length_a                    18.267739
_cell_length_b                    18.267739
_cell_length_c                    30.162576
_cell_angle_alpha                 90.000014
_cell_angle_beta                  90.000014
_cell_angle_gamma                 90.0
_cell_volume                      10065.561929

loop_
_atom_site_label
_atom_site_type_symbol
_atom_type_description
_atom_site_fract_x
_atom_site_fract_y
_atom_site_fract_z
_atom_type_partial_charge
C1    C     C_R   0.141262 0.500000 0.000000 0.931475
C2    C     C_1   0.500000 0.217777 1.000000 -0.179726
C3    C     C_R   0.094527 0.595937 0.773260 -0.060230
C4    C     C_R   0.404063 0.905473 0.226740 -0.060230
C5    C     C_R   0.905473 0.595937 0.226740 -0.060230
C6    C     C_R   0.595937 0.094526 0.226740 -0.060230
C7    C     C_R   0.094527 0.404062 0.226740 -0.060230
C8    C     C_1   0.854234 0.642795 0.296874 0.179672
C9    C     C_1   0.357205 0.854234 0.296874 0.179671
C10   C     C_1   0.145766 0.357205 0.296874 0.179671
C11   C     C_1   0.642795 0.145766 0.296874 0.179671
C12   C     C_1   0.854234 0.357205 0.703125 0.179671
C13   C     C_1   0.782223 0.500000 0.000000 -0.179726
C14   C     C_1   0.357205 0.145766 0.703126 0.179672
C15   C     C_1   0.145766 0.642795 0.703126 0.179671
C16   C     C_1   0.642795 0.854234 0.703126 0.179671
C17   C     C_1   0.354234 0.142795 0.796874 0.179672
C18   C     C_1   0.857205 0.354234 0.796874 0.179671
C19   C     C_1   0.645766 0.857205 0.796874 0.179671
C20   C     C_1   0.142795 0.645765 0.796874 0.179671
C21   C     C_1   0.354234 0.857205 0.203125 0.179671
C22   C     C_1   0.857205 0.645766 0.203126 0.179672
C23   C     C_1   0.645766 0.142795 0.203126 0.179671
C24   C     C_1   0.500000 0.782223 0.000000 -0.179726
C25   C     C_1   0.142795 0.354234 0.203126 0.179671
C26   C     C_1   0.717777 1.000000 0.500000 -0.179726
C27   C     C_1   1.000000 0.717777 0.500000 -0.179726
C28   C     C_1   0.282223 0.000000 0.500000 -0.179726
C29   C     C_1   0.000000 0.282223 0.500000 -0.179726
C30   C     C_R   1.000000 0.500000 0.086881 0.885266
C31   C     C_R   0.500000 1.000000 0.086881 0.885266
C32   C     C_R   0.000000 0.500000 0.913119 0.885267
C33   C     C_R   0.500000 0.141262 0.000000 0.931475
C34   C     C_R   0.500000 0.000000 0.913119 0.885267
C35   C     C_R   0.500000 0.000000 0.586881 0.885266
C36   C     C_R   0.000000 0.500000 0.586881 0.885266
C37   C     C_R   0.500000 0.000000 0.413119 0.885267
C38   C     C_R   0.000000 0.500000 0.413119 0.885267
C39   C     C_1   0.282585 0.500000 1.000000 -0.169437
C40   C     C_1   0.500000 0.282585 1.000000 -0.169437
C41   C     C_1   0.717414 0.500000 0.000000 -0.169437
C42   C     C_1   0.500000 0.717414 0.000000 -0.169437
C43   C     C_1   0.782585 1.000000 0.500000 -0.169437
C44   C     C_R   0.858738 0.500000 0.000000 0.931476
C45   C     C_1   1.000000 0.782585 0.500000 -0.169437
C46   C     C_1   0.217414 0.000000 0.500000 -0.169437
C47   C     C_1   0.000000 0.217414 0.500000 -0.169437
C48   C     C_R   0.500000 0.359105 0.000000 0.919960
C49   C     C_R   0.640895 0.500000 0.000000 0.919960
C50   C     C_R   0.500000 0.640895 0.000000 0.919960
C51   C     C_R   0.359105 0.500000 0.000000 0.919960
C52   C     C_R   0.000000 0.859105 0.500000 0.919960
C53   C     C_R   0.140895 0.000000 0.500000 0.919960
C54   C     C_R   0.000000 0.140895 0.500000 0.919960
C55   C     C_R   0.500000 0.858738 0.000000 0.931476
C56   C     C_R   0.859105 0.000000 0.500000 0.919960
C57   C     C_R   0.048748 0.455166 0.342826 -0.223792
C58   C     C_R   0.544834 0.048748 0.342826 -0.223792
C59   C     C_R   0.951252 0.544834 0.342826 -0.223792
C60   C     C_R   0.455166 0.951252 0.342826 -0.223792
C61   C     C_R   0.048748 0.544834 0.657174 -0.223792
C62   C     C_R   0.544834 0.951252 0.657174 -0.223792
C63   C     C_R   0.951252 0.455166 0.657174 -0.223791
C64   C     C_R   0.455166 0.048748 0.657174 -0.223792
C65   C     C_R   0.548748 0.955166 0.842826 -0.223792
C66   C     C_R   0.641262 0.000000 0.500000 0.931475
C67   C     C_R   0.044834 0.548748 0.842826 -0.223792
C68   C     C_R   0.451252 0.044834 0.842826 -0.223792
C69   C     C_R   0.955166 0.451252 0.842826 -0.223792
C70   C     C_R   0.548748 0.044834 0.157174 -0.223792
C71   C     C_R   0.044834 0.451252 0.157174 -0.223792
C72   C     C_R   0.451252 0.955166 0.157174 -0.223791
C73   C     C_R   0.955166 0.548748 0.157174 -0.223792
C74   C     C_R   1.000000 0.500000 0.365404 -0.067208
C75   C     C_R   0.500000 1.000000 0.365404 -0.067207
C76   C     C_R   0.000000 0.500000 0.634595 -0.067207
C77   C     C_R   0.000000 0.641262 0.500000 0.931475
C78   C     C_R   0.500000 0.000000 0.634595 -0.067208
C79   C     C_R   0.500000 1.000000 0.865404 -0.067208
C80   C     C_R   0.000000 0.500000 0.865404 -0.067207
C81   C     C_R   0.500000 1.000000 0.134596 -0.067207
C82   C     C_R   0.000000 0.500000 0.134596 -0.067208
C83   C     C_R   0.951310 0.546811 0.296516 0.063776
C84   C     C_R   0.453189 0.951310 0.296516 0.063776
C85   C     C_R   0.048689 0.453188 0.296516 0.063776
C86   C     C_R   0.546811 0.048689 0.296516 0.063776
C87   C     C_R   0.951310 0.453188 0.703484 0.063776
C88   C     C_R   0.358738 0.000000 0.500000 0.931476
C89   C     C_R   0.453189 0.048690 0.703484 0.063776
C90   C     C_R   0.048690 0.546811 0.703484 0.063776
C91   C     C_R   0.546811 0.951310 0.703484 0.063776
C92   C     C_R   0.451310 0.046811 0.796516 0.063776
C93   C     C_R   0.953189 0.451310 0.796516 0.063776
C94   C     C_R   0.548690 0.953188 0.796516 0.063776
C95   C     C_R   0.046811 0.548690 0.796516 0.063776
C96   C     C_R   0.451310 0.953188 0.203484 0.063776
C97   C     C_R   0.953189 0.548690 0.203484 0.063776
C98   C     C_R   0.548690 0.046811 0.203484 0.063776
C99   C     C_R   0.000000 0.358738 0.500000 0.931476
C100  C     C_R   0.046811 0.451310 0.203484 0.063776
C101  C     C_R   0.000000 0.500000 0.273211 0.033610
C102  C     C_R   0.500000 1.000000 0.273211 0.033611
C103  C     C_R   0.000000 0.500000 0.726788 0.033611
C104  C     C_R   0.500000 0.000000 0.726788 0.033610
C105  C     C_R   0.500000 0.000000 0.773211 0.033610
C106  C     C_R   0.000000 0.500000 0.773211 0.033611
C107  C     C_R   0.500000 1.000000 0.226789 0.033611
C108  C     C_R   0.000000 0.500000 0.226789 0.033610
C109  C     C_R   0.904063 0.594527 0.273260 -0.060230
C110  C     C_1   0.217777 0.500000 1.000000 -0.179726
C111  C     C_R   0.405473 0.904062 0.273260 -0.060230
C112  C     C_R   0.095937 0.405473 0.273260 -0.060230
C113  C     C_R   0.594527 0.095937 0.273260 -0.060230
C114  C     C_R   0.904063 0.405473 0.726740 -0.060230
C115  C     C_R   0.405473 0.095937 0.726740 -0.060230
C116  C     C_R   0.095937 0.594526 0.726740 -0.060230
C117  C     C_R   0.594527 0.904062 0.726740 -0.060230
C118  C     C_R   0.404062 0.094527 0.773260 -0.060230
C119  C     C_R   0.905473 0.404062 0.773260 -0.060230
C120  C     C_R   0.595937 0.905473 0.773260 -0.060230
H1    H     H_    0.085387 0.420775 0.361910 0.159494
H2    H     H_    0.079225 0.585387 0.861910 0.159494
H3    H     H_    0.414613 0.079225 0.861910 0.159494
H4    H     H_    0.920775 0.414613 0.861910 0.159494
H5    H     H_    0.585387 0.079225 0.138090 0.159494
H6    H     H_    0.079225 0.414613 0.138090 0.159494
H7    H     H_    0.414613 0.920775 0.138090 0.159494
H8    H     H_    0.920775 0.585387 0.138090 0.159494
H9    H     H_    0.579225 0.085387 0.361910 0.159494
H10   H     H_    0.914613 0.579225 0.361910 0.159494
H11   H     H_    0.420775 0.914613 0.361910 0.159494
H12   H     H_    0.085387 0.579225 0.638090 0.159494
H13   H     H_    0.579225 0.914613 0.638090 0.159494
H14   H     H_    0.914613 0.420775 0.638090 0.159494
H15   H     H_    0.420775 0.085387 0.638090 0.159494
H16   H     H_    0.585387 0.920775 0.861910 0.159494
N1    N     N_1   0.814549 0.681247 0.315646 -0.185332
N2    N     N_1   0.818753 0.314549 0.815646 -0.185331
N3    N     N_1   0.685451 0.818753 0.815646 -0.185331
N4    N     N_1   0.181247 0.685451 0.815646 -0.185332
N5    N     N_1   0.314549 0.818753 0.184353 -0.185332
N6    N     N_1   0.818753 0.685451 0.184354 -0.185332
N7    N     N_1   0.685451 0.181247 0.184354 -0.185332
N8    N     N_1   0.181247 0.314549 0.184353 -0.185332
N9    N     N_1   0.318753 0.814549 0.315646 -0.185332
N10   N     N_1   0.185451 0.318753 0.315646 -0.185331
N11   N     N_1   0.681247 0.185451 0.315646 -0.185332
N12   N     N_1   0.814549 0.318753 0.684353 -0.185332
N13   N     N_1   0.318753 0.185451 0.684354 -0.185332
N14   N     N_1   0.185451 0.681247 0.684354 -0.185332
N15   N     N_1   0.681247 0.814549 0.684353 -0.185332
N16   N     N_1   0.314549 0.181247 0.815646 -0.185332
O1    O     O_R   0.107310 0.560570 0.000010 -0.617234
O2    O     O_R   0.939430 0.607310 0.500010 -0.617234
O3    O     O_R   0.392690 0.939430 0.500010 -0.617234
O4    O     O_R   0.060570 0.392690 0.500010 -0.617234
O5    O     O_R   0.607310 0.939430 0.499990 -0.617234
O6    O     O_R   0.939430 0.392690 0.499990 -0.617234
O7    O     O_R   0.392690 0.060570 0.499990 -0.617234
O8    O     O_R   0.060570 0.607310 0.499990 -0.617234
O9    O     O_R   0.999950 0.560580 0.066080 -0.620936
O10   O     O_R   0.439420 0.999950 0.066080 -0.620936
O11   O     O_R   0.000050 0.439420 0.066080 -0.620936
O12   O     O_R   0.439430 0.107310 0.000010 -0.617234
O13   O     O_R   0.560580 0.000050 0.066080 -0.620936
O14   O     O_R   0.999950 0.439420 0.933920 -0.620936
O15   O     O_R   0.439420 0.000050 0.933920 -0.620936
O16   O     O_R   0.000050 0.560580 0.933920 -0.620936
O17   O     O_R   0.560580 0.999950 0.933920 -0.620936
O18   O     O_R   0.499950 0.060580 0.566080 -0.620936
O19   O     O_R   0.939420 0.499950 0.566080 -0.620936
O20   O     O_R   0.500050 0.939420 0.566080 -0.620936
O21   O     O_R   0.060580 0.500050 0.566080 -0.620936
O22   O     O_R   0.499950 0.939420 0.433920 -0.620936
O23   O     O_R   0.892690 0.439430 0.000010 -0.617234
O24   O     O_R   0.939420 0.500050 0.433920 -0.620936
O25   O     O_R   0.500050 0.060580 0.433920 -0.620936
O26   O     O_R   0.060580 0.499950 0.433920 -0.620936
O27   O     O_R   0.499980 0.392670 0.037330 -0.615929
O28   O     O_R   0.607330 0.499980 0.037330 -0.615929
O29   O     O_R   0.500020 0.607330 0.037330 -0.615929
O30   O     O_R   0.392670 0.500020 0.037330 -0.615929
O31   O     O_R   0.499980 0.607330 0.962670 -0.615928
O32   O     O_R   0.607330 0.500020 0.962670 -0.615928
O33   O     O_R   0.500020 0.392670 0.962670 -0.615928
O34   O     O_R   0.560570 0.892690 0.000010 -0.617234
O35   O     O_R   0.392670 0.499980 0.962670 -0.615928
O36   O     O_R   0.999980 0.892670 0.537330 -0.615929
O37   O     O_R   0.107330 0.999980 0.537330 -0.615929
O38   O     O_R   0.000020 0.107330 0.537330 -0.615929
O39   O     O_R   0.892670 0.000020 0.537330 -0.615929
O40   O     O_R   0.999980 0.107330 0.462670 -0.615928
O41   O     O_R   0.107330 0.000020 0.462670 -0.615928
O42   O     O_R   0.000020 0.892670 0.462670 -0.615928
O43   O     O_R   0.892670 0.999980 0.462670 -0.615928
O44   O     O_R   0.107310 0.439430 0.999990 -0.617234
O45   O     O_R   0.439430 0.892690 0.999990 -0.617234
O46   O     O_R   0.892690 0.560570 0.999990 -0.617234
O47   O     O_R   0.560570 0.107310 0.999990 -0.617234
O48   O     O_R   0.607310 0.060570 0.500010 -0.617234
Zn1   Zn    Zn3+2 0.000000 0.580890 0.000000 0.988990
Zn2   Zn    Zn3+2 0.500000 0.500000 0.950170 0.996176
Zn3   Zn    Zn3+2 0.000000 0.000000 0.549830 0.996176
Zn4   Zn    Zn3+2 0.000000 0.000000 0.450170 0.996176
Zn5   Zn    Zn3+2 0.419110 0.000000 0.000000 0.988990
Zn6   Zn    Zn3+2 0.000000 0.419110 0.000000 0.988990
Zn7   Zn    Zn3+2 0.580890 0.000000 0.000000 0.988990
Zn8   Zn    Zn3+2 0.500000 0.080890 0.500000 0.988990
Zn9   Zn    Zn3+2 0.919110 0.500000 0.500000 0.988990
Zn10  Zn    Zn3+2 0.500000 0.919110 0.500000 0.988990
Zn11  Zn    Zn3+2 0.080890 0.500000 0.500000 0.988990
Zn12  Zn    Zn3+2 0.500000 0.500000 0.049830 0.996176

loop_
_geom_bond_atom_site_label_1
_geom_bond_atom_site_label_2
_ccdc_geom_bond_type
C57   C74   A    
C39   C51   S    
C89   C115  A    
C94   C105  A    
C44   O46   A    
C38   O26   A    
C32   O14   A    
C84   C102  A    
C1    C110  S    
O45   Zn5   S    
C50   O31   A    
C44   O23   A    
C91   C104  A    
O23   Zn6   S    
C51   O30   A    
C11   N11   T    
C13   C41   T    
O7    Zn8   S    
C59   H10   S    
O24   Zn9   S    
C24   C55   S    
C73   C97   A    
O35   Zn2   S    
C28   C46   T    
O41   Zn4   S    
C54   O40   A    
O34   Zn7   S    
C29   C47   T    
C86   C113  A    
C65   C79   A    
O15   Zn5   S    
C62   H13   S    
O9    Zn1   S    
C59   C83   A    
O2    Zn9   S    
O20   Zn10  S    
O12   Zn5   S    
C93   C106  A    
O38   Zn3   S    
C88   O7    A    
C63   C76   A    
C33   O47   A    
C58   H9    S    
C14   C115  S    
C49   O32   A    
C24   C42   T    
O16   Zn1   S    
C60   H11   S    
O28   Zn12  S    
C85   C112  A    
C18   N2    T    
C70   C81   A    
C92   C118  A    
C87   C114  A    
C36   C76   S    
C61   H12   S    
C37   O22   A    
C4    C96   A    
C97   C108  A    
C94   C120  A    
C39   C110  T    
C5    C22   S    
C31   O13   A    
C28   C88   S    
C12   N12   T    
C83   C109  A    
C71   H6    S    
C10   C112  S    
C90   C116  A    
C16   N15   T    
C83   C101  A    
O1    Zn1   S    
C72   C81   A    
C71   C82   A    
C48   O33   A    
C27   C45   T    
C101  C108  A    
C37   C75   S    
C64   H15   S    
C4    C111  A    
C36   O21   A    
O48   Zn8   S    
C99   O4    A    
O4    Zn11  S    
C67   C95   A    
C35   O20   A    
C23   N7    T    
O21   Zn11  S    
O39   Zn3   S    
C64   C89   A    
C58   C86   A    
C68   H3    S    
C41   C49   S    
C104  C105  A    
C58   C75   A    
C12   C114  S    
C25   N8    T    
O36   Zn3   S    
C61   C76   A    
C56   O39   A    
C100  C108  A    
C84   C111  A    
O32   Zn2   S    
C7    C100  A    
C29   C99   S    
C72   H7    S    
C26   C66   S    
C88   O3    A    
C102  C107  A    
C1    O44   A    
C52   O42   A    
O47   Zn7   S    
C117  C120  A    
O43   Zn4   S    
C45   C52   S    
O27   Zn12  S    
O37   Zn3   S    
C98   C107  A    
C8    N1    T    
O33   Zn2   S    
C30   C82   S    
C30   O11   A    
C9    C111  S    
C63   H14   S    
C6    C113  A    
O18   Zn8   S    
C35   O18   A    
C95   C106  A    
C34   C79   S    
C32   C80   S    
C56   O43   A    
C43   C56   S    
C38   O24   A    
C115  C118  A    
O42   Zn4   S    
C62   C91   A    
C33   O12   A    
O46   Zn1   S    
C91   C117  A    
O40   Zn4   S    
C3    C20   S    
C55   O34   A    
C7    C25   S    
C13   C44   S    
C1    O1    A    
O13   Zn7   S    
C59   C74   A    
C34   O17   A    
C8    C109  S    
C17   C118  S    
C42   C50   S    
C47   C54   S    
C87   C103  A    
C70   H5    S    
C26   C43   T    
C96   C107  A    
C5    C97   A    
C19   C120  S    
O29   Zn12  S    
O10   Zn5   S    
C14   N13   T    
C17   N16   T    
C34   O15   A    
C10   N10   T    
C67   H2    S    
C6    C98   A    
C73   C82   A    
C85   C101  A    
C61   C90   A    
C2    C33   S    
C7    C112  A    
C38   C74   S    
C40   C48   S    
O8    Zn11  S    
C65   C94   A    
C36   O19   A    
C54   O38   A    
C63   C87   A    
O22   Zn10  S    
O31   Zn2   S    
C64   C78   A    
C62   C78   A    
O3    Zn10  S    
C67   C80   A    
C114  C119  A    
O14   Zn6   S    
C27   C77   S    
C31   C81   S    
O17   Zn7   S    
C22   N6    T    
C73   H8    S    
C93   C119  A    
C71   C100  A    
C35   C78   S    
C69   C93   A    
C69   H4    S    
O25   Zn8   S    
C3    C116  A    
C49   O28   A    
C32   O16   A    
C21   N5    T    
C50   O29   A    
C89   C104  A    
C53   O41   A    
C4    C21   S    
C60   C84   A    
C20   N4    T    
O30   Zn12  S    
C55   O45   A    
C5    C109  A    
C68   C79   A    
O19   Zn9   S    
C6    C23   S    
C66   O5    A    
C46   C53   S    
C9    N9    T    
C68   C92   A    
O11   Zn6   S    
C57   C85   A    
O26   Zn11  S    
C103  C106  A    
C48   O27   A    
O44   Zn6   S    
C11   C113  S    
C90   C103  A    
C31   O10   A    
C65   H16   S    
C51   O35   A    
C77   O8    A    
C57   H1    S    
C72   C96   A    
C2    C40   T    
C92   C105  A    
O5    Zn10  S    
O6    Zn9   S    
C19   N3    T    
C99   O6    A    
C37   O25   A    
C77   O2    A    
C15   C116  S    
C69   C80   A    
C3    C95   A    
C60   C75   A    
C52   O36   A    
C30   O9    A    
C16   C117  S    
C53   O37   A    
C18   C119  S    
C15   N14   T    
C66   O48   A    
C70   C98   A    
C86   C102  A    
