data_mof_unit_9152.cif
_audit_creation_date              2012-10-26T20:13:52-0400
_audit_creation_method            fapswitch 2.2
_symmetry_space_group_name_H-M    P1
_symmetry_Int_Tables_number       1
_space_group_crystal_system       triclinic
_cell_length_a                    8.736633
_cell_length_b                    10.84926
_cell_length_c                    9.591071
_cell_angle_alpha                 90.661466
_cell_angle_beta                  97.809925
_cell_angle_gamma                 90.634375
_cell_volume                      900.533429975

loop_
_atom_site_label
_atom_site_type_symbol
_atom_type_description
_atom_site_fract_x
_atom_site_fract_y
_atom_site_fract_z
_atom_type_partial_charge
C1    C     C_R   0.497565 0.262253 0.498573 0.563040
C2    C     C_R   0.600501 0.574165 0.939616 0.142250
C3    C     C_3   0.772089 0.569854 0.953202 -0.272568
C4    C     C_R   0.204290 0.499756 0.464243 0.547011
C5    C     C_3   0.773156 0.564492 0.110694 -0.281047
C6    C     C_R   0.497612 0.737307 0.500228 0.551221
C7    C     C_R   0.796039 0.500046 0.536203 0.547198
C8    C     C_2   0.038925 0.499422 0.445520 -0.152519
C9    C     C_2   0.962108 0.500093 0.556664 -0.155080
C10   C     C_R   0.475893 0.064703 0.618725 -0.008737
C11   C     C_R   0.483576 0.128434 0.493876 0.041974
C12   C     C_R   0.469115 0.931502 0.369025 -0.153001
C13   C     C_R   0.470488 0.060129 0.365576 0.064447
C14   C     C_R   0.482950 0.869876 0.497854 -0.012588
C15   C     C_R   0.475586 0.937843 0.620772 0.014335
C16   C     C_3   0.575821 0.934567 0.759738 -0.265836
C17   C     C_3   0.576202 0.074570 0.757798 -0.267649
C18   C     C_R   0.601649 0.573038 0.086946 0.137079
C19   C     C_R   0.389164 0.437126 0.056779 0.201655
C20   C     C_R   0.392069 0.436158 0.909638 0.038222
Cu1   Cu    Cu3+1 0.499990 0.499980 0.640670 0.930804
Cu2   Cu    Cu3+1 0.500010 0.500020 0.359330 0.946025
H1    H     H_    0.980596 0.498569 0.339145 0.111200
H2    H     H_    0.691047 0.894283 0.752519 0.136041
H3    H     H_    0.514579 0.116288 0.840465 0.146089
H4    H     H_    0.691757 0.115747 0.749653 0.140958
H5    H     H_    0.366402 0.090114 0.167802 0.223288
H6    H     H_    0.561569 0.089138 0.185668 0.226709
H7    H     H_    0.299112 0.321856 0.193282 0.299395
H8    H     H_    0.178347 0.435549 0.122052 0.237425
H9    H     H_    0.306011 0.383242 0.841357 0.135371
H10   H     H_    0.815417 0.483849 0.909028 0.158020
H11   H     H_    0.822897 0.656689 0.918199 0.122097
H12   H     H_    0.810485 0.472986 0.152277 0.146473
H13   H     H_    0.829269 0.646194 0.168163 0.127464
H14   H     H_    0.021407 0.500763 0.663964 0.121535
H15   H     H_    0.465167 0.880741 0.270581 0.136078
H16   H     H_    0.513959 0.895627 0.843455 0.139145
N1    N     N_R   0.500980 0.500930 0.148050 -0.220580
N2    N     N_R   0.500990 0.500890 0.852140 -0.257310
N3    N     N_3   0.466850 0.119128 0.232279 -0.612000
N4    N     N_3   0.262875 0.372318 0.103896 -0.654167
O1    O     O_R   0.500000 0.319640 0.618810 -0.513257
O2    O     O_R   0.500020 0.319680 0.381230 -0.472200
O3    O     O_R   0.274830 0.499980 0.591380 -0.507647
O4    O     O_R   0.274850 0.500020 0.353800 -0.518779
O5    O     O_R   0.499980 0.680320 0.618770 -0.492552
O6    O     O_R   0.500000 0.680360 0.381190 -0.507725
O7    O     O_R   0.725150 0.499980 0.646200 -0.507376
O8    O     O_R   0.725170 0.500020 0.408620 -0.499931

loop_
_geom_bond_atom_site_label_1
_geom_bond_atom_site_label_2
_ccdc_geom_bond_type
C9    H14   S    
Cu2   O6    S    
C18   N1    A    
C2    N2    A    
H7    N4    S    
C2    C18   A    
H5    N3    S    
C1    O2    A    
C19   C20   A    
C1    C11   S    
C19   N4    S    
Cu2   O8    S    
C4    C8    S    
C17   H3    S    
C5    H12   S    
C13   N3    S    
C2    C3    S    
C16   H2    S    
C4    O4    A    
Cu1   Cu2   S    
C11   C13   A    
C16   C17   S    
Cu1   N2    S    
C6    O6    A    
C17   H4    S    
C19   N1    A    
Cu1   O7    S    
Cu2   O4    S    
C12   C14   A    
Cu1   O3    S    
C4    O3    A    
C3    H10   S    
C20   N2    A    
C6    C14   S    
C10   C11   A    
C3    H11   S    
C10   C17   S    
C15   C16   S    
C5    H13   S    
H6    N3    S    
C8    H1    S    
C12   C13   A    
C7    O7    A    
C6    O5    A    
C12   H15   S    
C7    C9    S    
C14   C15   A    
H8    N4    S    
C5    C18   S    
C3    C5    S    
C10   C15   A    
Cu1   O1    S    
Cu2   N1    S    
C1    O1    A    
Cu2   O2    S    
C7    O8    A    
C16   H16   S    
C8    C9    D    
Cu1   O5    S    
C20   H9    S    
