data_mof_unit_18428.cif
_audit_creation_date              2012-12-11T17:25:08-0500
_audit_creation_method            fapswitch 2.2
_symmetry_space_group_name_H-M    P1
_symmetry_Int_Tables_number       1
_space_group_crystal_system       triclinic
_cell_length_a                    6.95349
_cell_length_b                    20.530626
_cell_length_c                    24.504124
_cell_angle_alpha                 90.074318
_cell_angle_beta                  90.650548
_cell_angle_gamma                 89.671112
_cell_volume                      3497.91078276

loop_
_atom_site_label
_atom_site_type_symbol
_atom_type_description
_atom_site_fract_x
_atom_site_fract_y
_atom_site_fract_z
_atom_type_partial_charge
O1    O     O_R   0.507280 0.423750 0.460310 -0.541850
O2    O     O_R   0.171030 0.555650 0.437630 -0.535985
O3    O     O_R   0.004080 0.576250 0.539690 -0.526390
C1    C     C_R   0.339037 0.575680 0.421783 0.709291
O4    O     O_R   0.177330 0.422980 0.453960 -0.542786
O5    O     O_R   0.010420 0.442640 0.556140 -0.533482
C2    C     C_R   0.345787 0.399126 0.443176 0.680773
O6    O     O_R   0.500930 0.557360 0.443860 -0.540984
O7    O     O_3   0.340310 0.506600 0.533500 -0.354977
V1    V     V_3+5 0.064140 0.498780 0.493780 1.484260
O8    O     O_R   0.680890 0.444350 0.562370 -0.536696
C3    C     C_R   0.850619 0.424410 0.578149 0.752864
O9    O     O_R   0.674590 0.577020 0.546040 -0.537573
C4    C     C_R   0.843225 0.600882 0.556744 0.832485
V2    V     V_3+5 0.564550 0.501220 0.506220 1.486985
O10   O     O_3   0.838250 0.493400 0.466500 -0.380459
C5    C     C_R   0.966496 0.838347 0.911110 -0.123438
C6    C     C_R   0.849022 0.661501 0.589049 -0.279793
C7    C     C_R   0.901719 0.722966 0.909668 -0.038315
C8    C     C_R   0.927402 0.780581 0.938510 -0.271003
C9    C     C_R   0.979841 0.838461 0.853614 0.428793
C10   C     C_R   0.928478 0.781276 0.822869 -0.096740
C11   C     C_R   0.900393 0.722621 0.852351 -0.156124
C12   C     C_R   0.900532 0.779991 0.764604 -0.018768
C13   C     C_R   0.881652 0.718996 0.736352 -0.127701
C14   C     C_R   0.852234 0.662394 0.767998 0.623811
C15   C     C_R   0.862286 0.664432 0.824663 0.539495
C16   C     C_R   0.868948 0.837620 0.734487 -0.116708
C17   C     C_R   0.832951 0.836232 0.678684 -0.119135
C18   C     C_R   0.834393 0.777603 0.649809 -0.069996
C19   C     C_R   0.870165 0.718057 0.677677 -0.053408
C20   C     C_R   0.797174 0.777927 0.593255 0.651544
C21   C     C_R   0.798055 0.719997 0.563732 -0.341932
C22   C     C_R   0.893597 0.660738 0.645244 0.654247
H1    H     H_    0.762996 0.720943 0.520532 0.170768
H2    H     H_    0.803434 0.881914 0.658032 0.181569
H3    H     H_    0.876072 0.678807 0.932555 0.190229
H4    H     H_    0.918413 0.780023 0.982632 0.132201
H5    H     H_    0.854701 0.884545 0.753696 0.177201
H6    H     H_    0.618885 0.204662 0.792140 0.113097
C23   C     C_R   0.729912 0.268854 0.730735 -0.133967
H7    H     H_    0.587928 0.282971 0.716269 0.115540
C24   C     C_R   0.894339 0.294978 0.706441 0.135552
C25   C     C_R   0.076646 0.275738 0.726000 -0.132672
H8    H     H_    0.205338 0.295256 0.707817 0.118274
C26   C     C_R   0.094309 0.231065 0.769221 -0.143380
H9    H     H_    0.236292 0.216946 0.783688 0.112746
C27   C     C_R   0.929882 0.204936 0.793510 0.134418
C28   C     C_R   0.747575 0.224181 0.773957 -0.143655
C29   C     C_1   0.876457 0.341041 0.661443 -0.027217
C30   C     C_1   0.947766 0.158858 0.838494 -0.048085
C31   C     C_1   0.960963 0.120641 0.876262 -0.177398
C32   C     C_1   0.863263 0.379249 0.623665 -0.143181
H10   H     H_    0.689259 0.721550 0.309912 0.196387
C33   C     C_R   0.591412 0.778004 0.240820 -0.114066
H11   H     H_    0.731714 0.799105 0.234279 0.153412
C34   C     C_R   0.435776 0.794884 0.206527 0.031479
C35   C     C_R   0.255635 0.766585 0.216090 -0.232139
H12   H     H_    0.133564 0.778892 0.190155 0.143068
C36   C     C_R   0.231291 0.722119 0.259138 0.632204
C37   C     C_R   0.387153 0.705297 0.293509 -0.015979
C38   C     C_R   0.567180 0.733688 0.283946 -0.190732
C39   C     C_1   0.459837 0.840947 0.161685 -0.010143
C40   C     C_1   0.363954 0.659220 0.338421 0.061538
C41   C     C_1   0.348847 0.620986 0.376152 -0.164101
C42   C     C_1   0.475316 0.879172 0.123961 -0.190441
C43   C     C_R   0.474524 0.161798 0.088970 -0.107385
C44   C     C_R   0.350399 0.338596 0.410695 -0.043325
C45   C     C_R   0.544497 0.277248 0.094591 0.459692
C46   C     C_R   0.535378 0.219303 0.064677 -0.241075
C47   C     C_R   0.425891 0.161652 0.144453 -0.221201
C48   C     C_R   0.441405 0.219081 0.176998 0.034081
C49   C     C_R   0.502482 0.277103 0.150887 0.036655
C50   C     C_R   0.401521 0.220760 0.234510 0.084867
C51   C     C_R   0.423488 0.280340 0.264773 0.060958
C52   C     C_R   0.484304 0.336199 0.236571 -0.199242
C53   C     C_R   0.522208 0.334510 0.181137 -0.158103
C54   C     C_R   0.341104 0.164802 0.262845 -0.183096
C55   C     C_R   0.303086 0.166599 0.318303 -0.197664
C56   C     C_R   0.322346 0.224078 0.348128 0.133870
C57   C     C_R   0.383283 0.282078 0.322223 0.084388
C58   C     C_R   0.278121 0.223842 0.403870 -0.152542
C59   C     C_R   0.290200 0.280682 0.434648 -0.167958
C60   C     C_R   0.398098 0.339372 0.355035 -0.209459
H13   H     H_    0.568581 0.379159 0.161921 0.174382
H14   H     H_    0.440545 0.385665 0.338584 0.098967
H15   H     H_    0.250824 0.279643 0.477297 0.108309
H16   H     H_    0.256442 0.122277 0.338070 0.132839
H17   H     H_    0.577188 0.219224 0.022195 0.126969
H18   H     H_    0.382555 0.115540 0.161036 0.108576
H19   H     H_    0.504880 0.382584 0.256221 0.130410
H20   H     H_    0.320839 0.118321 0.243356 0.125475
H21   H     H_    0.230817 0.179599 0.423591 0.123175
O11   O     O_R   0.323320 0.942780 0.056240 -0.536302
O12   O     O_R   0.647300 0.077050 0.046060 -0.538151
O13   O     O_R   0.813840 0.057330 0.943840 -0.535901
C61   C     C_R   0.478937 0.100970 0.056874 0.720261
O14   O     O_R   0.653250 0.944380 0.062400 -0.538036
O15   O     O_R   0.819830 0.923720 0.960300 -0.541263
C62   C     C_R   0.485215 0.924436 0.078302 0.719333
O16   O     O_R   0.317330 0.076390 0.039790 -0.537269
O17   O     O_3   0.483830 0.993470 0.966560 -0.368982
V3    V     V_3+5 0.760140 0.001210 0.006210 1.432169
O18   O     O_R   0.149290 0.922840 0.953850 -0.537522
C63   C     C_R   0.980102 0.899063 0.943175 0.756624
O19   O     O_R   0.143340 0.055500 0.937510 -0.535919
C64   C     C_R   0.973618 0.075483 0.921773 0.746136
V4    V     V_3+5 0.259690 0.998600 0.993650 1.436400
O20   O     O_3   0.986130 0.006520 0.033440 -0.370384
F1    F     F_    0.826977 0.608866 0.852863 -0.620675
F2    F     F_    0.755753 0.834332 0.566570 -0.669682
F3    F     F_    0.055689 0.695496 0.267143 -0.702131
F4    F     F_    0.974476 0.605675 0.666059 -0.619276
O21   O     O_3   0.610098 0.333169 0.069645 -0.557443
C65   C     C_3   0.458832 0.360037 0.037993 -0.217080
H22   H     H_    0.330614 0.370869 0.063376 0.140105
H23   H     H_    0.418953 0.327476 0.003393 0.141654
H24   H     H_    0.508082 0.406747 0.020428 0.187028
O22   O     O_3   0.046316 0.894345 0.828925 -0.578909
C66   C     C_3   0.243626 0.885842 0.817986 -0.245387
H25   H     H_    0.267764 0.845683 0.788248 0.155010
H26   H     H_    0.328186 0.876793 0.856122 0.145265
H27   H     H_    0.298500 0.931283 0.799501 0.165361
F5    F     F_    0.783395 0.606626 0.745662 -0.570429

loop_
_geom_bond_atom_site_label_1
_geom_bond_atom_site_label_2
_ccdc_geom_bond_type
C13   C19   A    
C59   H15   S    
C33   H11   S    
C20   F2    S    
C23   H7    S    
C4    C6    S    
O15   V3    S    
C7    C8    A    
C1    O6    A    
O21   C65   S    
C66   H25   S    
C22   F4    S    
C17   H2    S    
O11   V4    S    
C14   C15   A    
C16   C17   A    
C60   H14   S    
O5    C3    A    
C1    C41   S    
C56   C57   A    
O19   C64   A    
C35   C36   A    
C65   H22   S    
C33   C38   A    
C5    C8    A    
V4    O20   S    
C42   C62   S    
O18   C63   A    
C7    H3    S    
O17   V3    S    
C2    C44   S    
O8    V2    S    
C27   C30   S    
C15   F1    S    
C66   H26   S    
C65   H23   S    
O14   V3    S    
C45   C49   A    
O1    V2    S    
C11   C15   A    
O7    V1    S    
C3    C32   S    
C66   H27   S    
O16   V4    S    
C39   C42   T    
C53   H13   S    
C58   H21   S    
O9    C4    A    
C23   C24   A    
C45   C46   A    
C14   F5    S    
C23   C28   A    
C55   H16   S    
O12   V3    S    
C34   C39   S    
O15   C63   A    
C26   C27   A    
C45   O21   S    
C29   C32   T    
C50   C51   A    
C30   C31   T    
C44   C60   A    
C12   C13   A    
C31   C64   S    
C48   C50   A    
O4    C2    A    
C54   C55   A    
C51   C57   A    
H10   C38   S    
C16   H5    S    
C54   H20   S    
C13   C14   A    
C5    C9    A    
C36   C37   A    
C37   C40   S    
O2    C1    A    
C51   C52   A    
C17   C18   A    
C36   F3    S    
C5    C63   S    
C8    H4    S    
O11   C62   A    
O22   C66   S    
C65   H24   S    
C19   C22   A    
C52   C53   A    
O17   V4    S    
C6    C22   A    
O3    C4    A    
C56   C58   A    
C27   C28   A    
O13   C64   A    
O6    V2    S    
O14   C62   A    
O9    V2    S    
C24   C25   A    
C10   C12   A    
C46   H17   S    
O2    V1    S    
O18   V4    S    
C57   C60   A    
C25   H8    S    
C7    C11   A    
C26   H9    S    
O1    C2    A    
C44   C59   A    
C12   C16   A    
C48   C49   A    
O5    V1    S    
O8    C3    A    
O12   C61   A    
C24   C29   S    
V3    O20   S    
C43   C46   A    
C20   C21   A    
C33   C34   A    
C35   H12   S    
C47   C48   A    
C9    O22   S    
O3    V1    S    
V1    O10   S    
C40   C41   T    
C18   C20   A    
C34   C35   A    
C18   C19   A    
C47   H18   S    
O19   V4    S    
V2    O10   S    
C21   H1    S    
C43   C47   A    
O7    V2    S    
C37   C38   A    
C6    C21   A    
C43   C61   S    
C52   H19   S    
C55   C56   A    
O4    V1    S    
C58   C59   A    
C50   C54   A    
O13   V3    S    
C49   C53   A    
C10   C11   A    
C9    C10   A    
C25   C26   A    
C61   O16   A    
H6    C28   S    
