data_mof_unit_14644.cif
_audit_creation_date              2012-12-10T17:11:58-0500
_audit_creation_method            fapswitch 2.2
_symmetry_space_group_name_H-M    P1
_symmetry_Int_Tables_number       1
_space_group_crystal_system       triclinic
_cell_length_a                    11.653929
_cell_length_b                    13.003903
_cell_length_c                    15.875986
_cell_angle_alpha                 92.249117
_cell_angle_beta                  73.416334
_cell_angle_gamma                 99.876025
_cell_volume                      2271.58269327

loop_
_atom_site_label
_atom_site_type_symbol
_atom_type_description
_atom_site_fract_x
_atom_site_fract_y
_atom_site_fract_z
_atom_type_partial_charge
C1    C     C_R   0.520828 0.700872 0.501248 0.809940
C2    C     C_R   0.479172 0.299128 0.498752 0.809910
C3    C     C_R   0.354259 0.474281 0.089197 -0.250953
C4    C     C_R   0.645613 0.524882 0.910758 -0.251063
C5    C     C_R   0.268414 0.456922 0.042529 -0.029368
C6    C     C_R   0.731481 0.542209 0.957403 -0.029375
C7    C     C_R   0.467156 0.185711 0.498033 -0.053832
C8    C     C_R   0.532844 0.814289 0.501967 -0.053842
C9    C     C_R   0.651923 0.984750 0.508598 -0.207286
C10   C     C_R   0.348077 0.015250 0.491401 -0.207299
C11   C     C_R   0.641116 0.876651 0.508069 -0.189554
C12   C     C_R   0.358884 0.123349 0.491931 -0.189538
C13   C     C_R   0.435297 0.860739 0.496471 -0.258597
C14   C     C_R   0.564703 0.139261 0.503528 -0.258585
C15   C     C_R   0.445415 0.968761 0.496949 0.173422
C16   C     C_R   0.554586 0.031239 0.503050 0.173422
C17   C     C_R   0.938756 0.595160 0.583119 -0.322974
C18   C     C_R   0.061243 0.404837 0.416883 -0.322931
C19   C     C_R   0.820662 0.586223 0.574940 0.086364
C20   C     C_R   0.179339 0.413777 0.425059 0.086375
C21   C     C_R   0.860516 0.458936 0.464050 0.057410
C22   C     C_R   0.139482 0.541059 0.535954 0.057388
C23   C     C_R   0.425640 0.493759 0.668516 0.797566
C24   C     C_R   0.574355 0.506205 0.331480 0.797576
C25   C     C_R   0.980281 0.465457 0.469784 0.069125
C26   C     C_R   0.019717 0.534539 0.530219 0.069105
C27   C     C_R   0.378955 0.485672 0.765550 -0.111242
C28   C     C_R   0.621006 0.514117 0.234432 -0.111287
C29   C     C_R   0.219593 0.445912 0.902170 -0.209915
C30   C     C_R   0.780355 0.553397 0.097744 -0.209901
C31   C     C_R   0.255214 0.454106 0.810705 -0.028653
C32   C     C_R   0.744770 0.545397 0.189220 -0.028631
C33   C     C_R   0.463691 0.507077 0.813774 -0.240374
C34   C     C_R   0.536215 0.492753 0.186247 -0.240384
C35   C     C_R   0.430919 0.492091 0.905491 0.088606
C36   C     C_R   0.568977 0.507395 0.094491 0.088584
C37   C     C_R   0.305574 0.464483 0.950380 0.085609
C38   C     C_R   0.694337 0.534829 0.049563 0.085638
C39   C     C_R   0.519378 0.504594 0.953388 0.053163
C40   C     C_R   0.480503 0.494769 0.046594 0.053187
Cu1   Cu    Cu3+1 0.386820 0.492450 0.493500 0.952223
Cu2   Cu    Cu3+1 0.613180 0.507550 0.506500 0.952218
H1    H     H_    0.241356 0.366724 0.384224 0.122247
H2    H     H_    0.758645 0.633278 0.615773 0.122264
H3    H     H_    0.966401 0.648974 0.630291 0.147844
H4    H     H_    0.033598 0.351023 0.369711 0.147881
H5    H     H_    0.444351 0.463049 0.222602 0.152225
H6    H     H_    0.555507 0.537139 0.777502 0.152136
H7    H     H_    0.123763 0.423271 0.935388 0.155348
H8    H     H_    0.876198 0.575860 0.064488 0.155333
H9    H     H_    0.317977 0.472066 0.159619 0.146145
H10   H     H_    0.681842 0.526857 0.840325 0.146303
H11   H     H_    0.648654 0.186918 0.508204 0.154067
H12   H     H_    0.351346 0.813082 0.491795 0.154063
H13   H     H_    0.282571 0.157978 0.487586 0.160126
H14   H     H_    0.717429 0.842022 0.512414 0.160113
H15   H     H_    0.736084 0.031847 0.513321 0.138832
H16   H     H_    0.263916 0.968152 0.486678 0.138828
H17   H     H_    0.171158 0.593782 0.582142 0.123094
H18   H     H_    0.828838 0.406210 0.417864 0.123136
N1    N     N_R   0.216750 0.481110 0.483710 -0.181601
N2    N     N_R   0.783250 0.518890 0.516290 -0.181624
O1    O     O_R   0.419950 0.645670 0.495380 -0.589702
O2    O     O_R   0.580050 0.354330 0.504620 -0.589715
O3    O     O_R   0.611110 0.658410 0.506370 -0.589604
O4    O     O_R   0.388890 0.341590 0.493630 -0.589599
O5    O     O_R   0.350820 0.490050 0.621260 -0.573846
O6    O     O_R   0.649180 0.509950 0.378740 -0.573818
O7    O     O_R   0.541970 0.502800 0.632250 -0.587601
O8    O     O_R   0.458030 0.497200 0.367750 -0.587633
C41   C     C_1   0.141597 0.432479 0.092036 0.225421
N3    N     N_1   0.040314 0.412780 0.131622 -0.290704
C42   C     C_1   0.858299 0.566476 0.907864 0.225427
N4    N     N_1   0.959584 0.586041 0.868254 -0.290712
C43   C     C_1   0.837794 0.571425 0.233930 0.290993
N5    N     N_1   0.912561 0.592460 0.269496 -0.274077
C44   C     C_1   0.162261 0.427970 0.765939 0.291133
N6    N     N_1   0.087557 0.406847 0.730326 -0.273968

loop_
_geom_bond_atom_site_label_1
_geom_bond_atom_site_label_2
_ccdc_geom_bond_type
C8    C13   A    
C5    C37   A    
C1    C8    S    
Cu1   Cu2   S    
C23   O7    A    
C2    C7    S    
Cu1   N1    S    
C32   C43   S    
C24   O8    A    
Cu1   O5    S    
C29   H7    S    
C44   N6    T    
C27   C33   A    
C4    H10   S    
C17   C26   A    
C35   C37   A    
C9    C16   A    
C17   H3    S    
C10   C15   A    
C19   N2    A    
C15   C16   A    
C18   H4    S    
C30   C38   A    
C42   N4    T    
C23   O5    A    
C20   N1    A    
C9    H15   S    
C33   C35   A    
C7    C14   A    
Cu2   O3    S    
C1    O3    A    
C6    C38   A    
C23   C27   S    
Cu2   N2    S    
C18   C20   A    
C30   H8    S    
C28   C34   A    
Cu2   O6    S    
C18   C25   A    
C1    O1    A    
C2    O2    A    
C31   C44   S    
C7    C12   A    
C27   C31   A    
C28   C32   A    
C21   H18   S    
C4    C6    A    
C22   H17   S    
C3    H9    S    
C3    C5    A    
C25   C26   A    
Cu2   O7    S    
C35   C39   A    
C43   N5    T    
C4    C39   A    
C36   C40   A    
C9    C11   A    
C21   N2    A    
C10   C12   A    
C3    C40   A    
C13   C15   A    
C14   C16   A    
Cu1   O1    S    
Cu2   O2    S    
C39   C40   A    
C20   H1    S    
C19   H2    S    
C6    C42   S    
C13   H12   S    
C21   C25   A    
C10   H16   S    
C24   C28   S    
C2    O4    A    
Cu1   O4    S    
C36   C38   A    
C41   N3    T    
C29   C31   A    
C22   N1    A    
C30   C32   A    
C8    C11   A    
C17   C19   A    
C34   C36   A    
C12   H13   S    
C24   O6    A    
C14   H11   S    
C5    C41   S    
C22   C26   A    
C29   C37   A    
C33   H6    S    
C34   H5    S    
C11   H14   S    
Cu1   O8    S    
