data_mof_unit_6950.cif
_audit_creation_date              2012-12-11T16:28:15-0500
_audit_creation_method            fapswitch 2.2
_symmetry_space_group_name_H-M    P1
_symmetry_Int_Tables_number       1
_space_group_crystal_system       monoclinic
_cell_length_a                    30.166875
_cell_length_b                    22.538677
_cell_length_c                    17.941256
_cell_angle_alpha                 90.0
_cell_angle_beta                  122.551396
_cell_angle_gamma                 90.0
_cell_volume                      10282.3491334

loop_
_atom_site_label
_atom_site_type_symbol
_atom_type_description
_atom_site_fract_x
_atom_site_fract_y
_atom_site_fract_z
_atom_type_partial_charge
C1    C     C_R   0.543246 0.581367 0.742137 -0.159417
C2    C     C_R   0.458672 0.414864 0.261743 -0.115296
C3    C     C_R   0.456754 0.581367 0.257863 -0.159417
C4    C     C_R   0.541328 0.414864 0.738257 -0.115296
C5    C     C_R   0.040732 0.087727 0.736218 -0.154163
C6    C     C_R   0.967958 0.893594 0.291024 -0.124091
C7    C     C_R   0.959268 0.087727 0.263782 -0.154163
C8    C     C_R   0.032042 0.893594 0.708976 -0.124090
C9    C     C_R   0.360171 0.715865 0.579009 0.190442
C10   C     C_R   0.679876 0.351851 0.411380 0.194848
C11   C     C_R   0.639829 0.715865 0.420991 0.190442
C12   C     C_R   0.320124 0.351851 0.588619 0.194848
C13   C     C_R   0.861020 0.217206 0.578527 0.189817
C14   C     C_R   0.181158 0.851720 0.414539 0.191253
C15   C     C_R   0.138980 0.217206 0.421473 0.189817
C16   C     C_R   0.818842 0.851720 0.585461 0.191253
C17   C     C_R   0.336091 0.769713 0.574367 -0.266866
C18   C     C_R   0.723779 0.331637 0.412256 -0.265047
C19   C     C_R   0.663909 0.769713 0.425633 -0.266866
C20   C     C_R   0.276221 0.331637 0.587744 -0.265047
C21   C     C_R   0.836558 0.270962 0.572545 -0.264323
C22   C     C_R   0.225289 0.831622 0.415954 -0.267309
C23   C     C_R   0.163442 0.270962 0.427455 -0.264323
C24   C     C_R   0.774711 0.831622 0.584046 -0.267310
C25   C     C_R   0.318357 0.807599 0.501835 0.074169
C26   C     C_R   0.774521 0.347687 0.480415 0.080027
C27   C     C_R   0.681643 0.807599 0.498165 0.074169
C28   C     C_R   0.225479 0.347687 0.519585 0.080026
C29   C     C_R   0.816707 0.306922 0.497535 0.073059
C30   C     C_R   0.275921 0.848319 0.484026 0.079260
C31   C     C_R   0.183293 0.306922 0.502465 0.073059
C32   C     C_R   0.724078 0.848319 0.515974 0.079260
C33   C     C_R   0.371854 0.614470 0.111027 0.003646
C34   C     C_R   0.621032 0.368403 0.875293 0.024578
C35   C     C_R   0.628146 0.614470 0.888973 0.003646
C36   C     C_R   0.378968 0.368403 0.124706 0.024578
C37   C     C_R   0.888395 0.156160 0.151651 0.018060
C38   C     C_R   0.091880 0.800964 0.777567 0.017812
C39   C     C_R   0.111605 0.156160 0.848348 0.018060
C40   C     C_R   0.908120 0.800964 0.222433 0.017811
C41   C     C_R   0.361360 0.638332 0.969623 -0.314050
C42   C     C_R   0.625145 0.304595 0.988364 -0.311356
C43   C     C_R   0.638640 0.638332 0.030377 -0.314049
C44   C     C_R   0.374855 0.304596 0.011636 -0.311356
C45   C     C_R   0.869902 0.197512 0.013038 -0.316539
C46   C     C_R   0.074078 0.708503 0.826985 -0.317860
C47   C     C_R   0.130098 0.197512 0.986962 -0.316539
C48   C     C_R   0.925922 0.708503 0.173014 -0.317860
C49   C     C_R   0.391005 0.612410 0.053788 0.184006
C50   C     C_R   0.595117 0.334462 0.907441 0.173551
C51   C     C_R   0.608995 0.612410 0.946212 0.184007
C52   C     C_R   0.404883 0.334462 0.092558 0.173552
C53   C     C_R   0.893366 0.153164 0.077843 0.169781
C54   C     C_R   0.055352 0.760347 0.775597 0.170968
C55   C     C_R   0.106634 0.153164 0.922157 0.169780
C56   C     C_R   0.944648 0.760347 0.224403 0.170967
C57   C     C_R   0.320391 0.636535 0.077363 0.052791
C58   C     C_R   0.676435 0.371646 0.926872 0.062101
C59   C     C_R   0.679609 0.636535 0.922637 0.052790
C60   C     C_R   0.323565 0.371646 0.073128 0.062100
C61   C     C_R   0.862277 0.204355 0.160940 0.062410
C62   C     C_R   0.145763 0.785440 0.823331 0.052556
C63   C     C_R   0.137723 0.204355 0.839060 0.062409
C64   C     C_R   0.854237 0.785440 0.176669 0.052556
C65   C     C_R   0.287310 0.649215 0.986574 0.008445
C66   C     C_R   0.703737 0.325709 0.987363 -0.021411
C67   C     C_R   0.712690 0.649215 0.013426 0.008445
C68   C     C_R   0.296263 0.325709 0.012637 -0.021411
C69   C     C_R   0.826585 0.236395 0.084710 -0.020159
C70   C     C_R   0.160737 0.726945 0.853752 -0.004384
C71   C     C_R   0.173415 0.236395 0.915290 -0.020159
C72   C     C_R   0.839263 0.726945 0.146248 -0.004384
C73   C     C_R   0.310521 0.658928 0.937289 0.155590
C74   C     C_R   0.679171 0.297287 0.025972 0.170427
C75   C     C_R   0.689479 0.658928 0.062711 0.155589
C76   C     C_R   0.320829 0.297287 0.974028 0.170427
C77   C     C_R   0.834898 0.237786 0.014328 0.166337
C78   C     C_R   0.127027 0.692409 0.868073 0.160880
C79   C     C_R   0.165102 0.237786 0.985672 0.166337
C80   C     C_R   0.872973 0.692409 0.131927 0.160880
C81   C     C_R   0.233354 0.661529 0.946815 0.103573
C82   C     C_R   0.751356 0.302369 0.002148 0.085926
C83   C     C_R   0.766646 0.661529 0.053185 0.103573
C84   C     C_R   0.248644 0.302369 0.997852 0.085926
C85   C     C_R   0.780432 0.262127 0.072738 0.096905
C86   C     C_R   0.210169 0.703712 0.878718 0.086557
C87   C     C_R   0.219568 0.262127 0.927261 0.096905
C88   C     C_R   0.789831 0.703712 0.121282 0.086557
C89   C     C_R   0.627987 0.607413 0.570233 0.184978
C90   C     C_R   0.356160 0.417763 0.432046 0.204306
C91   C     C_R   0.372013 0.607413 0.429767 0.184978
C92   C     C_R   0.643840 0.417763 0.567954 0.204306
C93   C     C_R   0.128885 0.106635 0.570708 0.187411
C94   C     C_R   0.855490 0.919359 0.432225 0.176577
C95   C     C_R   0.871115 0.106635 0.429292 0.187410
C96   C     C_R   0.144510 0.919359 0.567775 0.176577
C97   C     C_R   0.765374 0.309785 0.939004 -0.247708
C98   C     C_R   0.200950 0.629682 0.967182 -0.234836
C99   C     C_R   0.234626 0.309785 0.060996 -0.247708
C100  C     C_R   0.799050 0.629682 0.032818 -0.234836
C101  C     C_R   0.234558 0.716643 0.832109 -0.253835
C102  C     C_R   0.757930 0.240696 0.119356 -0.263470
C103  C     C_R   0.765441 0.716643 0.167891 -0.253835
C104  C     C_R   0.242070 0.240697 0.880644 -0.263469
C105  C     C_R   0.805640 0.276521 0.943782 -0.182615
C106  C     C_R   0.147327 0.642889 0.923914 -0.182397
C107  C     C_R   0.194360 0.276521 0.056218 -0.182615
C108  C     C_R   0.852673 0.642889 0.076086 -0.182397
C109  C     C_R   0.283097 0.691288 0.858293 -0.180936
C110  C     C_R   0.707502 0.257267 0.095041 -0.183350
C111  C     C_R   0.716903 0.691288 0.141707 -0.180936
C112  C     C_R   0.292498 0.257267 0.904958 -0.183350
C113  C     C_R   0.575877 0.608314 0.423614 -0.168883
C114  C     C_R   0.406920 0.417702 0.578097 -0.137192
C115  C     C_R   0.424122 0.608314 0.576386 -0.168883
C116  C     C_R   0.593080 0.417702 0.421903 -0.137192
C117  C     C_R   0.076465 0.108183 0.424223 -0.171871
C118  C     C_R   0.906202 0.919099 0.577805 -0.134734
C119  C     C_R   0.923535 0.108183 0.575777 -0.171871
C120  C     C_R   0.093798 0.919099 0.422195 -0.134734
C121  C     C_R   0.382696 0.578597 0.255093 -0.137556
C122  C     C_R   0.614887 0.410512 0.737499 -0.125934
C123  C     C_R   0.617303 0.578597 0.744907 -0.137556
C124  C     C_R   0.385113 0.410512 0.262501 -0.125934
C125  C     C_R   0.885234 0.089878 0.262747 -0.128988
C126  C     C_R   0.103497 0.889165 0.701780 -0.096662
C127  C     C_R   0.114766 0.089878 0.737253 -0.128988
C128  C     C_R   0.896503 0.889165 0.298220 -0.096662
C129  C     C_R   0.596360 0.595408 0.794340 0.099107
C130  C     C_R   0.407392 0.394454 0.214503 0.059630
C131  C     C_R   0.403640 0.595408 0.205659 0.099107
C132  C     C_R   0.592608 0.394454 0.785497 0.059630
C133  C     C_R   0.090602 0.110704 0.779624 0.099827
C134  C     C_R   0.924126 0.859111 0.268188 0.063212
C135  C     C_R   0.909398 0.110704 0.220376 0.099827
C136  C     C_R   0.075874 0.859111 0.731812 0.063212
C137  C     C_R   0.614141 0.640664 0.494736 0.024387
C138  C     C_R   0.357280 0.402639 0.508820 -0.033666
C139  C     C_R   0.385859 0.640664 0.505263 0.024387
C140  C     C_R   0.642720 0.402639 0.491180 -0.033666
C141  C     C_R   0.114845 0.140082 0.495483 0.029579
C142  C     C_R   0.856573 0.904555 0.508644 -0.027131
C143  C     C_R   0.885155 0.140083 0.504517 0.029579
C144  C     C_R   0.143427 0.904555 0.491356 -0.027131
C145  C     C_R   0.329743 0.794758 0.436884 0.180696
C146  C     C_R   0.781644 0.390165 0.543582 0.183970
C147  C     C_R   0.670257 0.794758 0.563116 0.180696
C148  C     C_R   0.218356 0.390165 0.456418 0.183970
C149  C     C_R   0.826175 0.292247 0.430939 0.183196
C150  C     C_R   0.282671 0.891386 0.546403 0.183810
C151  C     C_R   0.173824 0.292247 0.569061 0.183196
C152  C     C_R   0.717329 0.891386 0.453597 0.183810
C153  C     C_R   0.355783 0.741746 0.443625 -0.318935
C154  C     C_R   0.737409 0.410780 0.541814 -0.336987
C155  C     C_R   0.644217 0.741746 0.556375 -0.318935
C156  C     C_R   0.262591 0.410780 0.458186 -0.336987
C157  C     C_R   0.852268 0.239246 0.438591 -0.322625
C158  C     C_R   0.238079 0.913261 0.542527 -0.337180
C159  C     C_R   0.147732 0.239246 0.561409 -0.322625
C160  C     C_R   0.761920 0.913261 0.457473 -0.337180
C161  C     C_R   0.367548 0.700290 0.510254 0.069330
C162  C     C_R   0.687067 0.388176 0.481183 0.060837
C163  C     C_R   0.632452 0.700290 0.489746 0.069330
C164  C     C_R   0.312933 0.388176 0.518817 0.060837
C165  C     C_R   0.866258 0.199581 0.508177 0.061471
C166  C     C_R   0.187932 0.890054 0.482058 0.059032
C167  C     C_R   0.133742 0.199581 0.491823 0.061470
C168  C     C_R   0.812067 0.890054 0.517942 0.059032
H1    H     H_    0.515456 0.580079 0.762165 0.136382
H2    H     H_    0.485359 0.417642 0.239168 0.123618
H3    H     H_    0.484544 0.580079 0.237835 0.136382
H4    H     H_    0.514641 0.417642 0.760831 0.123618
H5    H     H_    0.013851 0.089113 0.758413 0.120469
H6    H     H_    0.998029 0.884197 0.277538 0.131697
H7    H     H_    0.986149 0.089113 0.241587 0.120469
H8    H     H_    0.001971 0.884197 0.722462 0.131697
H9    H     H_    0.741741 0.336093 0.879929 0.138443
H10   H     H_    0.216083 0.592027 0.011562 0.122500
H11   H     H_    0.258259 0.336093 0.120071 0.138443
H12   H     H_    0.783917 0.592027 0.988438 0.122500
H13   H     H_    0.214947 0.743900 0.773103 0.130781
H14   H     H_    0.776364 0.205775 0.168073 0.130517
H15   H     H_    0.785053 0.743900 0.226897 0.130781
H16   H     H_    0.223636 0.205775 0.831927 0.130517
H17   H     H_    0.555342 0.620936 0.355224 0.146902
H18   H     H_    0.419225 0.422330 0.646483 0.141362
H19   H     H_    0.444658 0.620936 0.644776 0.146902
H20   H     H_    0.580775 0.422330 0.353517 0.141362
H21   H     H_    0.056988 0.120798 0.356306 0.146850
H22   H     H_    0.917865 0.924591 0.645761 0.134040
H23   H     H_    0.943012 0.120798 0.643694 0.146850
H24   H     H_    0.082135 0.924591 0.354239 0.134040
H25   H     H_    0.364485 0.731646 0.393898 0.135692
H26   H     H_    0.742962 0.443299 0.589985 0.151215
H27   H     H_    0.635515 0.731646 0.606102 0.135692
H28   H     H_    0.257038 0.443299 0.410015 0.151215
H29   H     H_    0.859942 0.228072 0.388066 0.137764
H30   H     H_    0.243122 0.946534 0.589929 0.151871
H31   H     H_    0.140057 0.228072 0.611934 0.137764
H32   H     H_    0.756878 0.946534 0.410070 0.151871
H33   H     H_    0.828109 0.281548 0.622633 0.139256
H34   H     H_    0.220228 0.797687 0.369122 0.140679
H35   H     H_    0.171891 0.281548 0.377367 0.139256
H36   H     H_    0.779772 0.797687 0.630878 0.140679
H37   H     H_    0.325963 0.778864 0.622784 0.139081
H38   H     H_    0.718296 0.298628 0.364016 0.140926
H39   H     H_    0.674037 0.778864 0.377216 0.139081
H40   H     H_    0.281704 0.298628 0.635984 0.140926
N1    N     N_R   0.532910 0.558440 0.665240 -0.041972
N2    N     N_R   0.467090 0.441560 0.334760 -0.042856
N3    N     N_R   0.467090 0.558440 0.334760 -0.041972
N4    N     N_R   0.532910 0.441560 0.665240 -0.042857
N5    N     N_R   0.032910 0.058440 0.665240 -0.040787
N6    N     N_R   0.967090 0.941560 0.334760 -0.044885
N7    N     N_R   0.967090 0.058440 0.334760 -0.040787
N8    N     N_R   0.032910 0.941560 0.665240 -0.044886
N9    N     N_R   0.597030 0.558910 0.545540 -0.064277
N10   N     N_R   0.402970 0.441090 0.454460 -0.056673
N11   N     N_R   0.402970 0.558910 0.454460 -0.064277
N12   N     N_R   0.597030 0.441090 0.545540 -0.056673
N13   N     N_R   0.097030 0.058910 0.545540 -0.065116
N14   N     N_R   0.902970 0.941090 0.454460 -0.059961
N15   N     N_R   0.902970 0.058910 0.454460 -0.065116
N16   N     N_R   0.097030 0.941090 0.545540 -0.059961
N17   N     N_R   0.566200 0.559270 0.454460 -0.056640
N18   N     N_R   0.433800 0.440730 0.545540 -0.058773
N19   N     N_R   0.433800 0.559270 0.545540 -0.056640
N20   N     N_R   0.566200 0.440730 0.454460 -0.058773
N21   N     N_R   0.066200 0.059270 0.454460 -0.055034
N22   N     N_R   0.933800 0.940730 0.545540 -0.057931
N23   N     N_R   0.933800 0.059270 0.545540 -0.055034
N24   N     N_R   0.066200 0.940730 0.454460 -0.057931
N25   N     N_R   0.421050 0.559750 0.334770 -0.048451
N26   N     N_R   0.578950 0.440250 0.665230 -0.042694
N27   N     N_R   0.578950 0.559750 0.665230 -0.048451
N28   N     N_R   0.421050 0.440250 0.334770 -0.042694
N29   N     N_R   0.921050 0.059750 0.334770 -0.046292
N30   N     N_R   0.078950 0.940250 0.665230 -0.042256
N31   N     N_R   0.078950 0.059750 0.665230 -0.046292
N32   N     N_R   0.921050 0.940250 0.334770 -0.042256
Ni1   Ni    Ni4+2 0.483090 0.500000 0.604440 0.201067
Ni2   Ni    Ni4+2 0.516910 0.500000 0.395560 0.201067
Ni3   Ni    Ni4+2 0.983090 1.000000 0.604440 0.204079
Ni4   Ni    Ni4+2 0.016910 1.000000 0.395560 0.204079
Ni5   Ni    Ni4+2 0.586780 0.500000 0.604440 0.214090
Ni6   Ni    Ni4+2 0.413220 0.500000 0.395560 0.214090
Ni7   Ni    Ni4+2 0.086780 1.000000 0.604440 0.216291
Ni8   Ni    Ni4+2 0.913220 1.000000 0.395560 0.216291
N33   N     N_2   0.704468 0.421411 0.922081 -0.120792
H41   H     H_    0.744851 0.417880 0.960395 0.181447
C169  C     C_3   0.688399 0.478876 0.935269 -0.924196
H42   H     H_    0.693578 0.481131 0.001401 0.260676
H43   H     H_    0.646960 0.487986 0.883378 0.262036
H44   H     H_    0.712840 0.513872 0.931062 0.236095
N34   N     N_2   0.307478 0.659696 0.137506 -0.116207
H45   H     H_    0.272397 0.646404 0.128720 0.173755
C170  C     C_3   0.317551 0.722458 0.155467 -0.909684
H46   H     H_    0.291318 0.748666 0.094706 0.254879
H47   H     H_    0.359287 0.732575 0.179981 0.258963
H48   H     H_    0.309902 0.735602 0.207131 0.230308
N35   N     N_2   0.295532 0.421411 0.077919 -0.120792
H49   H     H_    0.255149 0.417880 0.039605 0.181447
C171  C     C_3   0.311601 0.478876 0.064731 -0.924194
H50   H     H_    0.306422 0.481131 0.998599 0.260676
H51   H     H_    0.353040 0.487986 0.116622 0.262035
H52   H     H_    0.287160 0.513872 0.068938 0.236095
N36   N     N_2   0.692522 0.659696 0.862494 -0.116207
H53   H     H_    0.727603 0.646404 0.871279 0.173755
C172  C     C_3   0.682449 0.722458 0.844533 -0.909684
H54   H     H_    0.708682 0.748666 0.905294 0.254879
H55   H     H_    0.640713 0.732575 0.820019 0.258963
H56   H     H_    0.690098 0.735602 0.792868 0.230308
N37   N     N_2   0.184802 0.831198 0.854361 -0.118582
H57   H     H_    0.220720 0.820045 0.864797 0.180800
C173  C     C_3   0.190696 0.865639 0.927290 -0.901502
H58   H     H_    0.205484 0.836960 0.986513 0.249709
H59   H     H_    0.152668 0.885880 0.909629 0.259831
H60   H     H_    0.219329 0.902052 0.943597 0.243365
N38   N     N_2   0.875835 0.223907 0.246960 -0.120438
H61   H     H_    0.852087 0.256728 0.246728 0.170033
C174  C     C_3   0.930340 0.241211 0.306186 -0.902084
H62   H     H_    0.940210 0.278564 0.277157 0.250821
H63   H     H_    0.957521 0.203792 0.320121 0.261322
H64   H     H_    0.936691 0.255938 0.370328 0.245277
N39   N     N_2   0.815198 0.831198 0.145639 -0.118583
H65   H     H_    0.779280 0.820045 0.135203 0.180799
C175  C     C_3   0.809304 0.865639 0.072710 -0.901501
H66   H     H_    0.794516 0.836960 0.013487 0.249708
H67   H     H_    0.847332 0.885880 0.090371 0.259831
H68   H     H_    0.780671 0.902052 0.056403 0.243365
N40   N     N_2   0.124165 0.223907 0.753040 -0.120438
H69   H     H_    0.147913 0.256728 0.753272 0.170033
C176  C     C_3   0.069660 0.241211 0.693814 -0.902085
H70   H     H_    0.059790 0.278564 0.722843 0.250821
H71   H     H_    0.042479 0.203792 0.679879 0.261322
H72   H     H_    0.063309 0.255938 0.629672 0.245277
N41   N     N_2   0.539681 0.326570 0.856946 -0.118583
H73   H     H_    0.523653 0.324024 0.895170 0.162665
C177  C     C_3   0.522304 0.278188 0.794200 -0.922084
H74   H     H_    0.478724 0.276775 0.753562 0.251826
H75   H     H_    0.537114 0.235215 0.829605 0.250641
H76   H     H_    0.536507 0.284295 0.749002 0.263352
N42   N     N_2   0.440727 0.587443 0.080667 -0.119708
H77   H     H_    0.460100 0.609311 0.055767 0.168723
C178  C     C_3   0.439744 0.523953 0.067984 -0.956739
H78   H     H_    0.480087 0.508008 0.091818 0.247806
H79   H     H_    0.413541 0.512696 0.996740 0.261870
H80   H     H_    0.426005 0.500795 0.106446 0.259512
N43   N     N_2   0.460319 0.326570 0.143054 -0.118583
H81   H     H_    0.476347 0.324024 0.104829 0.162665
C179  C     C_3   0.477696 0.278188 0.205800 -0.922084
H82   H     H_    0.521276 0.276775 0.246438 0.251826
H83   H     H_    0.462886 0.235215 0.170395 0.250641
H84   H     H_    0.463493 0.284295 0.250998 0.263352
N44   N     N_2   0.559273 0.587443 0.919333 -0.119708
H85   H     H_    0.539900 0.609311 0.944233 0.168723
C180  C     C_3   0.560256 0.523953 0.932016 -0.956739
H86   H     H_    0.519913 0.508008 0.908181 0.247806
H87   H     H_    0.586459 0.512696 0.003260 0.261870
H88   H     H_    0.573995 0.500795 0.893554 0.259512
N45   N     N_2   0.000270 0.771426 0.723814 -0.115748
H89   H     H_    0.979706 0.752317 0.748578 0.168132
C181  C     C_3   0.976022 0.759433 0.630445 -0.914321
H90   H     H_    0.934106 0.773080 0.594053 0.247699
H91   H     H_    0.978158 0.711242 0.619597 0.249284
H92   H     H_    0.995727 0.784792 0.603139 0.259526
N46   N     N_2   0.921898 0.106536 0.068649 -0.116666
H93   H     H_    0.939363 0.118773 0.034867 0.166827
C182  C     C_3   0.892957 0.051536 0.035552 -0.921046
H94   H     H_    0.918843 0.016994 0.034454 0.247011
H95   H     H_    0.858337 0.057815 0.967234 0.252696
H96   H     H_    0.879511 0.035639 0.078785 0.259912
N47   N     N_2   0.999730 0.771426 0.276186 -0.115748
H97   H     H_    0.020294 0.752317 0.251422 0.168132
C183  C     C_3   0.023978 0.759433 0.369555 -0.914320
H98   H     H_    0.065894 0.773080 0.405947 0.247699
H99   H     H_    0.021842 0.711242 0.380403 0.249283
H100  H     H_    0.004273 0.784792 0.396861 0.259526
N48   N     N_2   0.078102 0.106536 0.931351 -0.116666
H101  H     H_    0.060637 0.118773 0.965133 0.166827
C184  C     C_3   0.107043 0.051536 0.964448 -0.921049
H102  H     H_    0.081157 0.016994 0.965546 0.247012
H103  H     H_    0.141663 0.057815 0.032766 0.252697
H104  H     H_    0.120489 0.035639 0.921215 0.259912
H105  H     H_    0.378011 0.641962 0.929231 0.135510
H106  H     H_    0.605444 0.280287 0.014600 0.134524
H107  H     H_    0.621989 0.641962 0.070769 0.135510
H108  H     H_    0.394555 0.280287 0.985400 0.134525
H109  H     H_    0.875034 0.196955 0.957691 0.135183
H110  H     H_    0.047008 0.679821 0.832161 0.133013
H111  H     H_    0.124966 0.196955 0.042309 0.135183
H112  H     H_    0.952991 0.679821 0.167839 0.133013
N49   N     N_2   0.672777 0.616418 0.656528 -0.118365
H113  H     H_    0.667838 0.649801 0.690472 0.177535
C185  C     C_3   0.722625 0.620468 0.662973 -0.965003
H114  H     H_    0.728406 0.665639 0.645037 0.255613
H115  H     H_    0.724819 0.587620 0.618869 0.258208
H116  H     H_    0.754965 0.611334 0.732164 0.255124
N50   N     N_2   0.312276 0.412743 0.343672 -0.130407
H117  H     H_    0.283568 0.383315 0.334295 0.162564
C186  C     C_3   0.292278 0.467630 0.294947 -0.973797
H118  H     H_    0.262413 0.457641 0.224561 0.249491
H119  H     H_    0.324262 0.493504 0.297758 0.273546
H120  H     H_    0.273594 0.494698 0.322019 0.260946
N51   N     N_2   0.327223 0.616418 0.343472 -0.118365
H121  H     H_    0.332162 0.649801 0.309528 0.177535
C187  C     C_3   0.277375 0.620468 0.337027 -0.965003
H122  H     H_    0.245035 0.611334 0.267836 0.255124
H123  H     H_    0.271594 0.665639 0.354963 0.255613
H124  H     H_    0.275180 0.587620 0.381131 0.258208
N52   N     N_2   0.687724 0.412743 0.656328 -0.130407
H125  H     H_    0.716432 0.383315 0.665705 0.162564
C188  C     C_3   0.707722 0.467630 0.705053 -0.973796
H126  H     H_    0.737587 0.457641 0.775439 0.249491
H127  H     H_    0.675737 0.493504 0.702242 0.273546
H128  H     H_    0.726406 0.494698 0.677980 0.260946
N53   N     N_2   0.178230 0.110046 0.652101 -0.121569
H129  H     H_    0.183315 0.148303 0.687108 0.157202
C189  C     C_3   0.223047 0.098025 0.645309 -0.955168
H130  H     H_    0.228701 0.134556 0.609615 0.253333
H131  H     H_    0.217506 0.055547 0.609823 0.267607
H132  H     H_    0.259006 0.094487 0.712643 0.250133
N54   N     N_2   0.810508 0.915002 0.344436 -0.133666
H133  H     H_    0.781004 0.885865 0.332209 0.158196
C190  C     C_3   0.796531 0.963418 0.282826 -0.940696
H134  H     H_    0.790675 0.946173 0.220203 0.255899
H135  H     H_    0.827290 0.997930 0.309006 0.278647
H136  H     H_    0.759047 0.983540 0.267899 0.252701
N55   N     N_2   0.821770 0.110046 0.347899 -0.121568
H137  H     H_    0.816685 0.148303 0.312892 0.157202
C191  C     C_3   0.776953 0.098025 0.354691 -0.955165
H138  H     H_    0.740994 0.094487 0.287357 0.250132
H139  H     H_    0.771299 0.134556 0.390385 0.253332
H140  H     H_    0.782494 0.055547 0.390177 0.267606
N56   N     N_2   0.189492 0.915002 0.655564 -0.133666
H141  H     H_    0.218995 0.885865 0.667791 0.158197
C192  C     C_3   0.203469 0.963418 0.717174 -0.940697
H142  H     H_    0.209325 0.946173 0.779797 0.255899
H143  H     H_    0.172710 0.997930 0.690994 0.278647
H144  H     H_    0.240953 0.983540 0.732101 0.252701
H145  H     H_    0.341665 0.569862 0.228486 0.119755
H146  H     H_    0.655465 0.405585 0.759021 0.158023
H147  H     H_    0.658335 0.569862 0.771514 0.119755
H148  H     H_    0.344535 0.405585 0.240979 0.158023
H149  H     H_    0.843766 0.092321 0.236935 0.109449
H150  H     H_    0.136962 0.872249 0.702880 0.140131
H151  H     H_    0.156234 0.092321 0.763065 0.109449
H152  H     H_    0.863038 0.872249 0.297120 0.140131
N57   N     N_2   0.309553 0.830387 0.359326 -0.110654
H153  H     H_    0.309418 0.809882 0.307814 0.167017
C193  C     C_3   0.329027 0.890595 0.373245 -0.911934
H154  H     H_    0.313920 0.912365 0.308333 0.248509
H155  H     H_    0.372718 0.890844 0.410983 0.249411
H156  H     H_    0.314802 0.916774 0.408553 0.264039
N58   N     N_2   0.832845 0.406905 0.615030 -0.112251
H157  H     H_    0.833536 0.427541 0.666993 0.166407
C194  C     C_3   0.865740 0.436538 0.590564 -0.919024
H158  H     H_    0.902843 0.451129 0.651164 0.247018
H159  H     H_    0.845292 0.476169 0.549278 0.248505
H160  H     H_    0.876502 0.405863 0.554538 0.265055
N59   N     N_2   0.690447 0.830387 0.640674 -0.110654
H161  H     H_    0.690581 0.809882 0.692186 0.167017
C195  C     C_3   0.670972 0.890595 0.626755 -0.911934
H162  H     H_    0.686080 0.912365 0.691667 0.248509
H163  H     H_    0.627282 0.890844 0.589017 0.249411
H164  H     H_    0.685198 0.916774 0.591446 0.264039
N60   N     N_2   0.167155 0.406905 0.384970 -0.112251
H165  H     H_    0.166464 0.427542 0.333007 0.166407
C196  C     C_3   0.134260 0.436538 0.409436 -0.919024
H166  H     H_    0.097157 0.451129 0.348836 0.247019
H167  H     H_    0.154708 0.476168 0.450723 0.248505
H168  H     H_    0.123498 0.405862 0.445461 0.265055
N61   N     N_2   0.804108 0.326140 0.351477 -0.112086
H169  H     H_    0.801207 0.303748 0.298898 0.168734
C197  C     C_3   0.824765 0.385479 0.361354 -0.909111
H170  H     H_    0.807311 0.406246 0.295163 0.250671
H171  H     H_    0.868204 0.384133 0.393956 0.249183
H172  H     H_    0.814049 0.413437 0.400116 0.262777
N62   N     N_2   0.333630 0.907262 0.619416 -0.111446
H173  H     H_    0.333644 0.927786 0.670849 0.166440
C198  C     C_3   0.367843 0.936536 0.597518 -0.917485
H174  H     H_    0.404482 0.950788 0.659214 0.247580
H175  H     H_    0.348193 0.976361 0.556094 0.248843
H176  H     H_    0.379340 0.905683 0.562733 0.265641
N63   N     N_2   0.195892 0.326140 0.648522 -0.112085
H177  H     H_    0.198792 0.303748 0.701101 0.168734
C199  C     C_3   0.175235 0.385479 0.638645 -0.909114
H178  H     H_    0.192688 0.406246 0.704836 0.250672
H179  H     H_    0.131796 0.384134 0.606042 0.249184
H180  H     H_    0.185952 0.413438 0.599884 0.262778
N64   N     N_2   0.666370 0.907262 0.380584 -0.111446
H181  H     H_    0.666356 0.927786 0.329151 0.166440
C200  C     C_3   0.632157 0.936536 0.402482 -0.917486
H182  H     H_    0.595518 0.950788 0.340786 0.247580
H183  H     H_    0.651807 0.976361 0.443906 0.248843
H184  H     H_    0.620660 0.905683 0.437266 0.265641
N65   N     N_2   0.370585 0.674709 0.646677 -0.114719
H185  H     H_    0.337033 0.662122 0.644498 0.168729
C201  C     C_3   0.412240 0.692318 0.734730 -0.969120
H186  H     H_    0.421367 0.655027 0.781307 0.249445
H187  H     H_    0.399941 0.731263 0.757345 0.254059
H188  H     H_    0.448492 0.703529 0.735909 0.261386
N66   N     N_2   0.629178 0.331751 0.343747 -0.114928
H189  H     H_    0.625518 0.286236 0.343341 0.164536
C202  C     C_3   0.611926 0.354778 0.256812 -0.958722
H190  H     H_    0.570437 0.342119 0.209445 0.252666
H191  H     H_    0.636241 0.336290 0.232869 0.254790
H192  H     H_    0.614562 0.403998 0.258400 0.258710
N67   N     N_2   0.629415 0.674709 0.353323 -0.114719
H193  H     H_    0.662967 0.662122 0.355502 0.168729
C203  C     C_3   0.587760 0.692318 0.265270 -0.969118
H194  H     H_    0.578634 0.655027 0.218693 0.249445
H195  H     H_    0.600059 0.731263 0.242654 0.254059
H196  H     H_    0.551508 0.703529 0.264091 0.261386
N68   N     N_2   0.370822 0.331751 0.656253 -0.114928
H197  H     H_    0.374482 0.286236 0.656659 0.164536
C204  C     C_3   0.388074 0.354778 0.743187 -0.958723
H198  H     H_    0.429562 0.342119 0.790555 0.252667
H199  H     H_    0.363759 0.336290 0.767131 0.254791
H200  H     H_    0.385438 0.403998 0.741599 0.258710
N69   N     N_2   0.874653 0.178562 0.650421 -0.116663
H201  H     H_    0.842757 0.167092 0.654031 0.169279
C205  C     C_3   0.918657 0.198662 0.734824 -0.966902
H202  H     H_    0.930034 0.163229 0.784972 0.249295
H203  H     H_    0.907819 0.239032 0.757085 0.255606
H204  H     H_    0.953121 0.208626 0.729971 0.261552
N70   N     N_2   0.130943 0.827909 0.351171 -0.115276
H205  H     H_    0.129583 0.782384 0.355460 0.165860
C206  C     C_3   0.110270 0.847168 0.261299 -0.949594
H206  H     H_    0.068860 0.832235 0.218301 0.246675
H207  H     H_    0.133585 0.827838 0.235972 0.254450
H208  H     H_    0.111120 0.896348 0.257872 0.256953
N71   N     N_2   0.125347 0.178561 0.349579 -0.116663
H209  H     H_    0.157244 0.167092 0.345970 0.169279
C207  C     C_3   0.081343 0.198661 0.265176 -0.966902
H210  H     H_    0.069966 0.163229 0.215029 0.249295
H211  H     H_    0.092182 0.239032 0.242915 0.255607
H212  H     H_    0.046880 0.208626 0.270028 0.261551
N72   N     N_2   0.869057 0.827909 0.648829 -0.115276
H213  H     H_    0.870417 0.782384 0.644540 0.165860
C208  C     C_3   0.889730 0.847168 0.738701 -0.949596
H214  H     H_    0.931140 0.832235 0.781699 0.246675
H215  H     H_    0.866415 0.827838 0.764027 0.254450
H216  H     H_    0.888880 0.896348 0.742128 0.256953
H217  H     H_    0.812342 0.279236 0.890278 0.124916
H218  H     H_    0.122391 0.616052 0.936867 0.126808
H219  H     H_    0.187658 0.279236 0.109721 0.124917
H220  H     H_    0.877608 0.616052 0.063133 0.126808
H221  H     H_    0.300471 0.699958 0.819942 0.127225
H222  H     H_    0.689541 0.235952 0.126600 0.126726
H223  H     H_    0.699529 0.699958 0.180058 0.127225
H224  H     H_    0.310459 0.235952 0.873400 0.126727

loop_
_geom_bond_atom_site_label_1
_geom_bond_atom_site_label_2
_ccdc_geom_bond_type
C191  H140  S    
C63   N40   S    
C201  H186  S    
N34   C170  S    
C193  H155  S    
C119  C143  A    
N65   H185  S    
N40   H69   S    
C46   H110  S    
N60   H165  S    
C125  N29   A    
N42   C178  S    
N67   H193  S    
C174  H64   S    
C127  N31   A    
C9    N65   S    
C11   N67   S    
C3    C131  A    
N9    Ni5   S    
C1    C129  A    
C192  H143  S    
C197  H172  S    
N61   C197  S    
C202  H192  S    
C62   C70   A    
N6    Ni4   S    
C90   C138  A    
C207  H210  S    
N72   C208  S    
C120  C144  A    
N30   Ni7   S    
C175  H67   S    
C38   C136  S    
C147  C155  A    
C81   C86   A    
C119  N23   A    
C97   C105  A    
C125  C135  A    
N8    Ni3   S    
C122  H146  S    
C83   C88   A    
C71   C87   A    
C126  C136  A    
C10   C162  A    
C41   C49   A    
N49   C185  S    
C195  H164  S    
C43   C75   A    
C186  H120  S    
N44   C180  S    
N66   H189  S    
C102  H14   S    
N28   Ni6   S    
C189  H130  S    
N2    Ni2   S    
C188  H128  S    
C183  H99   S    
C198  H176  S    
N13   Ni7   S    
N17   Ni2   S    
N47   H97   S    
C21   C29   A    
C153  C161  A    
C23   C31   A    
C200  H184  S    
N6    N32   A    
C199  H179  S    
C115  N19   A    
C36   C130  S    
C96   C144  A    
N16   Ni7   S    
C113  N17   A    
N42   H77   S    
C146  C154  A    
C5    N5    A    
C12   C20   A    
C13   C21   A    
N70   C206  S    
C124  H148  S    
C122  N26   A    
C169  H43   S    
C63   C71   A    
N33   C169  S    
C83   C100  A    
C172  H55   S    
C35   C51   A    
N55   H137  S    
C103  H15   S    
C112  H224  S    
N1    Ni1   S    
N54   H133  S    
C126  N30   A    
C195  H162  S    
C137  C163  S    
C171  H51   S    
C42   H106  S    
C8    N8    A    
C74   C110  A    
N4    N26   A    
C82   C85   A    
C98   C106  A    
C59   N36   S    
C78   C106  A    
N8    N30   A    
C17   C25   A    
N39   C175  S    
N51   H121  S    
C10   C18   A    
C77   C105  A    
C158  H30   S    
C159  C167  A    
C187  H124  S    
C160  C168  A    
N63   H177  S    
C198  H175  S    
C142  C168  S    
C183  H98   S    
C124  N28   A    
C205  H204  S    
C204  H199  S    
N45   H89   S    
C23   H35   S    
N50   H117  S    
C34   C58   A    
N57   H153  S    
C33   C49   A    
N10   N18   A    
C43   H107  S    
C38   C62   A    
C10   N66   S    
C67   C83   A    
N59   H161  S    
C118  H22   S    
C69   C77   A    
C120  N24   A    
C149  N61   S    
C4    C132  A    
C196  H166  S    
C5    C133  A    
C201  H187  S    
N33   H41   S    
N4    Ni1   S    
C35   C59   A    
N40   C176  S    
N62   C198  S    
N26   Ni5   S    
N35   H49   S    
C51   N44   S    
C140  C162  S    
C66   C74   A    
C115  H19   S    
C180  H87   S    
C170  H46   S    
C26   C146  A    
C59   C67   A    
C178  H79   S    
N58   C194  S    
N7    N29   A    
C98   H10   S    
C20   C28   A    
C36   C52   A    
C107  H219  S    
C37   C53   A    
C44   C52   A    
N38   C174  S    
C45   C53   A    
C208  H214  S    
N41   C177  S    
N3    Ni2   S    
C15   C167  A    
C120  H24   S    
C11   C163  A    
C194  H159  S    
N37   H57   S    
N47   C183  S    
C184  H103  S    
C3    N3    A    
C90   N50   S    
C100  C108  A    
C1    N1    A    
C94   C142  A    
C16   N72   S    
C6    H6    S    
C173  H60   S    
N50   C186  S    
C157  C165  A    
C104  C112  A    
N21   Ni4   S    
C189  H132  S    
C155  C163  A    
C40   C134  S    
C95   N15   A    
N3    N25   A    
C181  H91   S    
C151  C159  A    
C176  H70   S    
C128  C134  A    
C31   C151  A    
C205  H202  S    
C32   C152  A    
C113  H17   S    
C37   C135  S    
N69   H201  S    
N11   Ni6   S    
C9    C161  A    
C206  H207  S    
C117  H21   S    
C42   C50   A    
C185  H115  S    
C93   N53   S    
C179  H83   S    
C180  H88   S    
C67   C75   A    
C100  H12   S    
C95   N55   S    
C69   C85   A    
N55   C191  S    
C196  H168  S    
C191  H139  S    
C185  H114  S    
C4    H4    S    
C5    H5    S    
C154  C162  A    
C34   C50   A    
N36   H53   S    
C8    H8    S    
C103  C111  A    
C174  H63   S    
C80   C108  A    
C12   N68   S    
C44   H108  S    
C170  H48   S    
C145  N57   S    
C14   C22   A    
C17   H37   S    
C72   C80   A    
C192  H142  S    
C117  N21   A    
C202  H191  S    
C207  H212  S    
C114  C138  A    
C111  H223  S    
C177  H76   S    
C90   N10   A    
C41   C73   A    
N64   H181  S    
C153  H25   S    
N14   N22   A    
C96   N16   A    
C208  H216  S    
N70   H205  S    
C94   N14   A    
C58   N33   S    
C45   C77   A    
C146  N58   S    
C197  H171  S    
C172  H54   S    
C56   N47   S    
C118  N22   A    
C89   N49   S    
C116  N20   A    
C64   N39   S    
N12   Ni5   S    
C95   C143  A    
C8    C136  A    
N51   C187  S    
N65   C201  S    
C173  H58   S    
C18   C26   A    
C148  N60   S    
N49   H113  S    
C101  H13   S    
C171  H50   S    
C195  H163  S    
C186  H119  S    
C11   C19   A    
C125  H149  S    
C156  H28   S    
C123  H147  S    
C176  H72   S    
C188  H127  S    
C121  H145  S    
C30   C150  A    
C81   C98   A    
N59   C195  S    
C101  C109  A    
N52   H125  S    
C53   N46   S    
N12   N20   A    
N31   Ni7   S    
C33   C131  S    
C182  H94   S    
C109  H221  S    
C200  H183  S    
C143  C165  S    
C152  N64   S    
N14   Ni8   S    
C39   C55   A    
C40   C56   A    
N38   H61   S    
C150  N62   S    
N2    N28   A    
C22   C30   A    
C91   N51   S    
C159  H31   S    
N44   H85   S    
N71   H209  S    
C193  H156  S    
C61   N38   S    
C110  H222  S    
C60   N35   S    
C71   C79   A    
C92   N52   S    
N15   N23   A    
N67   C203  S    
C141  C167  S    
C28   C148  A    
C22   H34   S    
C199  H178  S    
C68   C84   A    
C139  C161  S    
C169  H42   S    
C192  H144  S    
C46   C78   A    
C47   H111  S    
C118  C142  A    
N43   H81   S    
C181  H90   S    
C144  C166  S    
C57   N34   S    
C117  C141  A    
C203  H194  S    
C99   H11   S    
N39   H65   S    
C21   H33   S    
C114  N18   A    
N60   C196  S    
C65   C81   A    
N48   H101  S    
C6    N6    A    
C151  N63   S    
C45   H109  S    
C46   C54   A    
C96   N56   S    
N7    Ni4   S    
C175  H68   S    
C79   C107  A    
C187  H123  S    
C54   N45   S    
C94   N54   S    
C2    H2    S    
C123  N27   A    
C205  H203  S    
C121  N25   A    
C13   N69   S    
C82   C97   A    
C102  C110  A    
C68   C76   A    
C92   C140  A    
C93   C141  A    
C37   C61   A    
C158  C166  A    
C190  H134  S    
C39   C133  S    
C25   C30   S    
C190  H135  S    
C150  C158  A    
C127  H151  S    
C27   C32   S    
N24   Ni4   S    
C84   C99   A    
C128  H152  S    
C28   C31   S    
C127  C133  A    
C57   C65   A    
C4    N4    A    
C183  H100  S    
N56   H141  S    
C73   C109  A    
C128  N32   A    
C99   C107  A    
C75   C111  A    
C114  H18   S    
C203  H195  S    
C199  H180  S    
N46   H93   S    
N36   C172  S    
C43   C51   A    
C12   C164  A    
C2    C130  A    
C157  H29   S    
C155  H27   S    
C87   C104  A    
C60   C68   A    
C6    C134  A    
C178  H78   S    
C172  H56   S    
N13   N21   A    
C193  H154  S    
N32   Ni8   S    
C148  C156  A    
N11   N19   A    
C149  C157  A    
C7    N7    A    
N64   C200  S    
C171  H52   S    
C179  H82   S    
C152  C160  A    
C70   C78   A    
C93   N13   A    
N41   H73   S    
C187  H122  S    
C84   C87   A    
C47   C79   A    
N62   H173  S    
C24   C32   A    
C194  H158  S    
C191  H138  S    
C160  H32   S    
C184  H102  S    
C116  H20   S    
C204  H198  S    
N10   Ni6   S    
C173  H59   S    
C119  H23   S    
C204  H200  S    
N16   N24   A    
N25   Ni6   S    
C189  H131  S    
C66   C82   A    
C55   N48   S    
N72   H213  S    
C49   N42   S    
C65   C73   A    
C52   N43   S    
C92   N12   A    
N1    N27   A    
N63   C199  S    
C147  N59   S    
N22   Ni3   S    
C48   H112  S    
N37   C173  S    
C13   C165  A    
C58   C66   A    
C175  H66   S    
N45   C181  S    
C38   C54   A    
C88   C103  A    
N57   C193  S    
C19   C27   A    
C206  H206  S    
C35   C129  S    
C190  H136  S    
C145  C153  A    
C106  H218  S    
C15   C23   A    
C34   C132  S    
C16   C24   A    
C97   H9    S    
C123  C129  A    
C19   H39   S    
C126  H150  S    
C180  H86   S    
C121  C131  A    
C122  C132  A    
C72   C88   A    
C196  H167  S    
C201  H188  S    
C2    N2    A    
N53   C189  S    
C124  C130  A    
N5    Ni3   S    
C203  H196  S    
N68   H197  S    
N35   C171  S    
C177  H74   S    
N18   Ni1   S    
N52   C188  S    
C174  H62   S    
C89   N9    A    
C14   N70   S    
N29   Ni8   S    
C7    H7    S    
C170  H47   S    
C62   N37   S    
C41   H105  S    
N54   C190  S    
C7    C135  A    
N58   H157  S    
C76   C112  A    
C178  H80   S    
C202  H190  S    
C182  H95   S    
C207  H211  S    
C177  H75   S    
N53   H129  S    
C42   C74   A    
C108  H220  S    
C9    C17   A    
N48   C184  S    
C208  H215  S    
C182  H96   S    
C91   C139  A    
C14   C166  A    
C20   H40   S    
N34   H45   S    
C70   C86   A    
C194  H160  S    
C47   C55   A    
C184  H104  S    
C61   C69   A    
C48   C56   A    
C15   N71   S    
C24   H36   S    
C33   C57   A    
C104  H16   S    
C50   N41   S    
C115  C139  A    
N5    N31   A    
N19   Ni1   S    
C25   C145  A    
N15   Ni8   S    
C39   C63   A    
C186  H118  S    
C89   C137  A    
N68   C204  S    
C40   C64   A    
C18   H38   S    
C181  H92   S    
C48   C80   A    
N71   C207  S    
C176  H71   S    
C188  H126  S    
N56   C192  S    
C3    H3    S    
C198  H174  S    
N43   C179  S    
N46   C182  S    
C16   C168  A    
C1    H1    S    
N69   C205  S    
C113  C137  A    
C64   C72   A    
C91   N11   A    
C200  H182  S    
C169  H44   S    
C206  H208  S    
C29   C149  A    
C85   C102  A    
C105  H217  S    
C197  H170  S    
C154  H26   S    
N23   Ni3   S    
C185  H116  S    
N20   Ni2   S    
C156  C164  A    
C26   C29   S    
C27   C147  A    
N61   H169  S    
C179  H84   S    
N9    N17   A    
N66   C202  S    
C36   C60   A    
C138  C164  S    
C44   C76   A    
C86   C101  A    
N27   Ni5   S    
C116  C140  A    
