data_mof_unit_51588.cif
_audit_creation_date              2012-12-10T17:44:33-0500
_audit_creation_method            fapswitch 2.2
_symmetry_space_group_name_H-M    P1
_symmetry_Int_Tables_number       1
_space_group_crystal_system       triclinic
_cell_length_a                    9.926053
_cell_length_b                    10.591785
_cell_length_c                    15.494736
_cell_angle_alpha                 91.956898
_cell_angle_beta                  68.439508
_cell_angle_gamma                 89.956573
_cell_volume                      1514.0111345

loop_
_atom_site_label
_atom_site_type_symbol
_atom_type_description
_atom_site_fract_x
_atom_site_fract_y
_atom_site_fract_z
_atom_type_partial_charge
C1    C     C_R   0.500474 0.739285 0.499203 0.845615
C2    C     C_R   0.748398 0.470565 0.028043 0.008750
C3    C     C_R   0.603408 0.437297 0.079195 -0.112571
C4    C     C_R   0.410032 0.496523 0.675501 0.867692
C5    C     C_R   0.844050 0.493404 0.074576 -0.097403
C6    C     C_R   0.793250 0.497278 0.171015 -0.282434
C7    C     C_R   0.548809 0.458490 0.176179 0.478641
C8    C     C_R   0.542804 0.859673 0.326767 -0.264684
C9    C     C_R   0.559274 0.919648 0.244515 0.597234
C10   C     C_R   0.557672 0.052831 0.245424 -0.250463
C11   C     C_R   0.537049 0.122661 0.327419 -0.254845
C12   C     C_R   0.441636 0.422784 0.899200 0.068361
C13   C     C_R   0.519216 0.061491 0.410430 0.086683
C14   C     C_R   0.520877 0.929538 0.410265 0.023706
C15   C     C_R   0.503892 0.871362 0.494011 -0.049349
C16   C     C_R   0.500754 0.260679 0.498726 0.863208
C17   C     C_R   0.490792 0.939402 0.575026 -0.203459
C18   C     C_R   0.491001 0.068482 0.574913 -0.187894
C19   C     C_R   0.503437 0.128178 0.493901 -0.071418
C20   C     C_R   0.793597 0.672953 0.618047 -0.281197
C21   C     C_R   0.832415 0.761405 0.674058 0.559395
C22   C     C_R   0.973243 0.760316 0.672091 -0.283673
C23   C     C_R   0.310888 0.357902 0.944509 0.031265
C24   C     C_R   0.072881 0.669620 0.618589 -0.225056
C25   C     C_R   0.038831 0.583508 0.558806 0.166687
C26   C     C_R   0.894556 0.584275 0.558598 0.114533
C27   C     C_R   0.960882 0.419773 0.443774 -0.117592
C28   C     C_R   0.590081 0.496992 0.324054 0.862218
C29   C     C_R   0.103912 0.419869 0.443753 -0.081034
C30   C     C_R   0.360610 0.465706 0.773172 -0.151169
C31   C     C_R   0.645127 0.484655 0.222401 -0.155951
C32   C     C_R   0.208114 0.343454 0.901581 0.525733
C33   C     C_R   0.234391 0.397413 0.815461 -0.226919
C34   C     C_R   0.549452 0.430641 0.938674 0.015171
C35   C     C_R   0.459208 0.482008 0.817108 -0.277038
C36   C     C_3   0.521671 0.890336 0.105715 -0.386108
C37   C     C_3   0.613988 0.808155 0.790971 -0.375244
C38   C     C_3   0.343602 0.580028 0.218678 -0.240889
C39   C     C_3   0.940603 0.653002 0.882489 -0.362116
C40   C     C_3   0.088512 0.160786 0.900825 -0.335211
C41   C     C_R   0.512342 0.398119 0.031670 0.076787
C42   C     C_R   0.385936 0.327357 0.074113 -0.163375
C43   C     C_R   0.287298 0.306602 0.030699 -0.241992
C44   C     C_R   0.692889 0.468836 0.888479 -0.349509
C45   C     C_R   0.792629 0.485821 0.932000 0.566125
H1    H     H_    0.191133 0.252749 0.065890 0.191026
H2    H     H_    0.957609 0.511416 0.036853 0.192559
H3    H     H_    0.479094 0.892290 0.638369 0.139548
H4    H     H_    0.548727 0.757719 0.324367 0.143901
H5    H     H_    0.586917 0.966548 0.062841 0.183658
H6    H     H_    0.408178 0.923082 0.145110 0.160361
H7    H     H_    0.517121 0.812319 0.057243 0.191154
H8    H     H_    0.479723 0.122140 0.638167 0.147361
H9    H     H_    0.933708 0.354277 0.397755 0.147222
H10   H     H_    0.640564 0.734203 0.831723 0.153330
H11   H     H_    0.538568 0.771356 0.758378 0.149584
H12   H     H_    0.575378 0.103522 0.182841 0.148654
H13   H     H_    0.556075 0.885647 0.840824 0.199215
H14   H     H_    0.359690 0.600649 0.145671 0.156293
H15   H     H_    0.391532 0.655968 0.249084 0.189978
H16   H     H_    0.225249 0.580849 0.258945 0.176690
H17   H     H_    0.005129 0.829022 0.714117 0.160592
H18   H     H_    0.184001 0.354393 0.397707 0.173287
H19   H     H_    0.924608 0.691015 0.953373 0.174097
H20   H     H_    0.860448 0.697536 0.857985 0.175801
H21   H     H_    0.050375 0.680336 0.835733 0.192199
H22   H     H_    0.184619 0.105433 0.899785 0.148666
H23   H     H_    0.537850 0.224577 0.324780 0.158274
H24   H     H_    0.089956 0.169153 0.829142 0.171462
H25   H     H_    0.990552 0.107179 0.940447 0.201848
H26   H     H_    0.732275 0.481779 0.814510 0.176240
H27   H     H_    0.685076 0.678289 0.621526 0.210674
H28   H     H_    0.175786 0.670005 0.625483 0.219431
H29   H     H_    0.869004 0.516137 0.205266 0.180536
H30   H     H_    0.159214 0.382041 0.780335 0.207593
H31   H     H_    0.552077 0.539903 0.784573 0.159043
H32   H     H_    0.363978 0.284698 0.140261 0.187416
N1    N     N_R   0.856800 0.501200 0.500850 -0.102370
N2    N     N_R   0.142390 0.501280 0.500880 -0.112903
O1    O     O_R   0.385310 0.683220 0.500000 -0.635453
O2    O     O_3   0.739307 0.858080 0.724166 -0.592538
O3    O     O_3   0.400495 0.460048 0.225375 -0.630679
O4    O     O_3   0.932492 0.520065 0.879785 -0.608402
O5    O     O_3   0.080231 0.280504 0.945301 -0.606023
O6    O     O_R   0.614640 0.683250 0.500010 -0.623193
O7    O     O_R   0.319840 0.499980 0.632240 -0.628460
O8    O     O_R   0.549160 0.500000 0.632250 -0.626619
O9    O     O_R   0.385360 0.316750 0.499990 -0.614444
O10   O     O_R   0.614690 0.316780 0.500000 -0.603072
O11   O     O_R   0.450840 0.500000 0.367750 -0.561354
O12   O     O_R   0.680160 0.500020 0.367760 -0.618840
O13   O     O_3   0.589040 0.843838 0.164354 -0.621849
Zn1   Zn    Zn3+2 0.346880 0.499980 0.499990 0.949171
Zn2   Zn    Zn3+2 0.653120 0.500020 0.500010 0.940129

loop_
_geom_bond_atom_site_label_1
_geom_bond_atom_site_label_2
_ccdc_geom_bond_type
C29   H18   S    
C27   C29   A    
C41   C42   A    
C40   O5    S    
C17   H3    S    
C27   N1    A    
C27   H9    S    
C4    O8    A    
C11   H23   S    
C39   H19   S    
C5    H2    S    
C12   C23   A    
C26   N1    A    
C40   H25   S    
C30   C35   A    
N2    Zn1   S    
C3    C7    A    
C5    C6    A    
C24   H28   S    
C4    O7    A    
O8    Zn2   S    
C23   C43   A    
C44   H26   S    
C18   C19   A    
O10   Zn2   S    
C18   H8    S    
C37   H11   S    
C33   H30   S    
C8    C9    A    
C40   H22   S    
C1    C15   S    
C9    C10   A    
C37   H13   S    
C36   H7    S    
C38   H16   S    
C36   O13   S    
C6    C31   A    
C16   O10   A    
C13   C14   A    
C38   O3    S    
C39   H20   S    
C37   O2    S    
C45   O4    S    
C34   C41   A    
C9    O13   S    
C6    H29   S    
C2    C45   A    
C1    O6    A    
C32   O5    S    
C35   H31   S    
C7    C31   A    
C40   H24   S    
C13   C19   A    
C10   H12   S    
C34   C44   A    
C24   C25   A    
C25   C26   A    
O7    Zn1   S    
C22   H17   S    
O6    Zn2   S    
C29   N2    A    
C17   C18   A    
C12   C35   A    
C36   H6    S    
C38   H15   S    
C21   O2    S    
C39   H21   S    
C22   C24   A    
C2    C5    A    
C42   C43   A    
C12   C34   A    
C36   H5    S    
C44   C45   A    
O11   Zn1   S    
C15   C17   A    
O9    Zn1   S    
C3    C41   A    
C8    C14   A    
C30   C33   A    
C25   N2    A    
C28   C31   S    
C23   C32   A    
C2    C3    A    
C39   O4    S    
C32   C33   A    
O12   Zn2   S    
C11   C13   A    
C20   C26   A    
N1    Zn2   S    
C16   C19   S    
C28   O12   A    
C43   H1    S    
C10   C11   A    
C38   H14   S    
C37   H10   S    
C7    O3    S    
C20   C21   A    
C42   H32   S    
C16   O9    A    
C1    O1    A    
C14   C15   A    
C20   H27   S    
C28   O11   A    
O1    Zn1   S    
C21   C22   A    
C8    H4    S    
C4    C30   S    
