data_mof_unit_18943.cif
_audit_creation_date              2012-10-26T17:11:31-0400
_audit_creation_method            fapswitch 2.2
_symmetry_space_group_name_H-M    P1
_symmetry_Int_Tables_number       1
_space_group_crystal_system       triclinic
_cell_length_a                    27.963193
_cell_length_b                    18.729346
_cell_length_c                    16.873883
_cell_angle_alpha                 90.451385
_cell_angle_beta                  62.917744
_cell_angle_gamma                 89.898099
_cell_volume                      7868.02406653

loop_
_atom_site_label
_atom_site_type_symbol
_atom_type_description
_atom_site_fract_x
_atom_site_fract_y
_atom_site_fract_z
_atom_type_partial_charge
C1    C     C_R   0.296389 0.730886 0.328940 0.794125
C2    C     C_R   0.703616 0.269116 0.671045 0.769109
C3    C     C_R   0.706624 0.725258 0.669112 0.785948
C4    C     C_R   0.293406 0.274693 0.330858 0.804123
C5    C     C_R   0.796080 0.230279 0.329201 0.783623
C6    C     C_R   0.203987 0.769847 0.670765 0.775502
C7    C     C_R   0.206686 0.225146 0.669071 0.765559
C8    C     C_R   0.793390 0.774726 0.330875 0.787373
C9    C     C_R   0.388197 0.000385 0.537592 0.072502
C10   C     C_R   0.582979 0.000584 0.563495 0.074952
C11   C     C_R   0.909807 0.499755 0.465885 0.069625
C12   C     C_R   0.090161 0.500246 0.534259 0.069820
C13   C     C_R   0.576873 0.872865 0.583203 -0.179535
C14   C     C_R   0.381487 0.127916 0.559233 -0.175645
C15   C     C_R   0.380919 0.873394 0.561785 -0.205013
C16   C     C_R   0.576921 0.128673 0.582474 -0.179367
C17   C     C_R   0.083095 0.372568 0.550406 -0.167561
C18   C     C_R   0.916876 0.627433 0.449747 -0.167473
C19   C     C_R   0.916951 0.371805 0.449973 -0.156031
C20   C     C_R   0.083020 0.628196 0.550181 -0.156277
C21   C     C_R   0.221085 0.767837 0.952657 0.100096
C22   C     C_R   0.779500 0.233327 0.046807 0.108413
C23   C     C_R   0.779838 0.764487 0.046940 0.105954
C24   C     C_R   0.220995 0.234103 0.952410 0.111509
C25   C     C_R   0.723216 0.272702 0.950796 0.108668
C26   C     C_R   0.277242 0.728143 0.048711 0.105547
C27   C     C_R   0.280288 0.263759 0.046584 0.109556
C28   C     C_R   0.720481 0.734947 0.952819 0.104984
C29   C     C_R   0.277441 0.770151 0.912371 -0.152578
C30   C     C_R   0.723132 0.231371 0.087300 -0.166419
C31   C     C_R   0.723380 0.768394 0.089944 -0.159565
C32   C     C_R   0.277465 0.230200 0.909407 -0.167793
C33   C     C_R   0.779597 0.274722 0.910230 -0.167676
C34   C     C_R   0.220882 0.725838 0.089050 -0.167919
C35   C     C_R   0.223832 0.267656 0.089534 -0.160006
C36   C     C_R   0.776943 0.731031 0.909804 -0.159102
C37   C     C_R   0.305194 0.750426 0.959848 -0.161792
C38   C     C_R   0.695332 0.250887 0.039840 -0.164040
C39   C     C_R   0.694012 0.753711 0.043436 -0.170121
C40   C     C_R   0.306808 0.244959 0.955959 -0.175689
C41   C     C_R   0.807428 0.255244 0.957768 -0.166876
C42   C     C_R   0.193116 0.745455 0.041486 -0.164712
C43   C     C_R   0.194501 0.252924 0.043002 -0.171707
C44   C     C_R   0.806314 0.745724 0.956316 -0.171274
C45   C     C_R   0.144804 0.830130 0.942897 -0.220199
C46   C     C_R   0.855623 0.170639 0.056741 -0.220814
C47   C     C_R   0.855573 0.828569 0.056878 -0.193416
C48   C     C_R   0.145002 0.170537 0.942680 -0.194437
C49   C     C_R   0.646378 0.333263 0.941160 -0.237103
C50   C     C_R   0.353874 0.667189 0.058501 -0.237593
C51   C     C_R   0.355876 0.328094 0.056657 -0.190656
C52   C     C_R   0.644621 0.671122 0.942969 -0.188151
C53   C     C_R   0.114654 0.846408 0.897643 -0.068812
C54   C     C_R   0.885568 0.153917 0.102221 -0.068600
C55   C     C_R   0.877630 0.859575 0.108921 -0.088591
C56   C     C_R   0.122633 0.140003 0.890838 -0.089172
C57   C     C_R   0.614480 0.345777 0.897958 -0.048251
C58   C     C_R   0.385592 0.654320 0.101929 -0.048177
C59   C     C_R   0.377741 0.359386 0.108817 -0.084438
C60   C     C_R   0.622406 0.640360 0.891023 -0.087734
C61   C     C_R   0.128992 0.815723 0.813473 -0.028390
C62   C     C_R   0.871179 0.184447 0.186505 -0.028396
C63   C     C_R   0.852589 0.848890 0.201339 -0.066348
C64   C     C_R   0.147582 0.150800 0.798445 -0.064869
C65   C     C_R   0.627009 0.310350 0.816578 -0.019567
C66   C     C_R   0.373011 0.689601 0.183391 -0.025772
C67   C     C_R   0.352589 0.348831 0.201265 -0.068036
C68   C     C_R   0.647357 0.651170 0.798630 -0.073467
C69   C     C_R   0.179969 0.783510 0.767240 -0.117979
C70   C     C_R   0.820301 0.216950 0.232588 -0.117586
C71   C     C_R   0.814052 0.794829 0.237231 -0.108468
C72   C     C_R   0.186284 0.204651 0.762516 -0.104016
C73   C     C_R   0.679449 0.282146 0.767995 -0.143955
C74   C     C_R   0.320601 0.717906 0.231936 -0.146280
C75   C     C_R   0.314134 0.294675 0.237151 -0.111675
C76   C     C_R   0.686023 0.705065 0.762706 -0.107861
C77   C     C_R   0.209903 0.767725 0.813209 -0.188675
C78   C     C_R   0.790644 0.233311 0.186324 -0.192412
C79   C     C_R   0.792391 0.763885 0.184616 -0.205104
C80   C     C_R   0.208318 0.235039 0.814882 -0.212401
C81   C     C_R   0.711004 0.270072 0.812178 -0.183930
C82   C     C_R   0.289177 0.730257 0.187584 -0.185077
C83   C     C_R   0.292653 0.263466 0.184428 -0.202966
C84   C     C_R   0.707856 0.735744 0.815216 -0.202806
C85   C     C_R   0.196687 0.631718 0.527062 0.805150
C86   C     C_R   0.803309 0.368285 0.472957 0.798572
C87   C     C_R   0.803329 0.631583 0.472861 0.796483
C88   C     C_R   0.196667 0.368414 0.527158 0.797625
C89   C     C_R   0.696422 0.131842 0.528310 0.782915
C90   C     C_R   0.298974 0.868870 0.488507 0.798201
C91   C     C_R   0.299082 0.131182 0.488098 0.797828
C92   C     C_R   0.696410 0.868337 0.528338 0.791595
C93   C     C_R   0.191280 0.788095 0.902451 0.067816
C94   C     C_R   0.809304 0.213002 0.097030 0.072603
C95   C     C_R   0.810495 0.784385 0.095960 0.072723
C96   C     C_R   0.190281 0.214378 0.903448 0.073793
C97   C     C_R   0.693042 0.291718 0.900768 0.070613
C98   C     C_R   0.307276 0.708857 0.098855 0.072509
C99   C     C_R   0.310862 0.283801 0.095683 0.069955
C100  C     C_R   0.689784 0.715161 0.903830 0.069417
C101  C     C_R   0.924579 0.906323 0.068044 0.822795
C102  C     C_R   0.075503 0.093551 0.931877 0.821274
C103  C     C_R   0.072018 0.901001 0.934632 0.831769
C104  C     C_R   0.928038 0.099074 0.065328 0.832602
C105  C     C_R   0.424612 0.406268 0.068013 0.821728
C106  C     C_R   0.575425 0.593671 0.931948 0.819800
C107  C     C_R   0.571918 0.400740 0.934661 0.860216
C108  C     C_R   0.428088 0.599264 0.065320 0.858948
C109  C     C_R   0.042238 0.630443 0.523654 0.057476
C110  C     C_R   0.957712 0.369559 0.476545 0.057490
C111  C     C_R   0.957490 0.630087 0.476604 0.058689
C112  C     C_R   0.042461 0.369914 0.523595 0.058527
C113  C     C_R   0.527652 0.130752 0.578445 0.062961
C114  C     C_R   0.427510 0.871869 0.574248 0.057491
C115  C     C_R   0.429774 0.130428 0.566294 0.053443
C116  C     C_R   0.527110 0.870976 0.580839 0.062087
C117  C     C_R   0.021064 0.696256 0.511889 -0.061678
C118  C     C_R   0.978871 0.303746 0.488345 -0.061503
C119  C     C_R   0.978394 0.696079 0.488681 -0.062853
C120  C     C_R   0.021541 0.303921 0.511554 -0.062984
C121  C     C_R   0.499632 0.195962 0.586483 -0.066898
C122  C     C_R   0.447094 0.807505 0.593539 -0.060314
C123  C     C_R   0.450642 0.195804 0.580530 -0.072493
C124  C     C_R   0.498071 0.806403 0.592577 -0.059463
C125  C     C_R   0.978136 0.565173 0.489922 0.001872
C126  C     C_R   0.021813 0.434828 0.510275 0.001931
C127  C     C_R   0.021698 0.565329 0.510324 0.000739
C128  C     C_R   0.978252 0.434672 0.489874 0.000704
C129  C     C_R   0.456951 0.065871 0.561105 0.005222
C130  C     C_R   0.505061 0.935637 0.569665 0.000160
C131  C     C_R   0.505615 0.065950 0.567561 0.004607
C132  C     C_R   0.455934 0.935800 0.564672 0.008196
C133  C     C_R   0.433875 0.000653 0.553915 -0.014228
C134  C     C_R   0.531334 0.000705 0.566536 -0.016933
C135  C     C_R   0.955975 0.499852 0.480462 -0.014334
C136  C     C_R   0.043980 0.500150 0.519721 -0.014293
C137  C     C_R   0.364446 0.935161 0.532461 0.027654
C138  C     C_R   0.608332 0.065842 0.563280 0.023935
C139  C     C_R   0.608320 0.935242 0.563423 0.020004
C140  C     C_R   0.364593 0.065466 0.531562 0.025177
C141  C     C_R   0.887154 0.434592 0.457897 0.021001
C142  C     C_R   0.112824 0.565409 0.542221 0.020483
C143  C     C_R   0.112832 0.435175 0.542376 0.022404
C144  C     C_R   0.887145 0.564825 0.457741 0.022523
C145  C     C_R   0.323472 0.935094 0.502939 -0.100656
C146  C     C_R   0.663359 0.065672 0.546760 -0.115298
C147  C     C_R   0.663360 0.934929 0.546755 -0.114719
C148  C     C_R   0.323444 0.065056 0.502692 -0.100958
C149  C     C_R   0.835700 0.434503 0.458761 -0.112973
C150  C     C_R   0.164292 0.565499 0.541295 -0.113078
C151  C     C_R   0.164282 0.434941 0.541415 -0.113752
C152  C     C_R   0.835711 0.565058 0.458640 -0.113851
C153  C     C_R   0.304895 0.999969 0.487275 -0.242231
C154  C     C_R   0.689441 0.000181 0.538810 -0.236340
C155  C     C_R   0.811340 0.499826 0.458601 -0.237869
C156  C     C_R   0.188660 0.500174 0.541428 -0.237722
Cu1   Cu    Cu3+1 0.209920 0.785290 0.495070 1.036607
Cu2   Cu    Cu3+1 0.790080 0.214710 0.504930 1.037306
Cu3   Cu    Cu3+1 0.790080 0.785290 0.504930 1.031920
Cu4   Cu    Cu3+1 0.209920 0.214710 0.495070 1.033766
Cu5   Cu    Cu3+1 0.709920 0.285290 0.495070 1.043610
Cu6   Cu    Cu3+1 0.290080 0.714710 0.504930 0.989025
Cu7   Cu    Cu3+1 0.290080 0.285290 0.504930 1.024530
Cu8   Cu    Cu3+1 0.709920 0.714710 0.495070 1.032301
Cu9   Cu    Cu3+1 0.495240 0.500000 0.924150 0.999507
Cu10  Cu    Cu3+1 0.504760 0.500000 0.075850 1.009711
Cu11  Cu    Cu3+1 0.995240 0.000000 0.924150 0.977977
Cu12  Cu    Cu3+1 0.004760 0.000000 0.075850 0.978065
H1    H     H_    0.274554 0.999823 0.464110 0.187060
H2    H     H_    0.731508 0.999974 0.523481 0.196778
H3    H     H_    0.771642 0.499927 0.462280 0.195024
H4    H     H_    0.228370 0.500072 0.537705 0.194485
H5    H     H_    0.589519 0.826399 0.605682 0.199520
H6    H     H_    0.355860 0.174085 0.581012 0.199463
H7    H     H_    0.357027 0.826357 0.578091 0.224085
H8    H     H_    0.589412 0.175686 0.604711 0.187687
H9    H     H_    0.089390 0.326048 0.581431 0.194747
H10   H     H_    0.910602 0.673955 0.418701 0.194354
H11   H     H_    0.910628 0.324786 0.419140 0.201664
H12   H     H_    0.089364 0.675214 0.580992 0.201763
H13   H     H_    0.149701 0.742185 0.073822 0.136847
H14   H     H_    0.850856 0.258233 0.925235 0.136186
H15   H     H_    0.849699 0.741708 0.921610 0.143140
H16   H     H_    0.151119 0.257013 0.077671 0.142910
H17   H     H_    0.651911 0.247673 0.072363 0.141253
H18   H     H_    0.348607 0.753828 0.927508 0.140648
H19   H     H_    0.350197 0.240991 0.921281 0.135902
H20   H     H_    0.650629 0.757761 0.078141 0.144138
H21   H     H_    0.300067 0.788395 0.844629 0.173900
H22   H     H_    0.700497 0.213558 0.155241 0.141540
H23   H     H_    0.701899 0.784323 0.159290 0.144239
H24   H     H_    0.298965 0.214293 0.840041 0.129681
H25   H     H_    0.802176 0.292255 0.842155 0.140400
H26   H     H_    0.198273 0.707941 0.156961 0.140576
H27   H     H_    0.202320 0.283644 0.158857 0.146012
H28   H     H_    0.798420 0.715124 0.840448 0.146341
H29   H     H_    0.132986 0.851602 0.009058 0.156852
H30   H     H_    0.867450 0.149211 0.990558 0.156616
H31   H     H_    0.871512 0.842163 0.987236 0.158402
H32   H     H_    0.129120 0.156848 0.012284 0.158190
H33   H     H_    0.635570 0.356875 0.005975 0.161037
H34   H     H_    0.364766 0.643777 0.993556 0.160396
H35   H     H_    0.371896 0.341565 0.986964 0.157607
H36   H     H_    0.628727 0.657447 0.012579 0.160861
H37   H     H_    0.247585 0.738866 0.779799 0.188009
H38   H     H_    0.753091 0.262466 0.219617 0.159404
H39   H     H_    0.759920 0.725850 0.213414 0.158730
H40   H     H_    0.240944 0.272843 0.785996 0.155229
H41   H     H_    0.749361 0.242893 0.777988 0.162417
H42   H     H_    0.250842 0.757498 0.221722 0.161802
H43   H     H_    0.260230 0.225361 0.213209 0.160772
H44   H     H_    0.740407 0.773659 0.786376 0.161050
O1    O     O_R   0.255040 0.869590 0.478480 -0.572469
O2    O     O_R   0.744960 0.130410 0.521520 -0.575953
O3    O     O_R   0.744960 0.869590 0.521520 -0.576743
O4    O     O_R   0.255040 0.130410 0.478480 -0.575836
O5    O     O_R   0.755040 0.369590 0.478480 -0.573003
O6    O     O_R   0.244960 0.630410 0.521520 -0.575241
O7    O     O_R   0.244960 0.369590 0.521520 -0.577302
O8    O     O_R   0.755040 0.630410 0.478480 -0.576756
O9    O     O_R   0.182050 0.796550 0.624440 -0.602676
O10   O     O_R   0.817950 0.203450 0.375560 -0.599628
O11   O     O_R   0.817950 0.796550 0.375560 -0.604725
O12   O     O_R   0.182050 0.203450 0.624440 -0.604563
O13   O     O_R   0.682050 0.296550 0.624440 -0.586157
O14   O     O_R   0.317950 0.703450 0.375560 -0.594180
O15   O     O_R   0.317950 0.296550 0.375560 -0.592934
O16   O     O_R   0.682050 0.703450 0.624440 -0.600307
O17   O     O_R   0.250530 0.763330 0.367210 -0.560296
O18   O     O_R   0.749470 0.236670 0.632790 -0.565266
O19   O     O_R   0.749470 0.763330 0.632790 -0.567730
O20   O     O_R   0.250530 0.236670 0.367210 -0.564820
O21   O     O_R   0.750530 0.263330 0.367210 -0.575457
O22   O     O_R   0.249470 0.736670 0.632790 -0.575376
O23   O     O_R   0.249470 0.263330 0.632790 -0.592993
O24   O     O_R   0.750530 0.736670 0.367210 -0.578238
O25   O     O_R   0.177260 0.690030 0.513710 -0.559580
O26   O     O_R   0.822740 0.309970 0.486290 -0.560902
O27   O     O_R   0.822740 0.690030 0.486290 -0.559387
O28   O     O_R   0.177260 0.309970 0.513710 -0.559389
O29   O     O_R   0.677260 0.190030 0.513710 -0.567565
O30   O     O_R   0.322740 0.809970 0.486290 -0.610927
O31   O     O_R   0.322740 0.190030 0.486290 -0.569624
O32   O     O_R   0.677260 0.809970 0.513710 -0.564926
O33   O     O_R   0.051640 0.926880 0.885090 -0.567820
O34   O     O_R   0.948360 0.073120 0.114910 -0.567353
O35   O     O_R   0.948360 0.926880 0.114910 -0.598569
O36   O     O_R   0.051640 0.073120 0.885090 -0.599137
O37   O     O_R   0.551640 0.426880 0.885090 -0.530945
O38   O     O_R   0.448360 0.573120 0.114910 -0.531324
O39   O     O_R   0.448360 0.426880 0.114910 -0.598891
O40   O     O_R   0.551640 0.573120 0.885090 -0.602657
O41   O     O_R   0.940620 0.926560 0.986760 -0.582555
O42   O     O_R   0.059380 0.073440 0.013240 -0.582534
O43   O     O_R   0.059380 0.926560 0.013240 -0.603237
O44   O     O_R   0.940620 0.073440 0.986760 -0.602885
O45   O     O_R   0.440620 0.426560 0.986760 -0.578267
O46   O     O_R   0.559380 0.573440 0.013240 -0.575199
O47   O     O_R   0.559380 0.426560 0.013240 -0.613255
O48   O     O_R   0.440620 0.573440 0.986760 -0.615780
C157  C     C_2   0.520141 0.736839 0.603723 0.287929
H45   H     H_    0.494550 0.700106 0.654801 0.075092
O49   O     O_2   0.566051 0.718499 0.553092 -0.534932
C158  C     C_2   0.423992 0.265307 0.582951 0.324933
H46   H     H_    0.417832 0.304528 0.634388 0.048860
O50   O     O_2   0.410851 0.280424 0.525294 -0.524278
C159  C     C_2   0.416255 0.739813 0.610822 0.294547
H47   H     H_    0.436064 0.691118 0.575967 0.086995
O51   O     O_2   0.369464 0.737178 0.667510 -0.573978
C160  C     C_2   0.522535 0.265557 0.595315 0.330802
H48   H     H_    0.497725 0.303909 0.645947 0.062743
O52   O     O_2   0.568552 0.281697 0.543664 -0.526813
C161  C     C_2   0.044439 0.234382 0.520828 0.282438
H49   H     H_    0.017960 0.190516 0.555116 0.071963
O53   O     O_2   0.092928 0.224488 0.486643 -0.528282
C162  C     C_2   0.955479 0.765617 0.479447 0.282215
H50   H     H_    0.981945 0.809508 0.445209 0.071949
O54   O     O_2   0.906987 0.775480 0.513610 -0.528320
C163  C     C_2   0.956273 0.234059 0.478710 0.291940
H51   H     H_    0.982950 0.189838 0.444029 0.078033
O55   O     O_2   0.907828 0.224487 0.513010 -0.532881
C164  C     C_2   0.043646 0.765945 0.521563 0.291928
H52   H     H_    0.016957 0.810142 0.556293 0.077978
O56   O     O_2   0.092088 0.775547 0.487241 -0.532586
C165  C     C_2   0.089180 0.812897 0.778024 0.401826
H53   H     H_    0.095296 0.842405 0.719198 0.112678
O57   O     O_2   0.047805 0.779077 0.817290 -0.554642
C166  C     C_2   0.910838 0.186796 0.222284 0.400554
H54   H     H_    0.904592 0.156862 0.280888 0.112752
O58   O     O_2   0.952219 0.220705 0.183547 -0.554563
C167  C     C_2   0.860933 0.900733 0.260952 0.441687
H55   H     H_    0.886420 0.886950 0.291558 0.085802
O59   O     O_2   0.839979 0.959769 0.274338 -0.552482
C168  C     C_2   0.139032 0.099220 0.738820 0.437937
H56   H     H_    0.112949 0.112943 0.709314 0.087329
O60   O     O_2   0.160621 0.040552 0.723991 -0.553968
C169  C     C_2   0.584089 0.293319 0.789739 0.362379
H57   H     H_    0.593492 0.273295 0.724031 0.096171
O61   O     O_2   0.536658 0.295677 0.843862 -0.555402
C170  C     C_2   0.415942 0.706528 0.210187 0.369092
H58   H     H_    0.406562 0.726235 0.276003 0.101546
O62   O     O_2   0.463353 0.704438 0.155920 -0.547266
C171  C     C_2   0.360699 0.400908 0.260882 0.441221
H59   H     H_    0.386142 0.387397 0.291660 0.097809
O63   O     O_2   0.339582 0.459829 0.274104 -0.545069
C172  C     C_2   0.638758 0.599629 0.739004 0.448486
H60   H     H_    0.612789 0.613490 0.709321 0.094227
O64   O     O_2   0.660115 0.540819 0.724463 -0.541979

loop_
_geom_bond_atom_site_label_1
_geom_bond_atom_site_label_2
_ccdc_geom_bond_type
C81   H41   S    
Cu5   O5    S    
C22   C94   S    
C167  H55   S    
C34   C42   A    
C16   C113  A    
C110  C118  A    
C171  O63   D    
C40   H19   S    
C13   H5    S    
C27   C99   S    
C164  H52   S    
C13   C139  A    
C117  C119  A    
C46   H30   S    
C30   C38   A    
C106  O40   A    
C109  C127  A    
C65   C169  S    
C111  C125  A    
Cu5   O29   S    
C34   H26   S    
C143  C151  A    
C126  C136  A    
C19   C141  A    
C92   C147  S    
C82   C98   A    
C130  C134  A    
Cu7   O15   S    
C73   C81   A    
C50   H34   S    
C42   H13   S    
C115  C123  A    
C84   C100  A    
Cu4   Cu7   S    
C87   O27   A    
C127  C136  A    
C128  C135  A    
C112  C120  A    
C27   C35   A    
C21   C29   A    
C67   C171  S    
C108  O38   A    
Cu3   O19   S    
C101  O41   A    
C24   C32   A    
C5    C70   S    
C77   H37   S    
C171  H59   S    
C146  C154  A    
Cu12  O42   S    
C172  H60   S    
C8    O11   A    
Cu2   O26   S    
C129  C133  A    
Cu4   O12   S    
C63   C71   A    
C160  O52   D    
C41   H14   S    
C36   C44   A    
C148  C153  A    
C156  H4    S    
C19   H11   S    
C170  H58   S    
C4    O20   A    
C17   H9    S    
C8    C71   S    
C48   C96   A    
C16   C138  A    
C54   C104  S    
C88   O7    A    
C24   C96   S    
C149  C155  A    
C165  O57   D    
C168  H56   S    
C21   C93   S    
C78   C94   A    
C79   H39   S    
C66   C170  S    
C86   O26   A    
C23   C95   S    
C163  O55   D    
C118  C120  A    
C121  C123  A    
C49   C97   A    
C21   C42   A    
Cu5   O21   S    
C125  C127  A    
C24   C43   A    
C10   C138  A    
C3    O16   A    
C110  C128  A    
C89   O2    A    
C15   C137  A    
Cu7   O7    S    
C1    O14   A    
C6    C69   S    
Cu11  O41   S    
C69   C77   A    
C45   C93   A    
Cu4   O4    S    
C71   C79   A    
Cu1   O17   S    
C62   C70   A    
C103  O33   A    
C1    C74   S    
C68   C172  S    
C167  O59   D    
C157  H45   S    
C9    C140  A    
C45   H29   S    
Cu11  O36   S    
C66   C74   A    
C49   C57   A    
C92   O3    A    
C111  C119  A    
C4    O15   A    
C117  C164  S    
C52   C60   A    
C59   C67   A    
C119  C162  S    
C53   C61   A    
Cu9   O45   S    
C158  H46   S    
C55   C63   A    
C56   C64   A    
Cu7   O31   S    
C35   C43   A    
C27   C40   A    
C58   C108  S    
C5    O10   A    
C6    O22   A    
C45   C53   A    
Cu1   O9    S    
C169  O61   D    
C47   H31   S    
Cu6   O14   S    
C62   C166  S    
C49   H33   S    
C50   C98   A    
Cu3   O3    S    
C3    O19   A    
C7    C72   S    
C52   C100  A    
C166  O58   D    
C85   O6    A    
C36   H28   S    
C25   C38   A    
C46   C94   A    
C123  C158  S    
C116  C130  A    
C87   O8    A    
C11   C141  A    
C44   H15   S    
C60   C68   A    
C2    C73   S    
C39   H20   S    
C25   C97   S    
C80   H40   S    
C14   C140  A    
C104  O34   A    
C87   C152  S    
C90   O30   A    
C88   C151  S    
C67   C75   A    
C153  H1    S    
C60   C106  S    
C126  C128  A    
C22   C30   A    
C162  O54   D    
C159  H47   S    
Cu2   O2    S    
C164  O56   D    
C12   C143  A    
C56   C102  S    
C72   C80   A    
C125  C135  A    
C124  C157  S    
C138  C146  A    
Cu1   Cu6   S    
C161  O53   D    
C30   H22   S    
Cu7   O23   S    
C2    O18   A    
Cu12  O35   S    
C113  C121  A    
C162  H50   S    
C18   H10   S    
C12   C136  A    
Cu3   Cu8   S    
C122  C124  A    
C25   C33   A    
C82   H42   S    
Cu6   O6    S    
Cu8   O24   S    
Cu9   O40   S    
C103  O43   A    
C131  C134  A    
C76   C84   A    
C109  C117  A    
C59   C105  S    
C48   H32   S    
Cu10  O46   S    
C137  C145  A    
C90   C145  S    
C118  C163  S    
C22   C41   A    
C14   C115  A    
C88   O28   A    
C31   H23   S    
C32   H24   S    
C85   C150  S    
C4    C75   S    
Cu2   Cu5   S    
C9    C137  A    
C170  O62   D    
C172  O64   D    
C163  H51   S    
Cu6   O30   S    
Cu4   O28   S    
C112  C126  A    
C35   H27   S    
C16   H8    S    
C33   H25   S    
C83   C99   A    
C140  C148  A    
C74   C82   A    
C51   H35   S    
C7    O23   A    
C50   C58   A    
Cu11  Cu12  S    
C54   C62   A    
C28   C39   A    
C23   C44   A    
C52   H36   S    
C130  C132  A    
C78   H38   S    
C79   C95   A    
C91   O4    A    
C11   C135  A    
C37   H18   S    
C152  C155  A    
C46   C54   A    
Cu10  O38   S    
C151  C156  A    
C18   C111  A    
C8    O24   A    
Cu1   O25   S    
C68   C76   A    
C10   C139  A    
C101  O35   A    
C105  O45   A    
Cu11  O44   S    
C116  C124  A    
C9    C133  A    
C57   C65   A    
C84   H44   S    
C26   C37   A    
Cu10  O39   S    
C17   C143  A    
C33   C41   A    
C142  C150  A    
C18   C144  A    
C14   H6    S    
Cu10  O47   S    
C7    O12   A    
C159  O51   D    
C154  H2    S    
C75   C83   A    
C53   C103  S    
C77   C93   A    
C12   C142  A    
C85   O25   A    
C13   C116  A    
Cu6   O22   S    
C28   C36   A    
C158  O50   D    
C29   C37   A    
Cu3   O27   S    
C160  H48   S    
C102  O42   A    
C90   O1    A    
C144  C152  A    
C2    O13   A    
C23   C31   A    
Cu12  O34   S    
Cu9   Cu10  S    
C70   C78   A    
C169  H57   S    
Cu2   O18   S    
C141  C149  A    
C120  C161  S    
C20   H12   S    
C139  C147  A    
C165  H53   S    
Cu9   O37   S    
C107  O47   A    
C43   H16   S    
C65   C73   A    
C147  C154  A    
C26   C34   A    
C132  C133  A    
C61   C165  S    
C80   C96   A    
C11   C144  A    
C6    O9    A    
C145  C153  A    
C28   C100  S    
C32   C40   A    
Cu2   O10   S    
C5    O21   A    
C63   C167  S    
C91   C148  S    
C58   C66   A    
C122  C159  S    
Cu5   O13   S    
C51   C99   A    
C89   C146  S    
C107  O37   A    
C20   C142  A    
C102  O36   A    
C105  O39   A    
C86   C149  S    
C157  O49   D    
Cu11  O33   S    
Cu12  O43   S    
C86   O5    A    
C1    O17   A    
Cu4   O20   S    
C161  H49   S    
C15   C114  A    
Cu8   O16   S    
C3    C76   S    
C26   C98   S    
C57   C107  S    
C91   O31   A    
C89   O29   A    
C108  O48   A    
C51   C59   A    
C17   C112  A    
C47   C55   A    
C115  C129  A    
C19   C110  A    
C61   C69   A    
C48   C56   A    
C113  C131  A    
C114  C132  A    
C10   C134  A    
C150  C156  A    
C38   H17   S    
C55   C101  S    
Cu1   O1    S    
C104  O44   A    
Cu9   O48   S    
C15   H7    S    
C166  H54   S    
C168  O60   D    
C92   O32   A    
Cu8   O8    S    
C81   C97   A    
Cu3   O11   S    
C31   C39   A    
C29   H21   S    
C64   C72   A    
C20   C109  A    
C114  C122  A    
C155  H3    S    
C106  O46   A    
C47   C95   A    
C64   C168  S    
C121  C160  S    
C83   H43   S    
C129  C131  A    
Cu8   O32   S    
