data_mof_unit_60071.cif
_audit_creation_date              2012-12-10T20:50:02-0500
_audit_creation_method            fapswitch 2.2
_symmetry_space_group_name_H-M    P1
_symmetry_Int_Tables_number       1
_space_group_crystal_system       triclinic
_cell_length_a                    19.209952
_cell_length_b                    19.172951
_cell_length_c                    19.211851
_cell_angle_alpha                 94.959225
_cell_angle_beta                  90.097491
_cell_angle_gamma                 85.280375
_cell_volume                      7025.44884992

loop_
_atom_site_label
_atom_site_type_symbol
_atom_type_description
_atom_site_fract_x
_atom_site_fract_y
_atom_site_fract_z
_atom_type_partial_charge
C1    C     C_R   0.492909 0.492606 0.310607 0.863292
C2    C     C_R   0.122640 0.574701 0.487487 -0.268288
C3    C     C_R   0.507663 0.512204 0.766015 -0.008910
C4    C     C_R   0.507109 0.507502 0.689306 0.794243
C5    C     C_R   0.476547 0.461692 0.801380 -0.197606
C6    C     C_R   0.474800 0.466745 0.874005 -0.160245
C7    C     C_R   0.504155 0.522798 0.912764 0.316340
C8    C     C_R   0.534390 0.573618 0.877431 -0.180255
C9    C     C_R   0.536861 0.568112 0.804535 -0.204203
C10   C     C_R   0.466952 0.542631 0.125758 -0.246579
C11   C     C_R   0.464842 0.546609 0.198605 0.611795
C12   C     C_R   0.913014 0.477415 0.493526 0.327574
C13   C     C_R   0.494912 0.480748 0.087350 0.237782
C14   C     C_R   0.491297 0.488921 0.233930 -0.148289
C15   C     C_R   0.518238 0.427132 0.195236 -0.285062
C16   C     C_R   0.492786 0.689938 0.507873 0.850380
C17   C     C_R   0.519054 0.422908 0.122579 -0.175923
C18   C     C_R   0.509999 0.232297 0.487816 -0.234133
C19   C     C_R   0.496540 0.199972 0.549064 0.604747
C20   C     C_R   0.501912 0.127135 0.548688 -0.239404
C21   C     C_R   0.521988 0.084957 0.487676 0.215374
C22   C     C_R   0.537111 0.116244 0.427193 -0.224889
C23   C     C_R   0.877642 0.425281 0.456348 -0.170733
C24   C     C_R   0.528996 0.189484 0.425491 -0.131674
C25   C     C_R   0.546377 0.875575 0.525912 -0.247517
C26   C     C_R   0.549948 0.802539 0.524773 0.611888
C27   C     C_R   0.482364 0.913918 0.514456 0.234176
C28   C     C_R   0.506717 0.309836 0.491256 0.901653
C29   C     C_R   0.489615 0.766891 0.511178 -0.136706
C30   C     C_R   0.425732 0.805411 0.500433 -0.285965
C31   C     C_R   0.422038 0.878537 0.503283 -0.169953
C32   C     C_R   0.310732 0.508144 0.507862 0.826578
C33   C     C_R   0.689443 0.491885 0.492284 0.808120
C34   C     C_R   0.804737 0.430317 0.454658 -0.205013
C35   C     C_R   0.766192 0.487251 0.491336 -0.012543
C36   C     C_R   0.801575 0.539134 0.529309 -0.195791
C37   C     C_R   0.874180 0.534448 0.530480 -0.165944
C38   C     C_2   0.535921 0.218441 0.356897 0.982085
C39   C     C_R   0.126313 0.461706 0.535968 0.657222
C40   C     C_R   0.199189 0.458332 0.536051 -0.295970
C41   C     C_R   0.087638 0.519891 0.510523 0.191084
C42   C     C_R   0.234124 0.512374 0.510480 -0.091121
C43   C     C_R   0.195285 0.570703 0.486504 -0.200014
F1    F     F_    0.612588 0.766797 0.535046 -0.646378
F2    F     F_    0.093833 0.409197 0.561936 -0.641347
F3    F     F_    0.479537 0.238754 0.610076 -0.641644
F4    F     F_    0.438699 0.607305 0.234250 -0.638109
H1    H     H_    0.228236 0.413160 0.555304 0.201917
H2    H     H_    0.551582 0.082889 0.380131 0.192110
H3    H     H_    0.378537 0.778954 0.490589 0.190231
H4    H     H_    0.491429 0.103450 0.596362 0.185511
H5    H     H_    0.372367 0.907675 0.495257 0.169255
H6    H     H_    0.906748 0.380895 0.428173 0.160789
H7    H     H_    0.778605 0.389294 0.425470 0.176996
H8    H     H_    0.221062 0.613489 0.467336 0.185683
H9    H     H_    0.899737 0.575111 0.560832 0.163496
H10   H     H_    0.093375 0.620158 0.469034 0.180784
H11   H     H_    0.773152 0.583437 0.558325 0.188029
H12   H     H_    0.446485 0.587616 0.099467 0.184887
H13   H     H_    0.498104 0.287226 0.289632 0.335606
H14   H     H_    0.556558 0.617301 0.906552 0.154913
H15   H     H_    0.560558 0.608110 0.778380 0.175353
H16   H     H_    0.538614 0.381887 0.221164 0.194386
H17   H     H_    0.449768 0.427298 0.899706 0.162503
H18   H     H_    0.539816 0.374777 0.093531 0.170191
H19   H     H_    0.453371 0.418227 0.772922 0.189770
H20   H     H_    0.593344 0.902306 0.536056 0.184735
N1    N     N_2   0.987185 0.470334 0.493512 -0.110190
N2    N     N_2   0.013765 0.526609 0.509833 -0.179951
N3    N     N_2   0.502690 0.530385 0.986874 -0.183485
N4    N     N_2   0.497732 0.473897 0.013430 -0.175777
N5    N     N_2   0.527260 0.010798 0.485860 -0.154640
N6    N     N_2   0.477016 0.988032 0.515298 -0.161835
O1    O     O_3   0.500000 0.500000 0.500000 -0.508891
O2    O     O_R   0.340900 0.545940 0.467290 -0.645637
O3    O     O_R   0.655960 0.450920 0.450930 -0.645744
O4    O     O_R   0.347180 0.467040 0.545670 -0.639215
O5    O     O_R   0.655970 0.536100 0.536110 -0.630167
O6    O     O_2   0.581132 0.192553 0.315504 -0.618811
O7    O     O_R   0.488775 0.273105 0.338167 -0.801522
O8    O     O_R   0.536480 0.656330 0.545680 -0.589715
O9    O     O_R   0.545300 0.340270 0.450920 -0.633960
O10   O     O_R   0.451550 0.536740 0.347440 -0.576306
O11   O     O_R   0.466670 0.466660 0.655960 -0.631299
O12   O     O_R   0.536460 0.451300 0.340640 -0.645195
O13   O     O_R   0.545320 0.545300 0.655970 -0.646838
O14   O     O_R   0.451560 0.656600 0.467300 -0.639889
O15   O     O_R   0.466660 0.346810 0.536100 -0.577834
Zn1   Zn    Zn3+2 0.558430 0.558420 0.558430 1.013580
Zn2   Zn    Zn3+2 0.437090 0.558800 0.446440 1.022614
Zn3   Zn    Zn3+2 0.446060 0.446060 0.558420 1.024415
Zn4   Zn    Zn3+2 0.558420 0.436720 0.436720 1.005021

loop_
_geom_bond_atom_site_label_1
_geom_bond_atom_site_label_2
_ccdc_geom_bond_type
C8    C9    A    
C11   F4    S    
C35   C36   A    
C25   H20   S    
C31   H5    S    
C32   O2    A    
C2    H10   S    
C26   F1    S    
C7    C8    A    
C39   C41   A    
C12   N1    S    
C12   C23   A    
C18   C24   A    
O1    Zn1   S    
C36   C37   A    
C18   C19   A    
C20   H4    S    
C36   H11   S    
C5    C6    A    
C11   C14   A    
C33   O5    A    
C4    O13   A    
C38   O6    D    
C2    C41   A    
C6    H17   S    
O9    Zn4   S    
C40   H1    S    
C34   C35   A    
O1    Zn4   S    
C12   C37   A    
O2    Zn2   S    
C32   O4    A    
C37   H9    S    
H13   O7    S    
C19   C20   A    
N1    N2    D    
C28   O15   A    
C16   O14   A    
C24   C38   S    
N3    N4    D    
O11   Zn3   S    
C8    H14   S    
C39   F2    S    
O8    Zn1   S    
C40   C42   A    
C30   H3    S    
C21   C22   A    
C7    N3    S    
O12   Zn4   S    
C23   H6    S    
O5    Zn1   S    
C1    O12   A    
C19   F3    S    
C21   N5    S    
C28   O9    A    
C9    H15   S    
C18   C28   S    
C39   C40   A    
N5    N6    D    
C13   N4    S    
C25   C26   A    
C27   C31   A    
O13   Zn1   S    
O1    Zn3   S    
C29   C30   A    
C3    C9    A    
C33   O3    A    
C4    O11   A    
O15   Zn3   S    
C2    C43   A    
C23   C34   A    
O3    Zn4   S    
C22   H2    S    
C43   H8    S    
C34   H7    S    
C22   C24   A    
C1    O10   A    
C42   C43   A    
C3    C4    S    
C41   N2    S    
C15   C17   A    
O10   Zn2   S    
O4    Zn3   S    
C32   C42   S    
C5    H19   S    
C3    C5    A    
C10   C13   A    
C6    C7    A    
C25   C27   A    
C17   H18   S    
C13   C17   A    
O1    Zn2   S    
C10   H12   S    
C16   C29   S    
C30   C31   A    
C38   O7    S    
C16   O8    A    
C33   C35   S    
C10   C11   A    
C20   C21   A    
C26   C29   A    
O14   Zn2   S    
C15   H16   S    
C14   C15   A    
C1    C14   S    
C27   N6    S    
