data_mof_unit_42184.cif
_audit_creation_date              2013-03-05T15:41:55-0500
_audit_creation_method            fapswitch 2.2
_symmetry_space_group_name_H-M    P1
_symmetry_Int_Tables_number       1
_space_group_crystal_system       triclinic
_cell_length_a                    19.427811
_cell_length_b                    7.232718
_cell_length_c                    17.73762
_cell_angle_alpha                 90.237354
_cell_angle_beta                  107.796166
_cell_angle_gamma                 89.770534
_cell_volume                      2373.1245245

loop_
_atom_site_label
_atom_site_type_symbol
_atom_site_description
_atom_site_fract_x
_atom_site_fract_y
_atom_site_fract_z
_atom_type_partial_charge
O1    O     O_R   0.414820 0.494320 0.416790 -0.532619
O2    O     O_R   0.585180 0.994320 0.583210 -0.545834
O3    O     O_R   0.560270 0.819500 0.430140 -0.541530
O4    O     O_R   0.439730 0.319500 0.569860 -0.525352
C1    C     C_R   0.583164 0.654883 0.416892 0.883562
C2    C     C_R   0.416768 0.156501 0.583017 0.853169
O5    O     O_R   0.413840 0.823740 0.407440 -0.529397
O6    O     O_R   0.586160 0.323740 0.592560 -0.502937
O7    O     O_R   0.437710 0.998590 0.560350 -0.560596
O8    O     O_R   0.562290 0.498590 0.439650 -0.522511
C3    C     C_R   0.388015 0.655147 0.384662 0.919366
C4    C     C_R   0.611829 0.155246 0.615989 0.903893
O9    O     O_3   0.508000 0.662290 0.550200 -0.267009
O10   O     O_3   0.492000 0.162290 0.449800 -0.261384
V1    V     V_3+5 0.498520 0.935380 0.490690 1.301069
V2    V     V_3+5 0.501480 0.435380 0.509310 1.335081
C5    C     C_2   0.771161 0.260149 0.807979 0.277589
C6    C     C_2   0.227629 0.768267 0.196171 0.278569
C7    C     C_2   0.819767 0.119434 0.817717 -0.259329
C8    C     C_2   0.184930 0.615155 0.176982 -0.292795
H1    H     H_    0.813039 0.014475 0.772189 0.085812
H2    H     H_    0.204076 0.484870 0.205925 0.119312
C9    C     C_2   0.709980 0.286095 0.732815 0.283633
C10   C     C_2   0.300813 0.767856 0.257877 0.262702
C11   C     C_2   0.676137 0.140916 0.687907 -0.281422
C12   C     C_2   0.319672 0.644295 0.318158 -0.247838
H3    H     H_    0.694352 0.001596 0.706481 0.115596
H4    H     H_    0.283035 0.534397 0.321632 0.101332
C13   C     C_R   0.311003 0.294906 0.620380 0.319009
C14   C     C_R   0.686734 0.496256 0.381490 0.314674
C15   C     C_R   0.363031 0.151631 0.627749 -0.167735
C16   C     C_R   0.636578 0.644967 0.371743 -0.171715
C17   C     C_R   0.364401 0.002913 0.678407 -0.108416
C18   C     C_R   0.637383 0.787630 0.318845 -0.090096
C19   C     C_R   0.316935 0.995596 0.723733 0.077803
C20   C     C_R   0.685139 0.784020 0.273910 0.074197
C21   C     C_R   0.266557 0.140094 0.719078 0.011050
C22   C     C_R   0.733752 0.634501 0.281200 0.014812
C23   C     C_R   0.261342 0.289667 0.665608 -0.080690
C24   C     C_R   0.736804 0.490679 0.336784 -0.076315
C25   C     C_R   0.319339 0.844551 0.773985 -0.023076
C26   C     C_R   0.684889 0.929434 0.221588 -0.026315
C27   C     C_R   0.272728 0.835874 0.820143 -0.071616
C28   C     C_R   0.731762 0.927096 0.175640 -0.079955
C29   C     C_R   0.223681 0.979688 0.818043 0.050515
C30   C     C_R   0.779003 0.777876 0.180220 0.048169
C31   C     C_R   0.220777 0.132729 0.767795 0.073722
C32   C     C_R   0.779920 0.630914 0.232913 0.071865
C33   C     C_R   0.171978 0.277843 0.766373 0.042286
C34   C     C_R   0.827044 0.480687 0.237108 0.039649
C35   C     C_R   0.166094 0.423888 0.713678 -0.137994
C36   C     C_R   0.830939 0.340307 0.291895 -0.137327
C37   C     C_R   0.206916 0.427468 0.660756 -0.034326
C38   C     C_R   0.789621 0.347361 0.344220 -0.033696
C39   C     C_R   0.177385 0.972749 0.865297 -0.077651
C40   C     C_R   0.825295 0.773111 0.132890 -0.087979
C41   C     C_R   0.129389 0.119200 0.864871 -0.100671
C42   C     C_R   0.871504 0.621189 0.136063 -0.091744
C43   C     C_R   0.127570 0.271984 0.815682 -0.112298
C44   C     C_R   0.871689 0.475342 0.188211 -0.092255
H5    H     H_    0.404128 0.893907 0.684085 0.136924
H6    H     H_    0.599297 0.901195 0.311262 0.154705
H7    H     H_    0.357129 0.732011 0.777223 0.086919
H8    H     H_    0.648491 0.045933 0.216442 0.089111
H9    H     H_    0.275399 0.716998 0.857933 0.080527
H10   H     H_    0.730652 0.041534 0.136030 0.092757
H11   H     H_    0.179567 0.854627 0.903415 0.109404
H12   H     H_    0.824359 0.886067 0.092581 0.107408
H13   H     H_    0.090021 0.384313 0.814116 0.093937
H14   H     H_    0.907851 0.358733 0.192055 0.095505
H15   H     H_    0.126240 0.531495 0.710696 0.102493
H16   H     H_    0.869584 0.228654 0.296870 0.102188
O11   O     O_R   0.937810 0.773680 0.060480 -0.563951
O12   O     O_R   0.062190 0.273680 0.939520 -0.562753
O13   O     O_R   0.086190 0.439740 0.092580 -0.530236
O14   O     O_R   0.913810 0.939740 0.907420 -0.540928
C45   C     C_R   0.113940 0.608463 0.113213 0.854244
C46   C     C_R   0.886711 0.108530 0.886225 0.874080
O15   O     O_R   0.939760 0.444210 0.069890 -0.549194
O16   O     O_R   0.060240 0.944210 0.930110 -0.562307
O17   O     O_R   0.914790 0.269640 0.916760 -0.523578
O18   O     O_R   0.085210 0.769640 0.083240 -0.516497
C47   C     C_R   0.919372 0.612907 0.085102 0.856832
C48   C     C_R   0.080856 0.112053 0.915105 0.853134
O19   O     O_3   0.992050 0.601530 0.949880 -0.287794
O20   O     O_3   0.007950 0.101530 0.050120 -0.268769
V3    V     V_3+5 0.001480 0.328340 0.009300 1.240589
V4    V     V_3+5 0.998520 0.828340 0.990700 1.228552
N1    N     N_R   0.777054 0.389698 0.871586 0.113214
O21   O     O_R   0.780046 0.566585 0.860054 -0.298152
O22   O     O_R   0.778171 0.330410 0.941133 -0.374725
N2    N     N_R   0.205968 0.936006 0.152331 0.132802
O23   O     O_R   0.181228 0.073838 0.183796 -0.322135
O24   O     O_R   0.217058 0.956581 0.084141 -0.353437
C49   C     C_2   0.185023 0.569709 0.598224 0.962011
O25   O     O_2   0.165485 0.523757 0.528505 -0.547022
O26   O     O_R   0.181692 0.755209 0.619232 -0.761002
H17   H     H_    0.165133 0.839476 0.571515 0.325498
C50   C     C_2   0.809526 0.210088 0.408924 0.960563
O27   O     O_2   0.829729 0.261947 0.477896 -0.544620
O28   O     O_R   0.810328 0.021903 0.390829 -0.760507
H18   H     H_    0.825830 0.941482 0.439860 0.326852
N3    N     N_R   0.684233 0.471043 0.712640 0.133819
O29   O     O_R   0.722371 0.585798 0.685669 -0.308573
O30   O     O_R   0.629258 0.532286 0.732794 -0.330663
N4    N     N_R   0.352482 0.904208 0.251249 0.119563
O31   O     O_R   0.337243 0.079620 0.250508 -0.287700
O32   O     O_R   0.415270 0.852633 0.246445 -0.371886
N5    N     N_R   0.310302 0.445745 0.568063 0.088167
O33   O     O_R   0.336071 0.605480 0.596930 -0.389215
O34   O     O_R   0.293640 0.416591 0.492158 -0.339603
N6    N     N_R   0.685182 0.350760 0.435483 0.084992
O35   O     O_R   0.703877 0.384024 0.511216 -0.314463
O36   O     O_R   0.656973 0.191748 0.408477 -0.383094

loop_
_geom_bond_atom_site_label_1
_geom_bond_atom_site_label_2
_geom_bond_distance
_ccdc_geom_bond_type
C14   C16   1.423540 A    
O28   H18   1.013957 S    
C37   C49   1.478902 S    
C20   C26   1.404556 A    
C49   O25   1.222507 D    
O1    C3    1.329755 A    
O16   C48   1.332927 A    
O2    C4    1.332681 A    
C2    O7    1.313046 A    
O15   V3    2.016777 S    
O26   H17   1.013704 S    
C31   C33   1.406665 A    
O5    C3    1.333707 A    
C5    C9    1.502388 S    
C35   H15   1.085596 S    
C8    C45   1.493457 S    
C6    C10   1.506077 S    
C13   N5    1.432520 S    
C7    H1    1.084768 S    
O14   C46   1.336621 A    
N5    O34   1.301443 A    
C41   C43   1.404437 A    
N4    O31   1.300838 A    
C42   C44   1.405134 A    
C18   H6    1.084185 S    
C17   C19   1.397659 A    
C28   H10   1.083781 S    
C9    N3    1.434167 S    
C28   C30   1.400341 A    
C33   C35   1.394410 A    
C34   C36   1.394132 A    
C15   C17   1.399387 A    
O12   V3    1.990971 S    
C21   C31   1.418133 A    
O14   V4    2.013190 S    
C22   C32   1.417013 A    
C27   H9    1.083709 S    
C1    C16   1.493400 S    
O5    V1    2.013660 S    
C2    C15   1.492501 S    
O6    V2    2.013282 S    
C22   C24   1.424752 A    
C13   C15   1.422891 A    
C25   C27   1.395827 A    
C26   C28   1.395428 A    
N6    O36   1.300970 A    
N6    O35   1.301579 A    
C36   C38   1.401082 A    
C29   C31   1.414124 A    
C21   C23   1.424438 A    
C30   C32   1.414784 A    
C5    N1    1.441224 S    
O4    C2    1.308992 A    
O12   C48   1.331925 A    
O20   V3    1.784290 S    
C3    C12   1.484348 S    
C40   H12   1.084325 S    
C14   N6    1.432399 S    
C35   C37   1.402238 A    
C16   C18   1.400864 A    
O4    V2    2.024415 S    
C7    C46   1.486032 S    
O11   V4    1.994879 S    
C36   H16   1.085743 S    
O13   C45   1.339682 A    
C50   O27   1.222829 D    
C44   H14   1.084438 S    
O6    C4    1.333866 A    
C13   C23   1.431609 A    
N2    O24   1.300976 A    
C41   C48   1.483233 S    
C14   C24   1.430955 A    
N3    O30   1.301163 A    
O1    V2    2.005143 S    
O2    V1    2.005120 S    
C27   C29   1.400716 A    
O17   V3    2.005295 S    
C43   H13   1.084455 S    
O13   V3    2.013567 S    
C50   O28   1.398248 S    
C8    H2    1.083671 S    
C24   C38   1.433422 A    
C39   C41   1.406895 A    
C38   C50   1.479041 S    
C10   N4    1.440517 S    
C25   H7    1.083831 S    
C26   H8    1.083867 S    
O3    V1    2.016739 S    
O19   V4    1.779694 S    
C19   C21   1.414260 A    
C10   C12   1.357203 D    
O3    C1    1.314526 A    
C39   H11   1.084356 S    
C49   O26   1.397507 S    
C11   H3    1.085257 S    
C12   H4    1.083512 S    
C33   C43   1.404615 A    
C4    C11   1.491589 S    
C6    N2    1.434348 S    
C20   C22   1.412977 A    
O7    V1    2.003680 S    
C34   C44   1.401901 A    
C1    O8    1.308731 A    
O16   V4    2.024452 S    
O8    V2    2.008170 S    
C42   C47   1.482729 S    
O15   C47   1.333098 A    
C46   O17   1.329665 A    
C23   C37   1.433691 A    
N4    O32   1.301557 A    
C45   O18   1.331056 A    
O18   V4    2.005318 S    
C32   C34   1.405479 A    
N2    O23   1.300707 A    
C5    C7    1.360672 D    
C18   C20   1.395873 A    
C40   C42   1.406492 A    
C6    C8    1.364552 D    
C9    C11   1.359344 D    
C19   C25   1.404419 A    
C29   C39   1.405527 A    
C17   H5    1.084295 S    
N1    O22   1.301562 A    
O9    V2    1.780785 S    
C30   C40   1.405644 A    
N3    O29   1.300615 A    
O10   V1    1.785382 S    
N1    O21   1.300791 A    
N5    O33   1.300234 A    
O11   C47   1.332057 A    
