data_mof_unit_12449.cif
_audit_creation_date              2012-12-11T14:21:16-0500
_audit_creation_method            fapswitch 2.2
_symmetry_space_group_name_H-M    P1
_symmetry_Int_Tables_number       1
_space_group_crystal_system       triclinic
_cell_length_a                    21.967398
_cell_length_b                    7.195612
_cell_length_c                    14.951416
_cell_angle_alpha                 89.999961
_cell_angle_beta                  106.852853
_cell_angle_gamma                 90.0
_cell_volume                      2261.85327838

loop_
_atom_site_label
_atom_site_type_symbol
_atom_type_description
_atom_site_fract_x
_atom_site_fract_y
_atom_site_fract_z
_atom_type_partial_charge
O1    O     O_R   0.584770 0.505770 0.002090 -0.533256
O2    O     O_R   0.415230 0.005770 0.997910 -0.533256
O3    O     O_R   0.467060 0.173340 0.861950 -0.525314
O4    O     O_R   0.532940 0.673340 0.138050 -0.525314
C1    C     C_R   0.454240 0.344317 0.826314 0.792738
C2    C     C_R   0.545760 0.844316 0.173685 0.792739
O5    O     O_R   0.587510 0.175890 0.993210 -0.518736
O6    O     O_R   0.412490 0.675890 0.006790 -0.518736
O7    O     O_R   0.536540 0.008150 0.130100 -0.535899
O8    O     O_R   0.463460 0.508150 0.869900 -0.535899
C3    C     C_R   0.612659 0.344653 0.995698 0.782678
C4    C     C_R   0.387341 0.844653 0.004301 0.782678
O9    O     O_3   0.483140 0.340040 0.044760 -0.382271
O10   O     O_3   0.516860 0.840040 0.955240 -0.382271
V1    V     V_3+5 0.503130 0.064190 0.991700 1.569711
V2    V     V_3+5 0.496870 0.564190 0.008300 1.569710
C5    C     C_2   0.217712 0.744024 0.025279 -0.256457
C6    C     C_2   0.782287 0.244025 0.974720 -0.256454
C7    C     C_2   0.178310 0.884007 0.984283 0.243466
C8    C     C_2   0.821690 0.384007 0.015716 0.243466
H1    H     H_    0.200624 0.641316 0.065388 0.139792
H2    H     H_    0.799376 0.141317 0.934610 0.139790
C9    C     C_2   0.283399 0.714789 0.016920 0.495411
C10   C     C_2   0.716601 0.214789 0.983079 0.495416
C11   C     C_2   0.321670 0.860041 0.012074 -0.258381
C12   C     C_2   0.678330 0.360041 0.987926 -0.258382
H3    H     H_    0.305305 0.000153 0.018473 0.132721
H4    H     H_    0.694695 0.500153 0.981527 0.132720
C13   C     C_R   0.924790 0.883857 0.724182 -0.057906
C14   C     C_R   0.075210 0.383859 0.275818 -0.057903
C15   C     C_R   0.573585 0.857607 0.274868 -0.117277
C16   C     C_R   0.426415 0.357607 0.725132 -0.117277
C17   C     C_R   0.931927 0.782233 0.573723 -0.119268
C18   C     C_R   0.068072 0.282249 0.426278 -0.119251
C19   C     C_R   0.958015 0.794049 0.670006 -0.206805
C20   C     C_R   0.041984 0.294059 0.329995 -0.206820
C21   C     C_R   0.863116 0.953705 0.681979 0.191751
C22   C     C_R   0.136884 0.453705 0.318020 0.191751
C23   C     C_R   0.831121 0.904600 0.587635 0.013291
C24   C     C_R   0.168879 0.404603 0.412365 0.013285
C25   C     C_R   0.868930 0.838628 0.531621 0.001495
C26   C     C_R   0.131070 0.338638 0.468380 0.001508
C27   C     C_R   0.763651 0.915816 0.546493 0.004897
C28   C     C_R   0.236349 0.415817 0.453507 0.004897
C29   C     C_R   0.737141 0.887794 0.448427 0.011558
C30   C     C_R   0.262859 0.387797 0.551573 0.011567
C31   C     C_R   0.779276 0.872579 0.393679 -0.161701
C32   C     C_R   0.220724 0.372586 0.606321 -0.161715
C33   C     C_R   0.843748 0.836641 0.434043 0.449294
C34   C     C_R   0.156252 0.336653 0.565958 0.449289
C35   C     C_R   0.721628 0.941471 0.600763 -0.160716
C36   C     C_R   0.278372 0.441470 0.399237 -0.160716
C37   C     C_R   0.656796 0.969658 0.559876 0.465035
C38   C     C_R   0.343204 0.469658 0.440124 0.465035
C39   C     C_R   0.630375 0.944304 0.463302 -0.046227
C40   C     C_R   0.369625 0.444304 0.536698 -0.046229
C41   C     C_R   0.669526 0.884460 0.407864 0.010277
C42   C     C_R   0.330474 0.384462 0.592136 0.010277
C43   C     C_R   0.564569 0.966848 0.422867 -0.141552
C44   C     C_R   0.435431 0.466848 0.577133 -0.141551
C45   C     C_R   0.536591 0.927914 0.328995 0.194606
C46   C     C_R   0.463409 0.427914 0.671005 0.194607
C47   C     C_R   0.638679 0.820528 0.315350 0.164709
C48   C     C_R   0.361321 0.320529 0.684650 0.164710
H5    H     H_    0.960671 0.724684 0.532600 0.162543
H6    H     H_    0.039327 0.224708 0.467402 0.162540
H7    H     H_    0.005650 0.741920 0.701896 0.117978
H8    H     H_    0.994348 0.241933 0.298106 0.117981
H9    H     H_    0.763051 0.888191 0.318849 0.184290
H10   H     H_    0.236950 0.388195 0.681151 0.184279
H11   H     H_    0.737663 0.936570 0.675864 0.170186
H12   H     H_    0.262338 0.436567 0.324136 0.170187
H13   H     H_    0.534331 0.013966 0.464085 0.190681
H14   H     H_    0.465669 0.513964 0.535915 0.190681
O11   O     O_R   0.036450 0.233070 0.130130 -0.541819
O12   O     O_R   0.963550 0.733070 0.869870 -0.541819
O13   O     O_R   0.912470 0.560570 0.006790 -0.548900
O14   O     O_R   0.087530 0.060570 0.993210 -0.548899
C49   C     C_R   0.887414 0.392121 0.005339 0.685025
C50   C     C_R   0.112586 0.892121 0.994661 0.685024
O15   O     O_R   0.032920 0.562940 0.138050 -0.516149
O16   O     O_R   0.967080 0.062940 0.861950 -0.516149
O17   O     O_R   0.084790 0.730500 0.002090 -0.540634
O18   O     O_R   0.915210 0.230500 0.997910 -0.540633
C51   C     C_R   0.046084 0.394562 0.174416 0.736488
C52   C     C_R   0.953916 0.894562 0.825584 0.736485
O19   O     O_3   0.016820 0.396170 0.955260 -0.380535
O20   O     O_3   0.983180 0.896170 0.044740 -0.380534
V3    V     V_3+5 0.996880 0.672090 0.008300 1.480063
V4    V     V_3+5 0.003120 0.172090 0.991700 1.480064
Br1   Br    Br    0.833110 0.152844 0.745813 -0.601786
Br2   Br    Br    0.166891 0.652840 0.254184 -0.601789
O21   O     O_3   0.195003 0.994405 0.918526 -0.549746
C53   C     C_3   0.191320 0.185380 0.937878 -0.127306
H15   H     H_    0.203584 0.216469 0.014099 0.108807
H16   H     H_    0.143545 0.240510 0.900323 0.150166
H17   H     H_    0.226073 0.260645 0.910220 0.203710
O22   O     O_3   0.804997 0.494404 0.081474 -0.549746
C54   C     C_3   0.808680 0.685379 0.062122 -0.127290
H18   H     H_    0.796415 0.716468 0.985901 0.108801
H19   H     H_    0.856454 0.740509 0.099676 0.150170
H20   H     H_    0.773927 0.760643 0.089781 0.203714
O23   O     O_3   0.304584 0.534090 0.014230 -0.554516
C55   C     C_3   0.325065 0.463780 0.106174 -0.218663
H21   H     H_    0.284319 0.440863 0.134856 0.132631
H22   H     H_    0.361015 0.556295 0.153324 0.170639
H23   H     H_    0.348099 0.327051 0.104708 0.168839
O24   O     O_3   0.695415 0.034090 0.985770 -0.554514
C56   C     C_3   0.674935 0.963781 0.893825 -0.218668
H24   H     H_    0.715682 0.940858 0.865145 0.132630
H25   H     H_    0.638987 0.056298 0.846674 0.170638
H26   H     H_    0.651899 0.827054 0.895291 0.168841
O25   O     O_3   0.881439 0.791455 0.377433 -0.543574
C57   C     C_3   0.902326 0.957345 0.345661 -0.239453
H27   H     H_    0.934572 0.921121 0.303306 0.168721
H28   H     H_    0.929727 0.045118 0.405073 0.133928
H29   H     H_    0.861778 0.037303 0.299963 0.151081
O26   O     O_3   0.118558 0.291467 0.622564 -0.543581
C58   C     C_3   0.097701 0.457356 0.654381 -0.239445
H30   H     H_    0.065435 0.421134 0.696705 0.168715
H31   H     H_    0.070329 0.545232 0.594992 0.133928
H32   H     H_    0.138261 0.537201 0.700119 0.151088
Br3   Br    Br    0.676600 0.641090 0.250361 -0.541042
Br4   Br    Br    0.323400 0.141091 0.749638 -0.541047
Br5   Br    Br    0.446027 0.951856 0.278429 -0.633982
Br6   Br    Br    0.553973 0.451856 0.721571 -0.633982
O27   O     O_3   0.619575 0.026551 0.615241 -0.540436
C59   C     C_3   0.598498 0.867962 0.652743 -0.186190
H33   H     H_    0.570319 0.774374 0.596625 0.167209
H34   H     H_    0.566840 0.913196 0.694483 0.189622
H35   H     H_    0.639114 0.791032 0.700135 0.150455
O28   O     O_3   0.380425 0.526551 0.384759 -0.540435
C60   C     C_3   0.401503 0.367961 0.347257 -0.186189
H36   H     H_    0.429677 0.274366 0.403375 0.167208
H37   H     H_    0.433164 0.413193 0.305522 0.189623
H38   H     H_    0.360886 0.291039 0.299861 0.150455

loop_
_geom_bond_atom_site_label_1
_geom_bond_atom_site_label_2
_ccdc_geom_bond_type
C33   O25   S    
O21   C53   S    
C39   C43   A    
C15   C45   A    
C18   C26   A    
O2    C4    A    
C59   H33   S    
C18   H6    S    
C2    O7    A    
C55   H22   S    
C57   H27   S    
C17   H5    S    
C23   C25   A    
O14   V4    S    
O5    C3    A    
O13   V3    S    
C5    C9    S    
O18   V4    S    
C6    C10   S    
C10   C12   D    
C56   H25   S    
C49   O18   A    
O14   C50   A    
C22   Br2   S    
O24   C56   S    
C14   C22   A    
C44   C46   A    
C3    C12   S    
C29   C31   A    
O26   C58   S    
C31   H9    S    
C37   O27   S    
O11   V4    S    
C17   C19   A    
O11   C51   A    
C9    O23   S    
C28   C30   A    
O28   C60   S    
O1    C3    A    
C60   H38   S    
C10   O24   S    
C43   H13   S    
C18   C20   A    
C7    O21   S    
O12   V3    S    
C1    C16   S    
O15   V3    S    
C28   C36   A    
C32   C34   A    
C2    C15   S    
O6    V2    S    
C6    H2    S    
C30   C42   A    
C53   H15   S    
C35   H11   S    
C50   O17   A    
C25   C33   A    
C55   H21   S    
C36   C38   A    
C41   C47   A    
C30   C32   A    
C37   C39   A    
C42   C48   A    
O17   V3    S    
C38   C40   A    
C43   C45   A    
C21   Br1   S    
C15   C47   A    
C16   C48   A    
O4    C2    A    
C56   H26   S    
C46   Br6   S    
C23   C27   A    
O5    V1    S    
C53   H17   S    
O16   C52   A    
C5    H1    S    
C40   C44   A    
C35   C37   A    
O4    V2    S    
C36   H12   S    
C57   H28   S    
C54   H18   S    
C19   H7    S    
O6    C4    A    
C29   C41   A    
O13   C49   A    
O1    V2    S    
C14   C51   S    
C53   H16   S    
O2    V1    S    
C27   C29   A    
C13   C52   S    
C58   H31   S    
C26   C34   A    
C54   H19   S    
C39   C41   A    
C60   H36   S    
O19   V4    S    
C11   H3    S    
O27   C59   S    
C59   H35   S    
O12   C52   A    
O3    V1    S    
O25   C57   S    
C58   H32   S    
C45   Br5   S    
C8    C49   S    
C34   O26   S    
C32   H10   S    
C24   C26   A    
O3    C1    A    
C59   H34   S    
C47   Br3   S    
C58   H30   S    
C20   H8    S    
C31   C33   A    
C38   O28   S    
C13   C19   A    
C12   H4    S    
O16   V4    S    
C14   C20   A    
C4    C11   S    
C17   C25   A    
O7    V1    S    
C16   C46   A    
C1    O8    A    
C21   C23   A    
C48   Br4   S    
C56   H24   S    
C22   C24   A    
C27   C35   A    
C44   H14   S    
C5    C7    D    
C40   C42   A    
C6    C8    D    
C9    C11   D    
C7    C50   S    
C57   H29   S    
C24   C28   A    
C54   H20   S    
C8    O22   S    
O20   V3    S    
O22   C54   S    
O9    V2    S    
C13   C21   A    
O23   C55   S    
C60   H37   S    
O10   V1    S    
O8    V2    S    
C55   H23   S    
O15   C51   A    
