data_mof_unit_58885.cif
_audit_creation_date              2012-12-11T14:08:01-0500
_audit_creation_method            fapswitch 2.2
_symmetry_space_group_name_H-M    P1
_symmetry_Int_Tables_number       1
_space_group_crystal_system       triclinic
_cell_length_a                    11.134344
_cell_length_b                    11.04454
_cell_length_c                    18.721784
_cell_angle_alpha                 89.866095
_cell_angle_beta                  89.74851
_cell_angle_gamma                 59.799937
_cell_volume                      1989.78834408

loop_
_atom_site_label
_atom_site_type_symbol
_atom_type_description
_atom_site_fract_x
_atom_site_fract_y
_atom_site_fract_z
_atom_type_partial_charge
C1    C     C_R   0.298770 0.616916 0.614227 0.535137
C2    C     C_2   0.767013 0.181610 0.711080 -0.129153
C3    C     C_2   0.255843 0.621567 0.687829 -0.049222
C4    C     C_R   0.652751 0.621637 0.601369 0.535996
C5    C     C_2   0.220437 0.664332 0.847520 0.080910
C6    C     C_2   0.287535 0.538435 0.814595 -0.117046
C7    C     C_2   0.333285 0.524453 0.737965 -0.131459
C8    C     C_2   0.668106 0.682694 0.330655 -0.089136
C9    C     C_2   0.673078 0.682815 0.172808 -0.117022
C10   C     C_2   0.779825 0.653396 0.216716 -0.131215
C11   C     C_2   0.782583 0.612342 0.290371 0.063491
C12   C     C_3   0.757542 0.527484 0.793691 -0.222243
C13   C     C_2   0.671867 0.141561 0.333208 -0.104832
C14   C     C_2   0.652753 0.145415 0.178681 -0.097525
C15   C     C_2   0.608741 0.078170 0.221982 -0.151962
C16   C     C_R   0.628667 0.227844 0.601834 0.525951
C17   C     C_2   0.591376 0.104648 0.298045 -0.159146
C18   C     C_2   0.125360 0.681891 0.344859 -0.096142
C19   C     C_2   0.112323 0.691129 0.190750 -0.101278
C20   C     C_2   0.044686 0.804217 0.233719 -0.150074
C21   C     C_2   0.078352 0.800164 0.308598 -0.163501
C22   C     C_R   0.700755 0.103191 0.898518 0.549425
C23   C     C_3   0.698832 0.683496 0.810880 0.033249
C24   C     C_R   0.726346 0.692022 0.887153 0.563616
C25   C     C_R   0.127723 0.702836 0.911192 0.588745
C26   C     C_R   0.676401 0.103307 0.105025 0.539570
C27   C     C_R   0.698208 0.691510 0.097682 0.544488
C28   C     C_R   0.216652 0.651685 0.404649 0.569225
C29   C     C_R   0.085172 0.713667 0.115376 0.540144
C30   C     C_R   0.644467 0.626301 0.395748 0.569256
C31   C     C_R   0.620030 0.224799 0.397275 0.554127
C32   C     C_3   0.542370 0.762284 0.792895 -0.041522
C33   C     C_3   0.525457 0.725234 0.715337 -0.227219
C34   C     C_3   0.669152 0.649003 0.676056 0.015970
C35   C     C_3   0.765172 0.749450 0.762025 -0.014496
C36   C     C_3   0.989968 0.168946 0.825926 -0.230538
C37   C     C_3   0.733741 0.742265 0.682445 -0.208260
C38   C     C_3   0.759753 0.504870 0.714162 0.005037
C39   C     C_2   0.678802 0.158030 0.671315 -0.150330
C40   C     C_2   0.677801 0.162504 0.827145 -0.093610
C41   C     C_2   0.771488 0.179164 0.791066 0.124629
Cr1   Cr    Cr6+3 0.393010 0.398050 0.501480 1.076049
Cr2   Cr    Cr6+3 0.398820 0.707980 0.501630 1.041475
Cr3   Cr    Cr6+3 0.708140 0.393940 0.496850 1.075215
Cr4   Cr    Cr6+3 0.937950 0.938450 0.008940 1.038763
Cr5   Cr    Cr6+3 0.626180 0.937030 0.994750 1.063613
Cr6   Cr    Cr6+3 0.937790 0.625760 0.001410 1.047793
H1    H     H_    0.827342 0.702393 0.647689 0.179451
H2    H     H_    0.574399 0.696874 0.191513 0.093290
H3    H     H_    0.580824 0.779209 0.310356 0.082329
H4    H     H_    0.577700 0.006450 0.200768 0.159462
H5    H     H_    0.501793 0.107571 0.323166 0.169820
H6    H     H_    0.684884 0.217077 0.198438 0.103235
H7    H     H_    0.766268 0.129692 0.309157 0.112811
H8    H     H_    0.973606 0.907231 0.211873 0.164120
H9    H     H_    0.481664 0.654781 0.716383 0.115637
H10   H     H_    0.081001 0.889709 0.330652 0.165448
H11   H     H_    0.184458 0.586674 0.210233 0.106184
H12   H     H_    0.829121 0.217654 0.684246 0.187745
H13   H     H_    0.115046 0.596344 0.323713 0.145118
H14   H     H_    0.450245 0.821686 0.686309 0.205056
H15   H     H_    0.730684 0.859216 0.777405 0.155957
H16   H     H_    0.659195 0.849566 0.662829 0.120964
H17   H     H_    0.864126 0.462036 0.814001 0.212029
H18   H     H_    0.689568 0.493876 0.820265 0.104151
H19   H     H_    0.707790 0.443178 0.705207 0.122276
H20   H     H_    0.802191 0.279636 0.878537 0.251673
H21   H     H_    0.031987 0.088527 0.868498 0.211527
H22   H     H_    0.025615 0.243731 0.838669 0.165335
H23   H     H_    0.588290 0.170327 0.800364 0.111189
H24   H     H_    0.027943 0.126925 0.771653 0.222103
H25   H     H_    0.622927 0.110065 0.693657 0.119728
H26   H     H_    0.296678 0.446750 0.841214 0.153869
H27   H     H_    0.429493 0.431598 0.722346 0.118458
H28   H     H_    0.492265 0.724128 0.830925 0.160122
H29   H     H_    0.154729 0.709474 0.699738 0.187261
H30   H     H_    0.877060 0.639329 0.195494 0.172800
I1    I     I_    0.438342 0.991077 0.802481 -0.378763
I2    I     I_    0.975556 0.373242 0.675697 -0.319765
I3    I     I_    0.976738 0.646206 0.772632 -0.374840
I4    I     I_    0.214833 0.842291 0.800816 -0.446069
I5    I     I_    0.972982 0.429550 0.319805 -0.366279
N1    N     N_2   0.841410 0.238166 0.828719 -0.543718
O1    O     O_R   0.507110 0.256280 0.580300 -0.502015
O2    O     O_R   0.837080 0.593860 0.915300 -0.512292
O3    O     O_R   0.064770 0.636080 0.932550 -0.478598
O4    O     O_R   0.280830 0.527190 0.577940 -0.465651
O5    O     O_R   0.068250 0.829200 0.092940 -0.511644
O6    O     O_R   0.799650 0.057040 0.080330 -0.508750
O7    O     O_R   0.586130 0.079760 0.077080 -0.508290
O8    O     O_R   0.627700 0.809630 0.066580 -0.497038
O9    O     O_R   0.816140 0.597180 0.075920 -0.506287
O10   O     O_R   0.045360 0.639170 0.081440 -0.507278
O11   O     O_3   0.833980 0.833750 0.001700 -0.271122
O12   O     O_R   0.524640 0.695370 0.425100 -0.505910
O13   O     O_R   0.261360 0.738990 0.584270 -0.494505
O14   O     O_R   0.532590 0.694780 0.574370 -0.531085
O15   O     O_R   0.744470 0.503750 0.577000 -0.478020
O16   O     O_R   0.698520 0.277230 0.571620 -0.500453
O17   O     O_R   0.498530 0.256920 0.419280 -0.506449
O18   O     O_R   0.272880 0.527780 0.428680 -0.483246
O19   O     O_R   0.252780 0.739630 0.423250 -0.507126
O20   O     O_R   0.735890 0.504390 0.415980 -0.458140
O21   O     O_R   0.690560 0.277820 0.422350 -0.489361
O22   O     O_3   0.499990 0.499990 0.499980 -0.299237
O23   O     O_R   0.089190 0.825870 0.932320 -0.483871
O24   O     O_R   0.819070 0.053960 0.931440 -0.482834
O25   O     O_R   0.607070 0.076440 0.916460 -0.494069
O26   O     O_R   0.647110 0.806550 0.917690 -0.471382

loop_
_geom_bond_atom_site_label_1
_geom_bond_atom_site_label_2
_ccdc_geom_bond_type
C1    O4    A    
C18   C28   S    
H20   N1    S    
C4    O15   A    
C18   C21   D    
Cr6   O9    S    
C19   C20   D    
C32   H28   S    
Cr3   O21   S    
Cr3   O22   S    
Cr4   O23   S    
C26   O6    A    
C12   C23   S    
C40   H23   S    
Cr6   O2    S    
C35   C37   S    
C3    C7    D    
C8    C11   D    
C5    C6    D    
C12   H17   S    
Cr3   O16   S    
C38   I2    S    
C36   N1    S    
C22   O24   A    
C41   N1    S    
C35   I3    S    
C16   O1    A    
Cr2   O22   S    
C29   O5    A    
Cr3   O15   S    
C2    C39   D    
Cr3   O20   S    
C38   H19   S    
Cr5   O25   S    
C30   O20   A    
Cr2   O12   S    
C23   C24   S    
C27   O8    A    
C15   H4    S    
Cr4   O6    S    
C9    C10   D    
C36   H24   S    
C33   H9    S    
C19   H11   S    
C4    O14   A    
C20   H8    S    
Cr4   O11   S    
C28   O18   A    
C17   H5    S    
C37   H16   S    
C10   H30   S    
C25   O23   A    
C33   C34   S    
C7    H27   S    
C11   I5    S    
C4    C34   S    
Cr6   O3    S    
Cr4   O5    S    
C9    H2    S    
C2    H12   S    
Cr5   O8    S    
C32   C33   S    
C1    C3    S    
C21   H10   S    
C30   O12   A    
Cr1   O17   S    
C5    I4    S    
Cr5   O11   S    
C39   H25   S    
C22   C40   S    
Cr2   O13   S    
Cr6   O10   S    
Cr1   O1    S    
C27   O9    A    
C31   O17   A    
C14   C26   S    
C37   H1    S    
C3    H29   S    
C5    C25   S    
C18   H13   S    
C40   C41   D    
C23   C35   S    
C19   C29   S    
Cr1   O18   S    
C8    H3    S    
C36   H22   S    
C9    C27   S    
C6    H26   S    
C13   H7    S    
C24   O2    A    
C15   C17   S    
C34   C38   S    
C13   C31   S    
C24   O26   A    
Cr2   O14   S    
C36   H21   S    
C16   O16   A    
C6    C7    S    
Cr5   O7    S    
C34   C37   S    
C26   O7    A    
C12   H18   S    
C13   C17   D    
C8    C30   S    
C31   O21   A    
Cr2   O19   S    
C23   C32   S    
C29   O10   A    
C1    O13   A    
C22   O25   A    
C25   O3    A    
Cr6   O11   S    
C35   H15   S    
C12   C38   S    
Cr1   O22   S    
C10   C11   S    
C16   C39   S    
C32   I1    S    
C28   O19   A    
C14   H6    S    
C20   C21   S    
C33   H14   S    
Cr5   O26   S    
C14   C15   D    
Cr1   O4    S    
C2    C41   S    
Cr4   O24   S    
