data_mof_unit_27435.cif
_audit_creation_date              2012-12-11T15:21:27-0500
_audit_creation_method            fapswitch 2.2
_symmetry_space_group_name_H-M    P1
_symmetry_Int_Tables_number       1
_space_group_crystal_system       triclinic
_cell_length_a                    8.359226
_cell_length_b                    12.741156
_cell_length_c                    19.202134
_cell_angle_alpha                 94.246776
_cell_angle_beta                  93.974017
_cell_angle_gamma                 98.136629
_cell_volume                      2012.39549231

loop_
_atom_site_label
_atom_site_type_symbol
_atom_type_description
_atom_site_fract_x
_atom_site_fract_y
_atom_site_fract_z
_atom_type_partial_charge
Ba1   Ba    Ba6+2 0.160910 0.552960 0.466220 1.610777
Ba2   Ba    Ba6+2 0.649260 0.447030 0.533730 1.631467
C1    C     C_3   0.352457 0.824590 0.205803 -0.376723
C2    C     C_3   0.368178 0.790251 0.279798 0.349553
C3    C     C_3   0.500887 0.778738 0.642896 0.256514
C4    C     C_3   0.455040 0.886295 0.664785 -0.355092
C5    C     C_3   0.928476 0.176011 0.759043 0.515177
C6    C     C_3   0.887344 0.100727 0.815871 -0.352877
C7    C     C_3   0.409609 0.207772 0.721712 0.335805
C8    C     C_3   0.439008 0.170839 0.794296 -0.365227
C9    C     C_R   0.078402 0.182807 0.520056 -0.244739
C10   C     C_R   0.723499 0.821072 0.487919 -0.081002
C11   C     C_R   0.701575 0.997656 0.452502 -0.114915
C12   C     C_3   0.850641 0.818577 0.279345 0.331624
C13   C     C_R   0.632999 0.891416 0.456394 0.013179
C14   C     C_R   0.884207 0.852914 0.514347 0.074248
C15   C     C_R   0.951886 0.963477 0.515018 -0.088721
C16   C     C_R   0.858368 0.037385 0.483962 -0.084587
C17   C     C_R   0.923222 0.149084 0.487914 0.076012
C18   C     C_R   0.170796 0.111425 0.548271 0.013377
C19   C     C_R   0.107534 0.003389 0.547277 -0.073923
C20   C     C_R   0.626259 0.505880 0.288327 -0.278773
C21   C     C_R   0.463755 0.467491 0.269042 -0.013501
C22   C     C_R   0.406314 0.464121 0.197146 0.148777
C23   C     C_3   0.834682 0.911568 0.235286 -0.387188
C24   C     C_R   0.515441 0.506886 0.148347 -0.001862
C25   C     C_R   0.672822 0.557379 0.173130 -0.177760
C26   C     C_R   0.728347 0.556222 0.243488 0.023341
C27   C     C_R   0.476104 0.584748 0.032550 -0.106577
C28   C     C_R   0.419914 0.573875 0.961537 -0.111772
C29   C     C_R   0.351124 0.474079 0.927786 0.026575
C30   C     C_R   0.343260 0.383244 0.967102 0.195451
C31   C     C_R   0.411149 0.394942 0.037047 -0.059027
C32   C     C_R   0.469686 0.495482 0.071286 0.026521
C33   C     C_R   0.132758 0.425339 0.827164 -0.147440
C34   C     C_3   0.818855 0.302050 0.313771 0.316790
C35   C     C_R   0.084356 0.417199 0.754931 0.006195
C36   C     C_R   0.348150 0.503370 0.731841 0.053996
C37   C     C_R   0.399774 0.509648 0.803291 -0.119793
C38   C     C_R   0.293909 0.467744 0.851737 -0.013813
C39   C     C_R   0.194190 0.452623 0.707798 -0.272623
C40   C     C_3   0.878161 0.263253 0.244870 -0.363819
C41   C     C_3   0.047765 0.677974 0.676235 0.311773
C42   C     C_3   0.080781 0.705223 0.754929 -0.397521
C43   C     C_3   0.385158 0.215547 0.332193 0.465924
C44   C     C_3   0.408315 0.182747 0.255448 -0.359967
H1    H     H_    0.790364 0.195778 0.218856 0.105668
H2    H     H_    0.888551 0.328478 0.209753 0.060322
H3    H     H_    0.997308 0.235941 0.254064 0.127709
H4    H     H_    0.156112 0.651221 0.654881 -0.001247
H5    H     H_    0.943161 0.613176 0.666642 0.078430
H6    H     H_    0.188933 0.767199 0.766094 0.126857
H7    H     H_    0.103116 0.634091 0.781586 0.069229
H8    H     H_    0.974492 0.735440 0.776525 0.126874
H9    H     H_    0.501385 0.256437 0.357732 0.054243
H10   H     H_    0.258244 0.877544 0.201249 0.130523
H11   H     H_    0.290145 0.151391 0.225990 0.098141
H12   H     H_    0.489246 0.120760 0.252688 0.117735
H13   H     H_    0.464155 0.251942 0.229394 0.048130
H14   H     H_    0.458607 0.734372 0.282214 -0.029870
H15   H     H_    0.317197 0.753428 0.167990 0.082217
H16   H     H_    0.627169 0.789134 0.627228 0.005691
H17   H     H_    0.414523 0.744817 0.598174 0.066456
H18   H     H_    0.528525 0.921408 0.713422 0.120852
H19   H     H_    0.475653 0.938732 0.621730 0.107093
H20   H     H_    0.325064 0.877982 0.675084 0.133806
H21   H     H_    0.759144 0.965760 0.260941 0.097239
H22   H     H_    0.046342 0.223536 0.778198 -0.047095
H23   H     H_    0.778828 0.041274 0.799075 0.103215
H24   H     H_    0.990860 0.057421 0.828056 0.071055
H25   H     H_    0.510270 0.271583 0.714125 0.119518
H26   H     H_    0.326380 0.124282 0.809779 0.094504
H27   H     H_    0.479218 0.240796 0.832522 0.095679
H28   H     H_    0.895340 0.849517 0.333936 0.017535
H29   H     H_    0.535663 0.119646 0.794783 0.144586
H30   H     H_    0.630263 0.048228 0.425099 0.135773
H31   H     H_    0.180596 0.952057 0.572844 0.100750
H32   H     H_    0.130127 0.265883 0.521809 0.074447
H33   H     H_    0.520471 0.549264 0.821222 0.088292
H34   H     H_    0.426532 0.644447 0.933057 0.078208
H35   H     H_    0.727528 0.772881 0.278645 -0.036885
H36   H     H_    0.046319 0.397563 0.863643 0.075290
H37   H     H_    0.753754 0.594242 0.137329 0.081654
H38   H     H_    0.155270 0.448242 0.652557 0.057560
H39   H     H_    0.677305 0.491379 0.338728 -0.006720
H40   H     H_    0.955213 0.956676 0.228805 0.106570
H41   H     H_    0.776028 0.881553 0.182540 0.109270
H42   H     H_    0.701143 0.326412 0.300789 -0.053878
H43   H     H_    0.903517 0.370708 0.338874 0.091898
O1    O     O_2   0.160820 0.763040 0.533820 -0.482436
O2    O     O_3   0.264798 0.281245 0.336212 -0.630468
O3    O     O_3   0.960583 0.756789 0.250782 -0.603783
O4    O     O_2   0.649470 0.236890 0.466160 -0.474272
O5    O     O_3   0.919320 0.371390 0.464540 -0.501951
O6    O     O_3   0.424350 0.301430 0.591880 -0.482446
O7    O     O_3   0.794175 0.216446 0.354916 -0.651062
O8    O     O_3   0.382770 0.553920 0.582990 -0.498175
O9    O     O_3   0.848220 0.355290 0.626830 -0.466695
O10   O     O_2   0.760819 0.434969 0.748774 -0.492163
O11   O     O_3   0.803204 0.238833 0.749503 -0.601812
O12   O     O_3   0.890970 0.628600 0.535400 -0.488920
O13   O     O_3   0.427530 0.446070 0.416950 -0.497660
O14   O     O_2   0.637430 0.550200 0.669460 -0.446167
O15   O     O_3   0.491060 0.716825 0.699978 -0.636916
O16   O     O_2   0.503432 0.114307 0.546728 -0.500447
O17   O     O_3   0.406127 0.120986 0.672024 -0.626755
O18   O     O_3   0.385950 0.698560 0.408070 -0.513766
O19   O     O_2   0.295531 0.884748 0.449587 -0.485737
O20   O     O_3   0.013228 0.769544 0.646001 -0.641941
O21   O     O_3   0.414588 0.880049 0.327432 -0.615915
O22   O     O_2   0.172860 0.449730 0.330520 -0.444757
O23   O     O_3   0.962080 0.644700 0.373110 -0.496226
O24   O     O_2   0.069646 0.578608 0.253343 -0.495113
P1    P     P_3+3 0.986780 0.745970 0.554690 0.987283
P2    P     P_3+3 0.341450 0.417130 0.341310 0.961101
P3    P     P_3+3 0.927429 0.629587 0.280959 0.914673
P4    P     P_3+3 0.823520 0.254020 0.445250 0.971948
P5    P     P_3+3 0.877096 0.361826 0.719450 0.950113
P6    P     P_3+3 0.430881 0.838441 0.412267 0.942027
P7    P     P_3+3 0.462801 0.581504 0.671137 0.946882
P8    P     P_3+3 0.375793 0.162747 0.588097 0.933862
H44   H     H_    0.249647 0.748719 0.291700 0.135742
N1    N     N_2   0.337011 0.122333 0.369478 -0.403621
H45   H     H_    0.349374 0.139396 0.423011 0.198997
C45   C     C_3   0.181964 0.059043 0.345732 -0.173556
H46   H     H_    0.145167 0.001761 0.384266 0.127521
H47   H     H_    0.192363 0.013287 0.295388 0.120692
H48   H     H_    0.084854 0.109588 0.339967 0.105941
H49   H     H_    0.469854 0.867787 0.192714 0.103524
N2    N     N_2   0.948155 0.115747 0.693975 -0.455434
H50   H     H_    0.042283 0.071387 0.695813 0.170895
C46   C     C_3   0.801303 0.064375 0.654039 -0.157371
H51   H     H_    0.780297 0.108924 0.608044 0.151330
H52   H     H_    0.694170 0.065167 0.684507 0.148489
H53   H     H_    0.811383 0.980380 0.637808 0.059599
H54   H     H_    0.862877 0.147187 0.864180 0.094515
H55   H     H_    0.292798 0.239992 0.718250 -0.044370
N3    N     N_2   0.657328 0.712776 0.488278 -0.432773
H56   H     H_    0.550041 0.695123 0.510688 0.203140
C47   C     C_3   0.677323 0.649339 0.425192 0.024894
H57   H     H_    0.568126 0.599964 0.405877 0.108404
H58   H     H_    0.752358 0.587605 0.434825 0.147281
H59   H     H_    0.710994 0.699108 0.382303 -0.027804
H60   H     H_    0.521782 0.663245 0.057641 0.072701
N4    N     N_2   0.248362 0.409301 0.173143 -0.435483
H61   H     H_    0.192945 0.355634 0.204541 0.198733
C48   C     C_3   0.140463 0.461015 0.128932 -0.159852
H62   H     H_    0.019813 0.456840 0.149704 0.112260
H63   H     H_    0.119777 0.418275 0.076045 0.085023
H64   H     H_    0.189197 0.545944 0.124869 0.119012
N5    N     N_2   0.273239 0.279573 0.937259 -0.433208
H65   H     H_    0.250229 0.271231 0.883793 0.191776
C49   C     C_3   0.139835 0.227573 0.972351 -0.263243
H66   H     H_    0.102642 0.145449 0.947669 0.110863
H67   H     H_    0.034992 0.272083 0.967870 0.100415
H68   H     H_    0.175428 0.221201 0.028424 0.119158
H69   H     H_    0.412584 0.325479 0.066211 0.082345

loop_
_geom_bond_atom_site_label_1
_geom_bond_atom_site_label_2
_ccdc_geom_bond_type
C34   H43   S    
Ba1   O1    S    
C43   H9    S    
C44   H13   S    
C6    H54   S    
C34   C40   S    
O14   P7    D    
C23   H21   S    
C47   H59   S    
C41   H5    S    
N4    H61   S    
N1    H45   S    
C43   C44   S    
C34   H42   S    
C9    C17   A    
C6    H23   S    
C11   C16   A    
C12   H28   S    
Ba2   O6    S    
C48   H63   S    
C47   H58   S    
C16   C17   A    
C22   N4    S    
Ba1   O23   S    
C36   C37   A    
C8    H27   S    
N1    C45   S    
Ba2   O13   S    
C23   H41   S    
C29   C38   S    
C3    H17   S    
Ba1   Ba2   S    
C1    H10   S    
C20   H39   S    
C4    H18   S    
C5    N2    S    
O13   P2    S    
C26   P3    S    
C48   H62   S    
C5    H22   S    
C7    H55   S    
C42   H7    S    
C33   H36   S    
C4    H19   S    
C35   P5    S    
C10   C14   A    
Ba2   O8    S    
C31   H69   S    
C14   C15   A    
C45   H48   S    
C21   C22   A    
C11   H30   S    
C49   H67   S    
C7    C8    S    
O24   P3    D    
C28   H34   S    
C42   H6    S    
O1    P1    D    
C3    O15   S    
C20   C26   A    
C44   H12   S    
O12   P1    S    
O19   P6    D    
O4    P4    D    
C13   P6    S    
O18   P6    S    
N4    C48   S    
Ba2   P4    S    
C24   C32   S    
O9    P5    S    
C1    H15   S    
C9    C18   A    
C5    O11   S    
C2    H44   S    
O7    P4    S    
Ba2   O5    S    
C48   H64   S    
C31   C32   A    
C47   H57   S    
C36   C39   A    
Ba1   O8    S    
C37   C38   A    
C46   H51   S    
Ba2   O12   S    
C7    O17   S    
C39   H38   S    
C27   C32   A    
C15   C19   A    
C37   H33   S    
N2    C46   S    
C41   C42   S    
C27   C28   A    
C9    H32   S    
C8    H29   S    
C34   O7    S    
C29   C30   A    
C10   C13   A    
C28   C29   A    
N5    H65   S    
C2    H14   S    
C15   C16   A    
C24   C25   A    
O16   P8    D    
C43   N1    S    
C40   H2    S    
C49   H68   S    
O3    P3    S    
C12   O3    S    
C18   P8    S    
N3    C47   S    
O20   P1    S    
Ba1   O18   S    
C11   C13   A    
C44   H11   S    
C45   H46   S    
C10   N3    S    
O11   P5    S    
Ba1   P1    S    
C1    C2    S    
Ba1   O12   S    
O23   P3    S    
C17   P4    S    
C2    O21   S    
C33   C35   A    
C1    H49   S    
Ba2   O4    S    
C7    H25   S    
C22   C24   A    
C14   P1    S    
O21   P6    S    
Ba1   O5    S    
C41   H4    S    
C41   O20   S    
C6    H24   S    
C30   C31   A    
O8    P7    S    
C25   H37   S    
C33   C38   A    
C36   P7    S    
Ba1   O22   S    
O10   P5    D    
C27   H60   S    
O6    P8    S    
C3    C4    S    
C30   N5    S    
Ba2   O14   S    
C46   H53   S    
O17   P8    S    
C23   H40   S    
O5    P4    S    
O2    P2    S    
C3    H16   S    
N2    H50   S    
C40   H1    S    
N5    C49   S    
C12   C23   S    
C35   C39   A    
C43   O2    S    
C5    C6    S    
N3    H56   S    
C40   H3    S    
C21   P2    S    
C42   H8    S    
C4    H20   S    
C18   C19   A    
Ba2   O9    S    
C46   H52   S    
C19   H31   S    
C25   C26   A    
C45   H47   S    
C20   C21   A    
O22   P2    D    
Ba1   P2    S    
C12   H35   S    
C49   H66   S    
Ba1   O13   S    
O15   P7    S    
C8    H26   S    
