data_mof_unit_45441.cif
_audit_creation_date              2013-03-05T15:54:52-0500
_audit_creation_method            fapswitch 2.2
_symmetry_space_group_name_H-M    P1
_symmetry_Int_Tables_number       1
_space_group_crystal_system       triclinic
_cell_length_a                    12.385379
_cell_length_b                    13.191287
_cell_length_c                    14.286175
_cell_angle_alpha                 93.135432
_cell_angle_beta                  107.956059
_cell_angle_gamma                 116.866362
_cell_volume                      1928.2562465

loop_
_atom_site_label
_atom_site_type_symbol
_atom_site_description
_atom_site_fract_x
_atom_site_fract_y
_atom_site_fract_z
_atom_type_partial_charge
O1    O     O_R   0.545970 0.684450 0.528810 -0.531740
O2    O     O_R   0.687130 0.639470 0.490120 -0.608599
C1    C     C_R   0.654401 0.715651 0.514362 0.831268
O3    O     O_R   0.519670 0.535100 0.660030 -0.574346
O4    O     O_R   0.660830 0.490120 0.621340 -0.612345
C2    C     C_R   0.617770 0.515314 0.686601 0.800798
Cu1   Cu    Cu3+1 0.416420 0.526630 0.522910 1.015226
Cu2   Cu    Cu3+1 0.583580 0.473370 0.477090 1.005678
O5    O     O_R   0.312870 0.360530 0.509880 -0.579504
O6    O     O_R   0.454030 0.315550 0.471190 -0.545071
O7    O     O_R   0.339170 0.509880 0.378660 -0.565707
O8    O     O_R   0.480330 0.464900 0.339970 -0.538326
C3    C     C_R   0.343623 0.284622 0.482149 0.860155
C4    C     C_R   0.381007 0.482168 0.313096 0.895173
C5    C     C_R   0.679458 0.515292 0.792533 -0.051903
C6    C     C_R   0.313699 0.469731 0.204899 -0.192827
C7    C     C_R   0.691042 0.525933 0.965082 -0.100902
C8    C     C_R   0.631835 0.529906 0.866134 -0.171318
C9    C     C_R   0.785115 0.494986 0.818562 -0.196171
C10   C     C_R   0.842524 0.484537 0.916273 0.060553
C11   C     C_R   0.797176 0.504690 0.991670 0.062298
C12   C     C_R   0.947714 0.460155 0.941679 -0.006710
C13   C     C_R   0.010519 0.461993 0.043646 0.045589
C14   C     C_R   0.969587 0.491153 0.117621 -0.177257
C15   C     C_R   0.862259 0.507799 0.092386 0.343351
C16   C     C_R   0.993784 0.435791 0.868843 -0.197571
C17   C     C_R   0.111398 0.434289 0.897087 0.381146
C18   C     C_R   0.181768 0.451299 0.000156 -0.080357
C19   C     C_R   0.121969 0.447337 0.070841 0.017811
C20   C     C_R   0.312134 0.476664 0.035122 -0.148846
C21   C     C_R   0.380322 0.493596 0.137538 0.324560
C22   C     C_R   0.180281 0.434607 0.167780 0.277795
H1    H     H_    0.653330 0.540191 0.020324 0.232079
H2    H     H_    0.549524 0.545096 0.847516 0.178393
H3    H     H_    0.822842 0.490120 0.761133 0.155783
H4    H     H_    0.024183 0.507246 0.197206 0.211436
H5    H     H_    0.940561 0.417292 0.788918 0.195635
H6    H     H_    0.364752 0.491998 0.984656 0.203090
C23   C     C_R   0.112773 0.968940 0.343080 -0.185152
H7    H     H_    0.885013 0.773898 0.281488 0.215024
H8    H     H_    0.097799 0.906479 0.281148 0.184494
C24   C     C_R   0.244200 0.160742 0.456393 -0.125573
C25   C     C_R   0.758446 0.925173 0.605224 0.316774
C26   C     C_R   0.853465 0.042285 0.625594 0.421207
C27   C     C_R   0.943618 0.075598 0.579137 -0.284305
C28   C     C_R   0.938940 0.993549 0.508046 0.030991
C29   C     C_R   0.831215 0.878545 0.475975 -0.003360
C30   C     C_R   0.036686 0.022711 0.466217 0.128861
C31   C     C_R   0.017900 0.941441 0.385505 0.056595
C32   C     C_R   0.903230 0.834414 0.346307 -0.145796
C33   C     C_R   0.810926 0.803670 0.390295 -0.103785
C34   C     C_R   0.153384 0.129874 0.502958 -0.276501
C35   C     C_R   0.224898 0.078247 0.376957 0.395449
C36   C     C_R   0.745849 0.841597 0.529601 -0.246619
H9    H     H_    0.175998 0.192601 0.567515 0.181689
H10   H     H_    0.014432 0.167202 0.598718 0.209865
H11   H     H_    0.722262 0.721344 0.354752 0.217276
C37   C     C_R   0.253048 0.682568 0.663921 -0.231958
H12   H     H_    0.439869 0.699314 0.685404 0.178376
H13   H     H_    0.075049 0.721409 0.696549 0.162483
H14   H     H_    0.292670 0.752676 0.728994 0.155126
N1    N     N_R   0.290690 0.566960 0.557640 -0.194889
C38   C     C_R   0.655940 0.346075 0.360484 0.189947
C39   C     C_R   0.733462 0.312068 0.329823 -0.152124
C40   C     C_R   0.868104 0.369332 0.382632 -0.148605
C41   C     C_R   0.927867 0.463051 0.466728 0.009322
C42   C     C_R   0.843714 0.494270 0.495928 0.299638
C43   C     C_R   0.067419 0.527134 0.522551 -0.000288
C44   C     C_R   0.118754 0.620242 0.606115 0.191922
C45   C     C_R   0.035895 0.649840 0.632778 -0.257034
C46   C     C_R   0.902090 0.588852 0.578897 -0.183706
C47   C     C_R   0.159457 0.503325 0.500132 0.061312
C48   C     C_R   0.337193 0.653498 0.639033 0.141736
N2    N     N_R   0.709100 0.433710 0.442970 -0.217929
H15   H     H_    0.128592 0.433883 0.438070 0.164930
H16   H     H_    0.552517 0.303178 0.317154 0.191856
H17   H     H_    0.923160 0.339360 0.355532 0.185945
H18   H     H_    0.689002 0.241542 0.264151 0.179775
H19   H     H_    0.848033 0.619623 0.605019 0.201186
Cl1   Cl    Cl    0.819446 0.539601 0.192324 -0.618748
Cl2   Cl    Cl    0.331826 0.108561 0.312150 -0.614143
Cl3   Cl    Cl    0.663077 0.886520 0.680770 -0.560111
Cl4   Cl    Cl    0.865887 0.150203 0.713290 -0.490816
Cl5   Cl    Cl    0.081051 0.344567 0.229264 -0.642543
Cl6   Cl    Cl    0.548732 0.545420 0.176404 -0.609989
N3    N     N_R   0.154709 0.410420 0.820026 0.126933
O9    O     O_R   0.206125 0.342787 0.828309 -0.338789
O10   O     O_R   0.122443 0.438782 0.734046 -0.384269

loop_
_geom_bond_atom_site_label_1
_geom_bond_atom_site_label_2
_geom_bond_distance
_ccdc_geom_bond_type
C5    C8    1.397728 A    
C41   C43   1.446997 A    
C21   Cl6   1.755537 S    
C15   Cl1   1.760096 S    
C9    C10   1.403852 A    
C26   Cl4   1.762934 S    
C46   H19   1.065552 S    
Cu1   Cu2   2.703398 S    
C23   H8    1.084925 S    
C23   C35   1.393304 A    
C27   C28   1.411763 A    
C6    C21   1.412095 A    
Cu1   O7    1.937647 S    
C16   C17   1.396332 A    
C14   H4    1.079268 S    
C13   C19   1.418616 A    
C18   C19   1.415249 A    
C19   C22   1.409282 A    
O3    Cu1   1.946156 S    
C24   C35   1.411277 A    
C20   C21   1.391313 A    
O7    C4    1.308616 A    
N3    O10   1.300472 A    
C38   H16   1.077886 S    
C20   H6    1.082545 S    
C35   Cl2   1.757504 S    
O5    C3    1.303465 A    
C2    C5    1.470144 S    
C27   H10   1.077733 S    
C43   C44   1.415536 A    
C13   C14   1.408531 A    
N1    C48   1.354465 A    
C45   C46   1.388114 A    
C33   H11   1.077554 S    
H12   C48   1.078623 S    
C34   H9    1.077720 S    
C43   C47   1.427699 A    
C37   H14   1.083896 S    
C41   C42   1.437771 A    
C7    H1    1.080185 S    
C47   H15   1.075652 S    
C3    C24   1.469101 S    
C32   C33   1.384967 A    
C22   Cl5   1.775697 S    
C28   C30   1.421615 A    
C40   H17   1.077437 S    
C14   C15   1.386432 A    
O3    C2    1.304432 A    
N3    O9    1.301565 A    
C29   C33   1.410935 A    
C7    C11   1.409771 A    
O1    C1    1.302370 A    
C17   N3    1.441431 S    
C5    C9    1.396476 A    
C25   C26   1.397388 A    
Cu1   N1    2.037250 S    
C25   C36   1.420315 A    
H13   C45   1.084516 S    
Cu2   O8    1.946156 S    
Cu2   N2    2.025477 S    
C7    C8    1.393718 A    
N1    C47   1.374595 A    
C37   C44   1.402606 A    
C42   N2    1.393779 A    
C8    H2    1.083251 S    
C29   C36   1.420161 A    
C30   C31   1.416646 A    
C23   C31   1.399132 A    
O8    C4    1.297758 A    
C40   C41   1.407759 A    
C4    C6    1.471486 S    
C26   C27   1.387692 A    
Cu1   O5    1.936144 S    
C11   C15   1.403655 A    
C28   C29   1.417450 A    
O1    Cu1   1.947822 S    
C39   H18   1.082556 S    
O2    Cu2   1.936145 S    
C10   C12   1.425652 A    
O6    C3    1.302148 A    
O4    Cu2   1.937647 S    
C16   H5    1.076052 S    
C38   N2    1.357640 A    
C6    C22   1.402589 A    
C39   C40   1.394303 A    
C18   C20   1.401659 A    
O2    C1    1.307974 A    
C9    H3    1.073914 S    
O4    C2    1.302686 A    
H7    C32   1.083137 S    
C1    C36   1.482596 S    
C42   C46   1.406715 A    
C44   C45   1.391975 A    
C38   C39   1.393588 A    
C30   C34   1.402590 A    
C10   C11   1.422320 A    
Cu2   O6    1.947821 S    
C31   C32   1.390962 A    
C12   C16   1.416626 A    
C17   C18   1.404957 A    
C25   Cl3   1.766877 S    
C12   C13   1.417085 A    
C37   C48   1.390792 A    
C24   C34   1.396622 A    
