data_mof_unit_27009.cif
_audit_creation_date              2012-12-10T17:03:24-0500
_audit_creation_method            fapswitch 2.2
_symmetry_space_group_name_H-M    P1
_symmetry_Int_Tables_number       1
_space_group_crystal_system       triclinic
_cell_length_a                    15.039411
_cell_length_b                    11.020495
_cell_length_c                    9.951785
_cell_angle_alpha                 110.979063
_cell_angle_beta                  98.342934
_cell_angle_gamma                 92.947882
_cell_volume                      1514.2196097

loop_
_atom_site_label
_atom_site_type_symbol
_atom_type_description
_atom_site_fract_x
_atom_site_fract_y
_atom_site_fract_z
_atom_type_partial_charge
C1    C     C_R   0.493339 0.254289 0.440610 0.852795
C2    C     C_R   0.506661 0.745711 0.559390 0.852793
C3    C     C_R   0.013858 0.347522 0.245478 -0.174745
C4    C     C_R   0.986141 0.652485 0.754522 -0.174733
C5    C     C_2   0.488711 0.114380 0.407473 -0.345716
C6    C     C_2   0.511289 0.885620 0.592527 -0.345719
C7    C     C_2   0.503212 0.069714 0.515905 -0.129660
C8    C     C_2   0.496788 0.930286 0.484095 -0.129658
C9    C     C_2   0.508721 0.511383 0.080486 0.198179
C10   C     C_2   0.491279 0.488617 0.919514 0.198179
C11   C     C_R   0.328933 0.497367 0.499927 0.844235
C12   C     C_R   0.671067 0.502633 0.500073 0.844230
C13   C     C_R   0.829846 0.586399 0.626721 0.438200
C14   C     C_R   0.170154 0.413610 0.373275 0.438193
C15   C     C_R   0.768064 0.507975 0.500270 -0.163127
C16   C     C_R   0.231936 0.492027 0.499729 -0.163123
C17   C     C_R   0.798871 0.432897 0.373358 -0.294373
C18   C     C_R   0.201129 0.567102 0.626644 -0.294372
C19   C     C_R   0.891055 0.429712 0.372262 0.113293
C20   C     C_R   0.108945 0.570292 0.627738 0.113290
C21   C     C_R   0.953461 0.502746 0.500073 0.022770
C22   C     C_R   0.046539 0.497263 0.499925 0.022777
C23   C     C_R   0.922963 0.581090 0.627979 0.007037
C24   C     C_R   0.077037 0.418920 0.372019 0.007031
C25   C     C_R   0.921644 0.352866 0.245771 -0.193621
C26   C     C_R   0.078356 0.647136 0.754232 -0.193628
Cu1   Cu    Cu3+1 0.515770 0.521810 0.644910 0.996706
Cu2   Cu    Cu3+1 0.484230 0.478190 0.355090 0.996710
H1    H     H_    0.750827 0.374200 0.276167 0.182323
H2    H     H_    0.249172 0.625792 0.723838 0.182325
H3    H     H_    0.874170 0.296473 0.147054 0.147080
H4    H     H_    0.125829 0.703522 0.852953 0.147080
H5    H     H_    0.035375 0.287272 0.145825 0.187429
H6    H     H_    0.964624 0.712732 0.854177 0.187432
H7    H     H_    0.480046 0.863788 0.370561 0.200304
H8    H     H_    0.519954 0.136212 0.629439 0.200304
H9    H     H_    0.527206 0.952508 0.705955 0.154054
H10   H     H_    0.472794 0.047492 0.294044 0.154056
H11   H     H_    0.591142 0.624306 0.927670 0.224240
H12   H     H_    0.408857 0.375694 0.072330 0.224242
N1    N     N_2   0.460520 0.445420 0.137370 -0.291635
N2    N     N_2   0.539480 0.554580 0.862630 -0.291637
O1    O     O_R   0.508410 0.332340 0.577400 -0.554524
O2    O     O_R   0.491590 0.667660 0.422600 -0.554523
O3    O     O_R   0.481780 0.295500 0.332650 -0.580327
O4    O     O_R   0.518220 0.704500 0.667350 -0.580328
O5    O     O_R   0.383570 0.518390 0.622380 -0.562594
O6    O     O_R   0.616430 0.481610 0.377620 -0.562593
O7    O     O_R   0.356940 0.481550 0.377630 -0.531255
O8    O     O_R   0.643060 0.518450 0.622370 -0.531260
O9    O     O_3   0.799287 0.664245 0.750795 -0.567550
C27   C     C_3   0.784781 0.785715 0.738794 -0.295599
H13   H     H_    0.760839 0.848464 0.838499 0.191988
H14   H     H_    0.731644 0.774232 0.643424 0.159181
H15   H     H_    0.848541 0.837148 0.731558 0.153381
O10   O     O_3   0.200714 0.335774 0.249196 -0.567540
C28   C     C_3   0.215198 0.214286 0.261161 -0.295638
H16   H     H_    0.268354 0.225742 0.356499 0.159214
H17   H     H_    0.239096 0.151522 0.161419 0.191991
H18   H     H_    0.151436 0.162886 0.268436 0.153372
I1    I     I_    0.382226 0.341185 0.787438 -0.388465
I2    I     I_    0.617775 0.658815 0.212562 -0.388471

loop_
_geom_bond_atom_site_label_1
_geom_bond_atom_site_label_2
_ccdc_geom_bond_type
C25   H3    S    
C14   O10   S    
C12   C15   S    
C26   H4    S    
C18   H2    S    
C10   N2    D    
C17   H1    S    
Cu2   O7    S    
C9    N1    D    
Cu1   O8    S    
C12   O6    A    
C22   C24   A    
C13   C15   A    
C3    C24   A    
C6    H9    S    
C7    C8    S    
C13   O9    S    
C21   C22   A    
C2    O4    A    
Cu1   N2    S    
C1    O3    A    
C28   H16   S    
C2    C6    S    
C1    O1    A    
C20   C26   A    
C27   H13   S    
C1    C5    S    
C15   C17   A    
C6    C8    D    
Cu1   O4    S    
H12   N1    S    
C17   C19   A    
C27   H15   S    
C27   H14   S    
C9    C10   S    
H11   N2    S    
C18   C20   A    
C21   C23   A    
C4    H6    S    
C19   C25   A    
C14   C16   A    
C4    C26   A    
C28   H17   S    
C10   I1    S    
C3    H5    S    
Cu1   O5    S    
C9    I2    S    
Cu1   O1    S    
Cu2   N1    S    
C3    C25   A    
O10   C28   S    
C13   C23   A    
C16   C18   A    
C7    H8    S    
C14   C24   A    
Cu1   Cu2   S    
C5    C7    D    
Cu2   O3    S    
Cu2   O6    S    
C28   H18   S    
C11   O7    A    
C19   C21   A    
C4    C23   A    
C5    H10   S    
C11   O5    A    
Cu2   O2    S    
C11   C16   S    
C2    O2    A    
O9    C27   S    
C20   C22   A    
C12   O8    A    
C8    H7    S    
