data_mof_unit_24736.cif
_audit_creation_date              2012-12-10T18:59:58-0500
_audit_creation_method            fapswitch 2.2
_symmetry_space_group_name_H-M    P1
_symmetry_Int_Tables_number       1
_space_group_crystal_system       triclinic
_cell_length_a                    10.818131
_cell_length_b                    10.618248
_cell_length_c                    9.885731
_cell_angle_alpha                 90.100548
_cell_angle_beta                  91.063983
_cell_angle_gamma                 89.972563
_cell_volume                      1135.37229082

loop_
_atom_site_label
_atom_site_type_symbol
_atom_type_description
_atom_site_fract_x
_atom_site_fract_y
_atom_site_fract_z
_atom_type_partial_charge
C1    C     C_R   0.502650 0.260347 0.499806 0.938140
C2    C     C_R   0.497096 0.739629 0.500153 0.950863
C3    C     C_R   0.872688 0.499790 0.504620 -0.045353
C4    C     C_R   0.127452 0.499397 0.495465 -0.080636
C5    C     C_R   0.942309 0.495166 0.626297 0.012771
C6    C     C_R   0.057838 0.504902 0.373852 0.003858
C7    C     C_R   0.585567 0.061953 0.417744 0.268227
C8    C     C_R   0.413512 0.937959 0.581626 0.264153
C9    C     C_R   0.581060 0.932814 0.418418 -0.218801
C10   C     C_R   0.418094 0.067133 0.581055 -0.232798
C11   C     C_R   0.496190 0.871995 0.500247 -0.138260
C12   C     C_R   0.503190 0.127956 0.499472 -0.139638
C13   C     C_R   0.499327 0.610475 0.071854 -0.066289
C14   C     C_R   0.501634 0.389571 0.928250 -0.011364
C15   C     C_R   0.499565 0.610459 0.928478 -0.082366
C16   C     C_R   0.500409 0.389550 0.071544 -0.079265
C17   C     C_R   0.259996 0.499831 0.498331 0.899290
C18   C     C_R   0.740043 0.499952 0.501680 0.920397
C19   C     C_R   0.186462 0.641765 0.056332 -0.114567
C20   C     C_R   0.814949 0.369913 0.949830 -0.114134
C21   C     C_R   0.137549 0.630398 0.184599 -0.086421
C22   C     C_R   0.861313 0.376763 0.820017 -0.107200
C23   C     C_R   0.110403 0.511404 0.237034 0.028554
C24   C     C_R   0.888927 0.493716 0.762844 0.028694
C25   C     C_R   0.129833 0.401611 0.158229 -0.064231
C26   C     C_R   0.872377 0.606189 0.838212 -0.067653
C27   C     C_R   0.173196 0.414453 0.024284 -0.052033
C28   C     C_R   0.821669 0.598652 0.969348 -0.054895
C29   C     C_R   0.204673 0.535068 0.977238 -0.199587
C30   C     C_R   0.793904 0.479651 0.022986 -0.203985
C31   C     C_R   0.931465 0.505095 0.380640 -0.093604
C32   C     C_R   0.068663 0.493616 0.619550 -0.180519
H1    H     H_    0.243467 0.547817 0.878474 0.194291
H2    H     H_    0.750513 0.471292 0.119875 0.189505
H3    H     H_    0.499124 0.699236 0.875245 0.187894
H4    H     H_    0.500825 0.300774 0.124779 0.183397
H5    H     H_    0.209913 0.733807 0.017540 0.195299
H6    H     H_    0.792493 0.279305 0.992940 0.191659
H7    H     H_    0.122377 0.714436 0.244370 0.165451
H8    H     H_    0.876093 0.290643 0.763623 0.164786
H9    H     H_    0.879490 0.509255 0.287176 0.186793
H10   H     H_    0.120568 0.488224 0.712988 0.176844
H11   H     H_    0.645153 0.879710 0.357385 0.212026
H12   H     H_    0.353902 0.120247 0.641936 0.211491
H13   H     H_    0.498740 0.699290 0.125365 0.159665
H14   H     H_    0.503546 0.300750 0.874819 0.167660
N1    N     N_R   0.499970 0.499970 0.857200 -0.089015
N2    N     N_R   0.500030 0.500030 0.142800 -0.093320
O1    O     O_R   0.499990 0.316750 0.614620 -0.622521
O2    O     O_R   0.500010 0.683250 0.385380 -0.633224
O3    O     O_R   0.499990 0.316780 0.385290 -0.596860
O4    O     O_R   0.500010 0.683220 0.614710 -0.595549
O5    O     O_R   0.316760 0.500000 0.614660 -0.591221
O6    O     O_R   0.683240 0.500000 0.385340 -0.608920
O7    O     O_R   0.316760 0.500020 0.385330 -0.624003
O8    O     O_R   0.683240 0.499980 0.614670 -0.618190
Zn1   Zn    Zn3+2 0.500000 0.499980 0.653120 1.005643
Zn2   Zn    Zn3+2 0.500000 0.500020 0.346880 0.994182
C33   C     C_2   0.114450 0.275068 0.219444 0.973794
O9    O     O_2   0.020283 0.248920 0.279806 -0.582019
O10   O     O_R   0.209120 0.186062 0.208845 -0.785617
H15   H     H_    0.188803 0.103732 0.255207 0.357780
C34   C     C_2   0.913065 0.729017 0.782519 0.978521
O11   O     O_2   0.885884 0.758152 0.666096 -0.603131
O12   O     O_R   0.983437 0.811066 0.863512 -0.771428
H16   H     H_    0.005473 0.891664 0.814727 0.372269
C35   C     C_2   0.179827 0.305494 0.929358 0.901388
O13   O     O_2   0.249173 0.308897 0.833212 -0.652301
O14   O     O_R   0.102936 0.200983 0.945792 -0.774474
H17   H     H_    0.114995 0.134479 0.873487 0.360749
C36   C     C_2   0.789295 0.712718 0.048928 0.920950
O15   O     O_2   0.791833 0.709189 0.172562 -0.640606
O16   O     O_R   0.750713 0.822809 0.983116 -0.785257
H18   H     H_    0.729347 0.892774 0.048608 0.364632
Br1   Br    Br    0.709540 0.142186 0.310553 -0.483413
Br2   Br    Br    0.288996 0.857504 0.687940 -0.546947

loop_
_geom_bond_atom_site_label_1
_geom_bond_atom_site_label_2
_ccdc_geom_bond_type
C34   O12   S    
C27   C29   A    
O16   H18   S    
C15   N1    A    
C16   N2    A    
C14   H14   S    
C20   C30   A    
C19   C21   A    
C24   C26   A    
C29   H1    S    
C8    Br2   S    
O1    Zn1   S    
O8    Zn1   S    
C3    C18   S    
C19   H5    S    
C2    O2    A    
C17   O7    A    
C18   O8    A    
C5    C32   A    
C6    C31   A    
C33   O9    D    
O14   H17   S    
C1    C12   S    
C2    C11   S    
C10   C12   A    
C15   H3    S    
C7    C12   A    
C9    H11   S    
C33   O10   S    
C30   H2    S    
C10   H12   S    
C35   O13   D    
O2    Zn2   S    
C4    C6    A    
C36   O16   S    
O5    Zn1   S    
C7    Br1   S    
C35   O14   S    
C26   C34   S    
N1    Zn1   S    
C20   H6    S    
C21   H7    S    
C22   H8    S    
O3    Zn2   S    
C3    C31   A    
C9    C11   A    
C4    C32   A    
C2    O4    A    
C4    C17   S    
C20   C22   A    
C21   C23   A    
C22   C24   A    
C28   C36   S    
C19   C29   A    
C17   O5    A    
O6    Zn2   S    
C7    C9    A    
C31   H9    S    
C3    C5    A    
C13   N2    A    
N2    Zn2   S    
C14   N1    A    
C25   C27   A    
C26   C28   A    
C1    O3    A    
C13   C15   A    
C36   O15   D    
C16   H4    S    
C13   H13   S    
C5    C24   S    
C8    C11   A    
C6    C23   S    
C28   C30   A    
C14   C16   A    
C23   C25   A    
O10   H15   S    
C27   C35   S    
O4    Zn1   S    
C18   O6    A    
C34   O11   D    
C8    C10   A    
O12   H16   S    
O7    Zn2   S    
C32   H10   S    
C25   C33   S    
C1    O1    A    
