data_mof_unit_42528.cif
_audit_creation_date              2012-12-10T19:41:48-0500
_audit_creation_method            fapswitch 2.2
_symmetry_space_group_name_H-M    P1
_symmetry_Int_Tables_number       1
_space_group_crystal_system       triclinic
_cell_length_a                    18.537917
_cell_length_b                    18.141801
_cell_length_c                    18.644413
_cell_angle_alpha                 120.039958
_cell_angle_beta                  89.313411
_cell_angle_gamma                 119.188469
_cell_volume                      4509.69989265

loop_
_atom_site_label
_atom_site_type_symbol
_atom_type_description
_atom_site_fract_x
_atom_site_fract_y
_atom_site_fract_z
_atom_type_partial_charge
Br1   Br    Br    0.692223 0.151126 0.706631 -0.372318
Br2   Br    Br    0.434509 0.473950 0.791818 -0.241600
Br3   Br    Br    0.371214 0.676598 0.017391 -0.193558
Br4   Br    Br    0.894036 0.844187 0.758573 -0.332218
Br5   Br    Br    0.749116 0.120487 0.961372 -0.243840
Br6   Br    Br    0.720159 0.901384 0.488908 -0.157254
Br7   Br    Br    0.796742 0.752929 0.422723 -0.234296
Br8   Br    Br    0.441258 0.108131 0.400332 -0.365263
Br9   Br    Br    0.289617 0.117213 0.144010 -0.206559
Br10  Br    Br    0.024046 0.923713 0.177349 -0.166688
Br11  Br    Br    0.038764 0.416262 0.256874 -0.288247
Br12  Br    Br    0.164881 0.425498 0.385572 -0.247409
Br13  Br    Br    0.359281 0.418915 0.128954 -0.311018
Br14  Br    Br    0.145989 0.359215 0.537562 -0.243674
C1    C     C_R   0.139100 0.779672 0.145156 0.566535
C2    C     C_R   0.794674 0.108941 0.805879 -0.000773
C3    C     C_R   0.741502 0.053062 0.838775 0.126016
C4    C     C_R   0.857901 0.220441 0.861050 0.558118
C5    C     C_R   0.676465 0.947280 0.780538 0.183864
C6    C     C_R   0.676813 0.893140 0.693127 0.012042
C7    C     C_R   0.723530 0.951033 0.659941 -0.030644
C8    C     C_3   0.688990 0.959682 0.593054 0.356019
C9    C     C_3   0.748926 0.077562 0.656144 0.317973
C10   C     C_R   0.768856 0.558064 0.219382 -0.033345
C11   C     C_R   0.796252 0.491757 0.187050 -0.000236
C12   C     C_R   0.779422 0.687500 0.780289 0.157634
C13   C     C_R   0.760200 0.414223 0.202325 -0.087548
C14   C     C_R   0.703671 0.408667 0.253607 0.226227
C15   C     C_R   0.686110 0.486753 0.294607 0.029090
C16   C     C_R   0.139010 0.499007 0.860414 0.544621
C17   C     C_R   0.717384 0.556189 0.271523 -0.056644
C18   C     C_3   0.730645 0.655588 0.298727 0.346285
C19   C     C_3   0.784019 0.653401 0.232143 0.388418
C20   C     C_R   0.174635 0.956566 0.212646 -0.014925
C21   C     C_R   0.195443 0.891989 0.210328 0.037981
C22   C     C_R   0.276181 0.940232 0.268848 -0.076947
C23   C     C_R   0.765366 0.597155 0.766053 -0.029033
C24   C     C_R   0.333681 0.048846 0.321841 0.164413
C25   C     C_R   0.310587 0.109640 0.314644 0.048284
C26   C     C_R   0.229993 0.060461 0.261069 -0.047170
C27   C     C_3   0.198914 0.072009 0.196091 0.327725
C28   C     C_R   0.858552 0.499009 0.138668 0.548148
C29   C     C_3   0.130613 0.955208 0.146915 0.378250
C30   C     C_R   0.283974 0.569514 0.230168 0.000224
C31   C     C_R   0.193358 0.512534 0.209656 -0.005862
C32   C     C_R   0.158806 0.470972 0.258892 0.162872
C33   C     C_R   0.213508 0.471696 0.312884 0.175731
C34   C     C_R   0.824017 0.606228 0.823238 -0.043692
C35   C     C_R   0.301791 0.507792 0.313653 0.033051
C36   C     C_R   0.333441 0.557325 0.272277 -0.026971
C37   C     C_3   0.389948 0.557204 0.214943 0.059987
C38   C     C_3   0.344740 0.588193 0.178797 0.143543
C39   C     C_R   0.282477 0.551731 0.836664 -0.037800
C40   C     C_R   0.139012 0.502271 0.142998 0.539105
C41   C     C_R   0.193410 0.498964 0.803651 0.019147
C42   C     C_R   0.157758 0.448573 0.714249 -0.081176
C43   C     C_R   0.209918 0.445648 0.659136 0.164128
C44   C     C_R   0.301847 0.499288 0.694263 0.038469
C45   C     C_R   0.810912 0.513238 0.807661 0.046754
C46   C     C_R   0.336004 0.556887 0.785202 -0.078479
C47   C     C_3   0.403293 0.574180 0.846805 0.304567
C48   C     C_3   0.338993 0.560110 0.900263 0.361835
C49   C     C_R   0.637778 0.496648 0.357521 0.566090
C50   C     C_R   0.359877 0.499191 0.639372 0.534452
C51   C     C_R   0.634245 0.780097 0.639034 0.565133
C52   C     C_R   0.864398 0.506690 0.861370 0.529681
C53   C     C_R   0.362335 0.220697 0.363829 0.552168
C54   C     C_R   0.359966 0.501503 0.361370 0.571878
C55   C     C_R   0.638130 0.497059 0.638675 0.516370
C56   C     C_R   0.744887 0.418804 0.732338 -0.104304
C57   C     C_R   0.885654 0.709938 0.895748 0.215370
C58   C     C_R   0.916721 0.787369 0.876748 0.257049
C59   C     C_R   0.865048 0.760983 0.803215 0.120704
C60   C     C_R   0.689803 0.412934 0.676343 -0.097980
C61   C     C_R   0.698383 0.501580 0.693924 0.047482
C62   C     C_R   0.779042 0.057718 0.715559 -0.026589
H1    H     H_    0.734523 0.347756 0.717163 0.181037
H2    H     H_    0.661120 0.283894 0.367317 0.389540
H3    H     H_    0.570872 0.714710 0.363289 0.383055
H4    H     H_    0.699080 0.709021 0.105858 0.407347
H5    H     H_    0.965803 0.923977 0.358826 0.394393
H6    H     H_    0.837524 0.849233 0.093478 0.409723
H7    H     H_    0.057197 0.167312 0.205698 0.392342
H8    H     H_    0.207761 0.805590 0.988841 0.373158
H9    H     H_    0.395114 0.832832 0.224878 0.389723
H10   H     H_    0.984377 0.054297 0.002816 0.389644
H11   H     H_    0.438718 0.774081 0.884756 0.367408
H12   H     H_    0.776529 0.357922 0.174554 0.214180
H13   H     H_    0.339616 0.379673 0.936929 0.403708
H14   H     H_    0.753511 0.861173 0.836658 0.367643
H15   H     H_    0.564006 0.005500 0.817936 0.370924
H16   H     H_    0.295347 0.894177 0.272191 0.180630
H17   H     H_    0.459643 0.615271 0.249635 0.210829
H18   H     H_    0.313934 0.537895 0.107224 0.202405
H19   H     H_    0.088411 0.407462 0.686034 0.203876
H20   H     H_    0.638929 0.338574 0.620224 0.179176
H21   H     H_    0.477467 0.896276 0.633222 0.394239
H22   H     H_    0.848338 0.285258 0.660493 0.359130
O1    O     O_3   0.000000 0.500000 0.000000 -0.521080
O2    O     O_R   0.323450 0.268330 0.384170 -0.476702
O3    O     O_R   0.444860 0.560620 0.384150 -0.495713
O4    O     O_R   0.055050 0.731580 0.115780 -0.456066
O5    O     O_R   0.615780 0.439200 0.555040 -0.537631
O6    O     O_R   0.323420 0.439190 0.384160 -0.456705
O7    O     O_R   0.615760 0.560630 0.676470 -0.473924
O8    O     O_R   0.615740 0.731500 0.676460 -0.451388
O9    O     O_R   0.444900 0.268330 0.384170 -0.493823
O10   O     O_R   0.615750 0.560630 0.384150 -0.467513
O11   O     O_R   0.323430 0.439200 0.555040 -0.492338
O12   O     O_R   0.055090 0.439280 0.823480 -0.511086
O13   O     O_R   0.884220 0.268410 0.823490 -0.467714
O14   O     O_R   0.176520 0.560720 0.944920 -0.487922
O15   O     O_R   0.884200 0.439290 0.115800 -0.531739
O16   O     O_R   0.176530 0.560720 0.115800 -0.491590
O17   O     O_R   0.884180 0.560710 0.944910 -0.447812
O18   O     O_R   0.055100 0.439290 0.115810 -0.495419
O19   O     O_R   0.884190 0.439280 0.823480 -0.537825
O20   O     O_2   0.552992 0.945407 0.521454 -0.151116
O21   O     O_2   0.524317 0.789939 0.504030 -0.265229
O22   O     O_3   0.541416 0.933932 0.654995 -0.529456
O23   O     O_R   0.884180 0.560710 0.115790 -0.467905
O24   O     O_2   0.901330 0.119182 0.618340 -0.180540
O25   O     O_2   0.795793 0.108684 0.529622 -0.184980
O26   O     O_3   0.883071 0.270649 0.684682 -0.444544
O27   O     O_2   0.560156 0.250839 0.240290 -0.210891
O28   O     O_2   0.675956 0.225363 0.199254 -0.185477
O29   O     O_3   0.698861 0.342864 0.363555 -0.467073
O30   O     O_2   0.640556 0.711619 0.246588 -0.187062
O31   O     O_2   0.559379 0.535184 0.207896 -0.215094
O32   O     O_3   0.598608 0.681090 0.365987 -0.431208
O33   O     O_2   0.775299 0.585758 0.063391 -0.184709
O34   O     O_R   0.176500 0.731590 0.115790 -0.511189
O35   O     O_2   0.639265 0.542250 0.094069 -0.199774
O36   O     O_3   0.750438 0.732044 0.147142 -0.412856
O37   O     O_2   0.939287 0.755543 0.210842 -0.191717
O38   O     O_2   0.944275 0.753694 0.340580 -0.267957
O39   O     O_3   0.902936 0.869788 0.335953 -0.400134
O40   O     O_2   0.759723 0.658748 0.966473 -0.217751
O41   O     O_2   0.902144 0.722127 0.045133 -0.131982
O42   O     O_3   0.875580 0.853309 0.056022 -0.374701
O43   O     O_2   0.152485 0.180724 0.329069 -0.194496
O44   O     O_2   0.226272 0.253974 0.249219 -0.230093
O45   O     O_R   0.884220 0.268420 0.944930 -0.501093
O46   O     O_3   0.064900 0.109716 0.178583 -0.411801
O47   O     O_2   0.051273 0.766900 0.990347 -0.303505
O48   O     O_2   0.145387 0.914627 0.984854 -0.155728
O49   O     O_3   0.218381 0.862767 0.047518 -0.506920
O50   O     O_2   0.449018 0.782715 0.321847 -0.210526
O51   O     O_2   0.485695 0.744792 0.186450 -0.155750
O52   O     O_3   0.352706 0.760342 0.203557 -0.468936
O53   O     O_2   0.027690 0.949102 0.035855 -0.154561
O54   O     O_2   0.061701 0.958768 0.912933 -0.170319
O55   O     O_3   0.938716 0.980097 0.963574 -0.435215
O56   O     O_3   0.499960 0.499910 0.499960 -0.533761
O57   O     O_2   0.557110 0.727361 0.973505 -0.114420
O58   O     O_2   0.542656 0.708256 0.834168 -0.123940
O59   O     O_3   0.470135 0.788174 0.937270 -0.416782
O60   O     O_2   0.224293 0.435476 0.943703 -0.283681
O61   O     O_2   0.247857 0.351786 0.803380 -0.232058
O62   O     O_3   0.369208 0.446872 0.944726 -0.424610
O63   O     O_2   0.645098 0.652831 0.845446 -0.139846
O64   O     O_2   0.778770 0.819505 0.939801 -0.171389
O65   O     O_3   0.698739 0.794354 0.814806 -0.412105
O66   O     O_2   0.512066 0.787741 0.741453 -0.258111
O67   O     O_R   0.615770 0.439200 0.384160 -0.481430
O68   O     O_2   0.612995 0.897098 0.889345 -0.096928
O69   O     O_3   0.544847 0.969089 0.846926 -0.422606
O70   O     O_R   0.444870 0.560630 0.676470 -0.477208
O71   O     O_R   0.615730 0.731500 0.555020 -0.481527
S1    S     S_3+6 0.573505 0.904474 0.565393 0.086889
S2    S     S_3+6 0.412151 0.723245 0.224771 0.100223
S3    S     S_3+6 0.990221 0.921260 0.949843 0.180678
S4    S     S_3+6 0.497170 0.702157 0.899464 0.184881
S5    S     S_3+6 0.290935 0.443810 0.896264 0.084926
S6    S     S_3+6 0.724038 0.737374 0.847276 0.159275
S7    S     S_3+6 0.584104 0.894850 0.813099 0.132532
S8    S     S_3+6 0.833975 0.142995 0.619743 0.131132
S9    S     S_3+6 0.656952 0.302085 0.261603 0.109963
S10   S     S_3+6 0.629921 0.644718 0.276346 0.123946
S11   S     S_3+6 0.734624 0.624441 0.130412 0.169252
S12   S     S_3+6 0.896746 0.758823 0.280186 0.119160
S13   S     S_3+6 0.855635 0.735248 0.992445 0.165270
S14   S     S_3+6 0.160882 0.156863 0.240890 0.140924
S15   S     S_3+6 0.133390 0.872117 0.038528 0.084146
Zn1   Zn    Zn3+2 0.956630 0.413250 0.869870 1.039645
Zn2   Zn    Zn3+2 0.130130 0.586750 0.043370 1.054107
Zn3   Zn    Zn3+2 0.956630 0.413250 0.043380 1.047055
Zn4   Zn    Zn3+2 0.956610 0.586750 0.043370 1.121020
Zn5   Zn    Zn3+2 0.543330 0.586660 0.630080 1.096456
Zn6   Zn    Zn3+2 0.543320 0.586660 0.456570 1.083014
Zn7   Zn    Zn3+2 0.369830 0.413160 0.456580 1.092543
Zn8   Zn    Zn3+2 0.543350 0.413170 0.456590 1.046165

loop_
_geom_bond_atom_site_label_1
_geom_bond_atom_site_label_2
_ccdc_geom_bond_type
O49   S15   S    
C42   H19   S    
O56   Zn7   S    
C15   C49   S    
O12   Zn1   S    
C35   C54   S    
O24   S8    D    
C21   C22   A    
O1    Zn1   S    
C9    C62   S    
O25   S8    D    
O65   S6    S    
C12   C59   A    
O1    Zn3   S    
C43   C44   A    
C33   C35   A    
C31   C32   A    
H22   O26   S    
O31   S10   D    
O47   S15   D    
C16   O12   A    
C20   C26   A    
C58   S3    S    
C45   C56   A    
H15   O69   S    
C14   C15   A    
H10   O55   S    
C45   C52   S    
O14   Zn2   S    
H7    O46   S    
O54   S3    D    
Br3   C48   S    
O39   S12   S    
O20   S1    D    
C44   C46   A    
Br6   C8    S    
C29   S15   S    
O50   S2    D    
H4    O36   S    
C42   C43   A    
C20   C21   A    
C5    S7    S    
H6    O42   S    
C48   S5    S    
Br13  C37   S    
O60   S5    D    
C1    O34   A    
C5    C6    A    
C25   C53   S    
C2    C3    A    
O61   S5    D    
C40   O18   A    
O38   S12   D    
C56   C60   A    
C18   S10   S    
C38   H18   S    
Br2   C47   S    
C30   C38   S    
C55   O5    A    
O44   S14   D    
O56   Zn6   S    
O46   S14   S    
C1    O4    A    
O51   S2    D    
C7    C8    S    
C19   S11   S    
C27   C29   S    
C57   S13   S    
O10   Zn6   S    
C13   H12   S    
Br8   C24   S    
O71   Zn6   S    
Br12  C33   S    
H2    O29   S    
C38   S2    S    
C1    C21   S    
O1    Zn4   S    
C39   C46   A    
H13   O62   S    
C39   C41   A    
C44   C50   S    
O18   Zn3   S    
O58   S4    D    
O13   Zn1   S    
C60   C61   A    
C37   C38   S    
C60   H20   S    
C6    C51   S    
C47   S4    S    
C54   O3    A    
O3    Zn6   S    
C52   O17   A    
O34   Zn2   S    
O67   Zn8   S    
C55   O7    A    
O64   S6    D    
O28   S9    D    
H3    O32   S    
C52   O19   A    
O42   S13   S    
O53   S3    D    
H11   O59   S    
C16   O14   A    
C46   C47   S    
O43   S14   D    
O9    Zn8   S    
H5    O39   S    
C56   H1    S    
O7    Zn5   S    
C39   C48   S    
C28   O15   A    
O52   S2    S    
C7    C62   A    
C41   C42   A    
C36   C37   S    
Br4   C59   S    
C12   C23   A    
O30   S10   D    
C10   C11   A    
C23   C34   A    
O26   S8    S    
C8    S1    S    
O41   S13   D    
C53   O2    A    
C37   H17   S    
C53   O9    A    
C2    C4    S    
C26   C27   S    
O56   Zn5   S    
C31   C40   S    
Br1   C9    S    
C19   S12   S    
O2    Zn7   S    
O37   S12   D    
C34   C57   A    
C4    O13   A    
C51   O8    A    
C25   C26   A    
C30   C31   A    
C34   C45   A    
H8    O49   S    
C30   C36   A    
Br14  C43   S    
O56   Zn8   S    
C32   C33   A    
C4    O45   A    
O62   S5    S    
Br7   C18   S    
H9    O52   S    
Br10  C29   S    
C2    C62   A    
O29   S9    S    
O45   Zn3   S    
C17   C18   S    
C20   C29   S    
C54   O6    A    
C58   C59   A    
C11   C28   S    
O33   S11   D    
O35   S11   D    
Br9   C27   S    
C11   C13   A    
C16   C41   S    
O66   S7    D    
O68   S7    D    
C10   C19   S    
O16   Zn2   S    
O48   S15   D    
H14   O65   S    
C18   C19   S    
H21   O22   S    
C22   C24   A    
C10   C17   A    
C57   C58   A    
C50   O70   A    
O19   Zn1   S    
O23   Zn4   S    
O17   Zn4   S    
O6    Zn7   S    
C22   H16   S    
C50   O11   A    
C24   C25   A    
C12   S6    S    
O11   Zn7   S    
O63   S6    D    
C40   O16   A    
O55   S3    S    
C3    C5    A    
C55   C61   S    
O57   S4    D    
C23   C61   A    
C47   C48   S    
O40   S13   D    
O4    Zn4   S    
C9    S8    S    
O32   S10   S    
O70   Zn5   S    
O21   S1    D    
C49   O67   A    
Br5   C3    S    
C6    C7    A    
C15   C17   A    
C35   C36   A    
C51   O71   A    
O27   S9    D    
C8    C9    S    
C27   S14   S    
Br11  C32   S    
O5    Zn8   S    
O8    Zn5   S    
O36   S11   S    
C49   O10   A    
C14   S9    S    
O22   S1    S    
O1    Zn2   S    
C28   O23   A    
O59   S4    S    
O69   S7    S    
C13   C14   A    
O15   Zn3   S    
