data_mof_unit_6636.cif
_audit_creation_date              2013-03-05T15:56:48-0500
_audit_creation_method            fapswitch 2.2
_symmetry_space_group_name_H-M    P1
_symmetry_Int_Tables_number       1
_space_group_crystal_system       triclinic
_cell_length_a                    21.320475
_cell_length_b                    21.355983
_cell_length_c                    13.681735
_cell_angle_alpha                 89.999785
_cell_angle_beta                  90.002338
_cell_angle_gamma                 89.996991
_cell_volume                      6229.56348446

loop_
_atom_site_label
_atom_site_type_symbol
_atom_site_description
_atom_site_fract_x
_atom_site_fract_y
_atom_site_fract_z
_atom_type_partial_charge
O1    O     O_R   0.064880 0.435140 0.582280 -0.588915
O2    O     O_R   0.935120 0.564860 0.417720 -0.588317
O3    O     O_R   0.935120 0.564860 0.582280 -0.588967
O4    O     O_R   0.064880 0.435140 0.417720 -0.588378
O5    O     O_R   0.935120 0.435140 0.417720 -0.588626
O6    O     O_R   0.064880 0.564860 0.582280 -0.588200
O7    O     O_R   0.064880 0.564860 0.417720 -0.588553
O8    O     O_R   0.935120 0.435140 0.582280 -0.588082
O9    O     O_R   0.564880 0.935140 0.582280 -0.589279
O10   O     O_R   0.435120 0.064860 0.417720 -0.590205
O11   O     O_R   0.435120 0.064860 0.582280 -0.589337
O12   O     O_R   0.564880 0.935140 0.417720 -0.590242
O13   O     O_R   0.435120 0.935140 0.417720 -0.588475
O14   O     O_R   0.564880 0.064860 0.582280 -0.587853
O15   O     O_R   0.564880 0.064860 0.417720 -0.588481
O16   O     O_R   0.435120 0.935140 0.582280 -0.587847
C1    C     C_R   0.085806 0.414272 0.499997 0.814591
C2    C     C_R   0.914193 0.585727 0.499994 0.814613
C3    C     C_R   0.914129 0.414340 0.500002 0.814582
C4    C     C_R   0.085872 0.585658 0.500005 0.814646
C5    C     C_R   0.585775 0.914242 0.500005 0.814901
C6    C     C_R   0.414224 0.085757 0.500003 0.814898
C7    C     C_R   0.414206 0.914251 0.499998 0.814855
C8    C     C_R   0.585796 0.085747 0.500000 0.814857
Cu1   Cu    Cu3+1 1.000000 0.500000 0.597420 0.951599
Cu2   Cu    Cu3+1 1.000000 0.500000 0.402580 0.942611
Cu3   Cu    Cu3+1 0.500000 0.000000 0.597420 0.940535
Cu4   Cu    Cu3+1 0.500000 0.000000 0.402580 0.946950
C9    C     C_R   0.156563 0.658112 0.411392 -0.205160
C10   C     C_R   0.843959 0.341363 0.411423 -0.205173
C11   C     C_R   0.841360 0.656066 0.411348 -0.205416
C12   C     C_R   0.158660 0.343959 0.411353 -0.205467
C13   C     C_R   0.655135 0.159576 0.588557 -0.205160
C14   C     C_R   0.344358 0.840931 0.588604 -0.205095
C15   C     C_R   0.341496 0.156193 0.588646 -0.205440
C16   C     C_R   0.658478 0.843775 0.588651 -0.205394
C17   C     C_R   0.134621 0.633707 0.500057 -0.093656
C18   C     C_R   0.865384 0.366287 0.500047 -0.093585
C19   C     C_R   0.865749 0.634089 0.500026 -0.093763
C20   C     C_R   0.134249 0.365909 0.500030 -0.093758
C21   C     C_R   0.633988 0.134375 0.499944 -0.093630
C22   C     C_R   0.366021 0.865616 0.499943 -0.093694
C23   C     C_R   0.365868 0.134204 0.499968 -0.092773
C24   C     C_R   0.634130 0.865794 0.499973 -0.092772
C25   C     C_R   0.159453 0.655098 0.588839 -0.210255
C26   C     C_R   0.840040 0.345413 0.588776 -0.210273
C27   C     C_R   0.843741 0.658293 0.588845 -0.211314
C28   C     C_R   0.156232 0.341675 0.588847 -0.211305
C29   C     C_R   0.658704 0.155898 0.411156 -0.211694
C30   C     C_R   0.341827 0.843567 0.411120 -0.211782
C31   C     C_R   0.343949 0.158497 0.411153 -0.214601
C32   C     C_R   0.656070 0.841527 0.411155 -0.214627
C33   C     C_R   0.206263 0.700849 0.589930 0.016073
C34   C     C_R   0.793219 0.299674 0.589854 0.016098
C35   C     C_R   0.797296 0.704406 0.589995 0.016549
C36   C     C_R   0.202676 0.295559 0.589995 0.016555
C37   C     C_R   0.704464 0.202694 0.409980 0.017808
C38   C     C_R   0.296082 0.796756 0.409961 0.017720
C39   C     C_R   0.297558 0.204667 0.410004 0.018825
C40   C     C_R   0.702460 0.795358 0.410004 0.018829
C41   C     C_R   0.228088 0.725423 0.500177 -0.006398
C42   C     C_R   0.771923 0.274565 0.500144 -0.006388
C43   C     C_R   0.773103 0.726636 0.500223 -0.006362
C44   C     C_R   0.226892 0.273359 0.500224 -0.006362
C45   C     C_R   0.725558 0.227994 0.499680 -0.005874
C46   C     C_R   0.274458 0.771991 0.499710 -0.005872
C47   C     C_R   0.273339 0.226866 0.499775 -0.005678
C48   C     C_R   0.726656 0.773130 0.499776 -0.005670
C49   C     C_R   0.203101 0.703847 0.410829 0.060449
C50   C     C_R   0.797435 0.295614 0.410848 0.060421
C51   C     C_R   0.795270 0.702265 0.410812 0.061488
C52   C     C_R   0.204749 0.297760 0.410816 0.061498
C53   C     C_R   0.700690 0.206302 0.589050 0.059733
C54   C     C_R   0.298798 0.794212 0.589113 0.059730
C55   C     C_R   0.295468 0.202451 0.589183 0.060408
C56   C     C_R   0.704504 0.797515 0.589187 0.060387
C57   C     C_R   0.231762 0.722368 0.678859 0.491119
C58   C     C_R   0.767185 0.278689 0.678721 0.491260
C59   C     C_R   0.774280 0.728383 0.679037 0.489350
C60   C     C_R   0.225667 0.271551 0.679035 0.489327
C61   C     C_R   0.729323 0.224837 0.320988 0.484743
C62   C     C_R   0.271758 0.774074 0.320942 0.484887
C63   C     C_R   0.274610 0.228715 0.320964 0.482960
C64   C     C_R   0.725432 0.771340 0.320963 0.482918
C65   C     C_R   0.776381 0.270487 0.322237 -0.294786
C66   C     C_R   0.224689 0.728436 0.322169 -0.294821
C67   C     C_R   0.229001 0.275791 0.322130 -0.296546
C68   C     C_R   0.771040 0.724263 0.322125 -0.296512
C69   C     C_R   0.277180 0.769629 0.677786 -0.295339
C70   C     C_R   0.721777 0.231420 0.677674 -0.295325
C71   C     C_R   0.728694 0.775478 0.677875 -0.296476
C72   C     C_R   0.271254 0.224457 0.677871 -0.296501
H1    H     H_    0.137407 0.641623 0.342618 0.154122
H2    H     H_    0.863529 0.357438 0.342693 0.154291
H3    H     H_    0.858246 0.637313 0.342545 0.152902
H4    H     H_    0.141793 0.362736 0.342552 0.152877
H5    H     H_    0.636060 0.142999 0.657332 0.153730
H6    H     H_    0.363013 0.857927 0.657410 0.153683
H7    H     H_    0.358337 0.137393 0.657447 0.151765
H8    H     H_    0.641619 0.862553 0.657454 0.151790
H9    H     H_    0.142340 0.635895 0.657120 0.196685
H10   H     H_    0.856745 0.365029 0.657021 0.196439
H11   H     H_    0.862758 0.640983 0.657137 0.197559
H12   H     H_    0.137198 0.358963 0.657138 0.197565
H13   H     H_    0.642158 0.136143 0.342914 0.196089
H14   H     H_    0.358785 0.862907 0.342838 0.196293
H15   H     H_    0.362976 0.141199 0.342863 0.195711
H16   H     H_    0.637062 0.858849 0.342863 0.195712
H17   H     H_    0.796522 0.286079 0.253669 0.162054
H18   H     H_    0.204965 0.712426 0.253543 0.161880
H19   H     H_    0.212585 0.295048 0.253420 0.160137
H20   H     H_    0.787475 0.705030 0.253412 0.160163
H21   H     H_    0.295391 0.787096 0.746562 0.161071
H22   H     H_    0.703150 0.214373 0.746439 0.160937
H23   H     H_    0.712246 0.794697 0.746591 0.160287
H24   H     H_    0.287683 0.205214 0.746583 0.160259
C73   C     C_R   0.055731 0.499891 0.793247 0.023009
C74   C     C_R   0.944276 0.500112 0.206721 0.006410
C75   C     C_R   0.944269 0.500111 0.793240 0.023227
C76   C     C_R   0.055724 0.499890 0.206728 0.006396
C77   C     C_R   0.555684 0.997897 0.793277 0.004204
C78   C     C_R   0.444314 0.002161 0.206746 0.017634
C79   C     C_R   0.444316 0.002104 0.793270 0.004189
C80   C     C_R   0.555686 0.997842 0.206753 0.017535
N1    N     N_R   1.000000 0.500000 0.743810 -0.185028
N2    N     N_R   0.000000 0.500000 0.256190 -0.183156
N3    N     N_R   0.500000 0.000000 0.743810 -0.184066
N4    N     N_R   0.500000 0.000000 0.256190 -0.187014
C81   C     C_R   0.942929 0.500119 0.896324 0.004883
C82   C     C_R   0.057065 0.499885 0.103621 -0.000936
C83   C     C_R   0.057070 0.499886 0.896332 0.004972
C84   C     C_R   0.942935 0.500119 0.103613 -0.001058
C85   C     C_R   0.442982 0.002236 0.896373 -0.006537
C86   C     C_R   0.557021 0.997729 0.103667 -0.003372
C87   C     C_R   0.557019 0.997767 0.896380 -0.006550
C88   C     C_R   0.442979 0.002276 0.103660 -0.003320
C89   C     C_R   1.000000 0.500003 0.948137 0.086553
C90   C     C_R   1.000000 0.500002 0.051808 0.091704
C91   C     C_R   0.500000 0.000002 0.948185 0.089451
C92   C     C_R   0.500000 0.000002 0.051855 0.083487
C93   C     C_R   0.886152 0.500239 0.948585 -0.192725
C94   C     C_R   0.113841 0.499768 0.051332 -0.204295
C95   C     C_R   0.113848 0.499769 0.948600 -0.193233
C96   C     C_R   0.886159 0.500239 0.051317 -0.204167
C97   C     C_R   0.386255 0.004550 0.948657 -0.203495
C98   C     C_R   0.613747 0.995410 0.051402 -0.188249
C99   C     C_R   0.613745 0.995456 0.948672 -0.203553
C100  C     C_R   0.386253 0.004597 0.051387 -0.188021
H25   H     H_    0.099166 0.499810 0.752247 0.121113
H26   H     H_    0.900841 0.500198 0.247713 0.123443
H27   H     H_    0.900833 0.500192 0.752234 0.121085
H28   H     H_    0.099159 0.499805 0.247726 0.123319
H29   H     H_    0.599091 0.996311 0.752290 0.127320
H30   H     H_    0.400908 0.003792 0.247738 0.128848
H31   H     H_    0.400909 0.003690 0.752278 0.127203
H32   H     H_    0.599092 0.996212 0.247751 0.128836
H33   H     H_    0.841757 0.500329 0.910039 0.127031
H34   H     H_    0.158232 0.499677 0.089862 0.132355
H35   H     H_    0.158242 0.499679 0.910060 0.126993
H36   H     H_    0.841767 0.500331 0.089841 0.132426
H37   H     H_    0.341901 0.006342 0.910126 0.141531
H38   H     H_    0.658101 0.993556 0.089945 0.142171
H39   H     H_    0.658100 0.993665 0.910147 0.141609
H40   H     H_    0.341900 0.006453 0.089924 0.142020
O17   O     O_3   0.209318 0.700400 0.767272 -0.568257
C101  C     C_3   0.251340 0.654830 0.802906 -0.352903
H41   H     H_    0.256648 0.615303 0.750429 0.149545
H42   H     H_    0.232070 0.635292 0.871779 0.195587
H43   H     H_    0.297896 0.675690 0.820008 0.163819
O18   O     O_3   0.789081 0.301200 0.767141 -0.568347
C102  C     C_3   0.746901 0.347072 0.801354 -0.353944
H44   H     H_    0.742039 0.386275 0.748184 0.149836
H45   H     H_    0.765725 0.367006 0.870255 0.195216
H46   H     H_    0.700186 0.326410 0.817974 0.163878
O19   O     O_3   0.799088 0.708751 0.767262 -0.571362
C103  C     C_3   0.758189 0.664061 0.808360 -0.345985
H47   H     H_    0.751650 0.623200 0.758794 0.148473
H48   H     H_    0.712045 0.685264 0.827073 0.167373
H49   H     H_    0.779308 0.646350 0.877122 0.198036
O20   O     O_3   0.200833 0.291151 0.767257 -0.571407
C104  C     C_3   0.241727 0.335815 0.808440 -0.345934
H50   H     H_    0.248294 0.376694 0.758920 0.148526
H51   H     H_    0.287858 0.314593 0.827182 0.167364
H52   H     H_    0.220586 0.353504 0.877197 0.198050
O21   O     O_3   0.710860 0.198791 0.233014 -0.576756
C105  C     C_3   0.668368 0.240024 0.187280 -0.333825
H53   H     H_    0.626765 0.249193 0.234409 0.158258
H54   H     H_    0.651253 0.217797 0.119018 0.198932
H55   H     H_    0.691530 0.284822 0.166747 0.161049
O22   O     O_3   0.290771 0.799562 0.232863 -0.576619
C106  C     C_3   0.333582 0.758064 0.188470 -0.334276
H56   H     H_    0.374892 0.749249 0.236388 0.158415
H57   H     H_    0.351111 0.779846 0.120118 0.198834
H58   H     H_    0.310587 0.713108 0.168318 0.160696
O23   O     O_3   0.299514 0.209180 0.232754 -0.581053
C107  C     C_3   0.258654 0.164554 0.191394 -0.333124
H59   H     H_    0.212551 0.185802 0.172557 0.172464
H60   H     H_    0.252018 0.123648 0.240837 0.156989
H61   H     H_    0.279869 0.146898 0.122671 0.196256
O24   O     O_3   0.700550 0.790903 0.232750 -0.581079
C108  C     C_3   0.741416 0.835550 0.191464 -0.332996
H62   H     H_    0.787528 0.814316 0.172648 0.172476
H63   H     H_    0.748032 0.876440 0.240948 0.157030
H64   H     H_    0.720220 0.853229 0.122738 0.196262

loop_
_geom_bond_atom_site_label_1
_geom_bond_atom_site_label_2
_geom_bond_distance
_ccdc_geom_bond_type
C84   C96   1.406123 A    
C63   C67   1.398735 A    
C102  H44   1.113938 S    
O22   C106  1.409753 S    
O8    Cu1   1.968546 S    
O5    Cu2   1.968557 S    
O2    C2    1.290267 A    
C108  H63   1.113916 S    
C108  H62   1.112842 S    
C16   H8    1.084508 S    
C14   C22   1.400980 A    
C88   C92   1.408099 A    
C44   C52   1.410923 A    
C23   C31   1.401455 A    
C97   C100  1.405530 A    
O21   C105  1.409797 S    
C29   C37   1.396777 A    
C12   C52   1.392472 A    
C79   H31   1.082651 S    
C104  H50   1.113923 S    
C64   O24   1.382938 S    
C87   C91   1.408029 A    
C26   H10   1.083586 S    
C57   C69   1.398795 A    
O17   C101  1.409735 S    
C7    C22   1.460933 S    
C77   H29   1.082650 S    
C32   C40   1.396622 A    
C79   C85   1.410913 A    
C76   C82   1.410977 A    
C13   C53   1.392562 A    
C60   O20   1.382918 S    
C54   C69   1.399983 A    
C27   C35   1.396617 A    
C66   H18   1.084119 S    
C39   C63   1.409653 A    
C53   C70   1.400038 A    
C77   N3    1.367283 A    
C65   H17   1.084159 S    
C38   C62   1.409579 A    
C86   C92   1.408098 A    
C76   N2    1.367307 A    
C104  H52   1.109429 S    
O6    Cu1   1.968554 S    
C67   H19   1.084119 S    
O18   C102  1.409787 S    
C57   O17   1.382905 S    
C46   C54   1.410914 A    
C58   O18   1.382938 S    
C45   C53   1.410974 A    
O13   C7    1.290387 A    
O3    C2    1.290365 A    
C20   C28   1.401452 A    
Cu2   N2    2.002869 S    
O14   C8    1.290410 A    
C74   H26   1.082665 S    
Cu1   N1    2.002869 S    
C16   C56   1.392451 A    
C39   C47   1.414195 A    
Cu3   N3    2.002869 S    
C41   C46   1.402345 A    
C38   C46   1.414259 A    
C103  H49   1.109428 S    
O19   C103  1.409787 S    
C11   C19   1.400935 A    
O24   C108  1.409770 S    
C35   C43   1.414189 A    
C36   C44   1.414192 A    
O13   Cu4   1.968557 S    
O14   Cu3   1.968554 S    
C96   H36   1.083332 S    
C15   C23   1.400917 A    
C59   C71   1.398707 A    
C80   N4    1.367205 A    
C98   H38   1.083430 S    
C24   C32   1.401457 A    
O16   Cu3   1.968546 S    
C12   C20   1.400937 A    
C25   C33   1.396766 A    
C62   O22   1.383079 S    
C105  H54   1.109383 S    
C101  H42   1.109449 S    
C8    C21   1.460927 S    
C78   H30   1.082690 S    
C42   C50   1.410880 A    
C33   C41   1.414202 A    
C94   H34   1.083332 S    
C107  H61   1.109441 S    
C15   H7    1.084509 S    
C61   O21   1.383142 S    
C10   C50   1.392343 A    
C31   C39   1.396626 A    
C9    C49   1.392333 A    
C104  H51   1.112852 S    
C75   H27   1.082737 S    
C86   C98   1.405908 A    
C102  H46   1.112860 S    
C69   H21   1.084129 S    
C76   H28   1.082666 S    
O8    C3    1.290270 A    
C27   H11   1.083523 S    
C106  H56   1.113966 S    
C100  H40   1.083429 S    
C44   C47   1.402301 A    
C59   O19   1.382917 S    
O3    Cu1   1.968441 S    
C107  H60   1.113916 S    
C93   C96   1.405559 A    
C63   O23   1.382939 S    
C29   H13   1.083599 S    
C34   C42   1.414268 A    
Cu1   Cu2   2.665748 S    
C62   C66   1.399065 A    
O12   C5    1.290349 A    
O10   C6    1.290358 A    
C51   C68   1.399924 A    
C1    C20   1.460617 S    
C30   C38   1.396784 A    
C60   C72   1.398709 A    
C33   C57   1.409649 A    
C2    C19   1.460618 S    
C106  H57   1.109338 S    
C83   C89   1.408188 A    
C3    C18   1.460588 S    
C75   C81   1.410662 A    
C5    C24   1.460574 S    
C35   C59   1.409654 A    
C85   C97   1.406034 A    
C79   N3    1.367283 A    
C6    C23   1.460574 S    
O11   Cu3   1.968441 S    
C15   C55   1.392445 A    
C26   C34   1.396776 A    
C81   C89   1.408188 A    
O2    Cu2   1.968454 S    
C77   C87   1.410917 A    
O7    Cu2   1.968543 S    
C78   C88   1.410683 A    
C88   C100  1.405908 A    
C25   H9    1.083551 S    
C55   C72   1.399901 A    
C22   C30   1.401649 A    
O4    C1    1.290259 A    
C75   N1    1.367215 A    
C93   H33   1.083497 S    
C103  H47   1.113924 S    
C12   H4    1.084501 S    
C14   C54   1.392547 A    
C85   C91   1.408032 A    
O16   C7    1.290403 A    
C87   C99   1.406039 A    
C80   H32   1.082691 S    
C101  H41   1.113930 S    
C108  H64   1.109442 S    
C37   C61   1.409629 A    
C16   C24   1.400915 A    
C47   C55   1.410931 A    
C17   C25   1.401578 A    
C82   C90   1.408079 A    
C52   C67   1.399923 A    
C83   C95   1.405947 A    
O20   C104  1.409785 S    
O9    Cu3   1.968454 S    
C19   C27   1.401453 A    
C98   C99   1.405530 A    
C84   C90   1.408077 A    
O10   Cu4   1.968454 S    
C28   C36   1.396625 A    
C43   C48   1.402301 A    
O15   C8    1.290380 A    
C42   C45   1.402324 A    
C64   C68   1.398733 A    
C37   C45   1.414324 A    
C107  H59   1.112839 S    
C36   C60   1.409654 A    
O4    Cu2   1.968441 S    
C91   C92   1.418384 A    
O1    Cu1   1.968454 S    
C95   H35   1.083495 S    
O5    C3    1.290350 A    
C48   C56   1.410933 A    
C21   C29   1.401674 A    
O6    C4    1.290269 A    
C89   C90   1.418392 A    
O11   C6    1.290255 A    
O1    C1    1.290374 A    
C72   H24   1.084123 S    
C80   C86   1.410683 A    
C40   C48   1.414193 A    
C41   C49   1.410831 A    
C105  H55   1.112707 S    
C106  H58   1.112721 S    
C13   C21   1.401003 A    
C10   H2    1.084548 S    
C99   H39   1.083331 S    
C9    H1    1.084512 S    
C4    C17   1.460590 S    
C40   C64   1.409652 A    
O9    C5    1.290263 A    
O15   Cu4   1.968543 S    
C73   C83   1.410664 A    
C97   H37   1.083331 S    
C58   C70   1.398779 A    
C11   H3    1.084500 S    
C11   C51   1.392478 A    
C14   H6    1.084492 S    
C71   H23   1.084123 S    
C13   H5    1.084529 S    
C70   H22   1.084174 S    
C78   N4    1.367205 A    
C82   C94   1.406121 A    
C18   C26   1.401602 A    
C74   C84   1.410979 A    
C56   C71   1.399902 A    
O23   C107  1.409770 S    
C68   H20   1.084118 S    
C102  H45   1.109483 S    
C81   C93   1.405949 A    
O12   Cu4   1.968441 S    
C101  H43   1.112857 S    
C31   H15   1.083529 S    
O7    C4    1.290351 A    
C9    C17   1.400763 A    
Cu3   Cu4   2.665748 S    
C30   H14   1.083561 S    
C94   C95   1.405557 A    
C32   H16   1.083527 S    
C73   H25   1.082733 S    
C74   N2    1.367311 A    
C10   C18   1.400787 A    
C105  H53   1.113967 S    
C50   C65   1.399730 A    
C73   N1    1.367212 A    
C43   C51   1.410925 A    
C61   C65   1.399087 A    
C49   C66   1.399673 A    
Cu4   N4    2.002869 S    
C103  H48   1.112851 S    
C34   C58   1.409712 A    
C28   H12   1.083522 S    
