data_mof_unit_13842.cif
_audit_creation_date              2012-12-10T16:57:10-0500
_audit_creation_method            fapswitch 2.2
_symmetry_space_group_name_H-M    P1
_symmetry_Int_Tables_number       1
_space_group_crystal_system       triclinic
_cell_length_a                    7.971033
_cell_length_b                    8.58714
_cell_length_c                    16.5774
_cell_angle_alpha                 95.195652
_cell_angle_beta                  78.500007
_cell_angle_gamma                 92.092096
_cell_volume                      1107.15026925

loop_
_atom_site_label
_atom_site_type_symbol
_atom_type_description
_atom_site_fract_x
_atom_site_fract_y
_atom_site_fract_z
_atom_type_partial_charge
C1    C     C_R   0.543357 0.792837 0.496302 0.857978
C2    C     C_R   0.497017 0.594739 0.214957 0.356267
C3    C     C_R   0.453446 0.261614 0.832665 -0.321873
C4    C     C_R   0.509446 0.569342 0.129726 -0.320985
C5    C     C_R   0.389511 0.370123 0.898208 -0.045757
C6    C     C_R   0.573381 0.428781 0.087902 0.022985
C7    C     C_R   0.337278 0.519601 0.884237 0.379780
C8    C     C_R   0.631466 0.312524 0.128864 0.310536
C9    C     C_R   0.366107 0.563171 0.802737 0.373390
C10   C     C_R   0.609291 0.332814 0.215697 0.274674
C11   C     C_2   0.420515 0.341579 0.978941 0.300388
C12   C     C_R   0.456243 0.207015 0.503830 0.903710
C13   C     C_2   0.567296 0.401338 0.001083 0.423597
C14   C     C_2   0.562092 0.951649 0.480968 0.257881
C15   C     C_2   0.436033 0.047686 0.518765 0.257507
C16   C     C_R   0.473353 0.498596 0.653922 1.011209
C17   C     C_R   0.525920 0.495997 0.345897 1.003411
C18   C     C_R   0.445198 0.457350 0.738138 -0.176787
C19   C     C_R   0.546076 0.475521 0.257197 -0.134211
C20   C     C_R   0.484207 0.304974 0.752028 0.367862
H1    H     H_    0.466967 0.657666 0.095909 0.195420
H2    H     H_    0.784206 0.136625 0.112955 0.364216
H3    H     H_    0.765456 0.909045 0.394639 0.349862
H4    H     H_    0.230815 0.089441 0.604233 0.368200
H5    H     H_    0.949389 0.149689 0.319130 0.380523
H6    H     H_    0.055904 0.794165 0.706359 0.386221
H7    H     H_    0.492861 0.148054 0.845048 0.202116
H8    H     H_    0.572492 0.099991 0.706484 0.369756
H9    H     H_    0.408100 0.804052 0.219059 0.353854
H10   H     H_    0.622783 0.111867 0.231071 0.353651
H11   H     H_    0.267393 0.770417 0.834885 0.395806
H12   H     H_    0.702731 0.418776 0.889772 0.346430
H13   H     H_    0.328114 0.243223 0.081007 0.343579
H14   H     H_    0.233169 0.574676 0.999910 0.367060
N1    N     N_2   0.953500 0.457650 0.478520 0.099019
N2    N     N_2   0.046500 0.542350 0.521480 0.104264
O1    O     O_R   0.388470 0.738640 0.505270 -0.547612
O2    O     O_3   0.435799 0.732936 0.258296 -0.749397
O3    O     O_3   0.637277 0.213933 0.262064 -0.703392
O4    O     O_3   0.324868 0.709136 0.784097 -0.726715
O5    O     O_3   0.701636 0.465154 0.946681 -0.707487
O6    O     O_3   0.286700 0.275876 0.032807 -0.724179
O7    O     O_3   0.268164 0.627374 0.948327 -0.746100
O8    O     O_3   0.704165 0.181014 0.082845 -0.731015
O9    O     O_3   0.694970 0.999890 0.420501 -0.698414
O10   O     O_3   0.300419 0.998371 0.577908 -0.698944
O11   O     O_2   0.198259 0.280959 0.375302 -0.316919
O12   O     O_R   0.611530 0.261360 0.494730 -0.515682
O13   O     O_2   0.002423 0.157079 0.485281 -0.234744
O14   O     O_3   0.890534 0.233811 0.358301 -0.439554
O15   O     O_2   0.817546 0.743801 0.613293 -0.286076
O16   O     O_2   0.897104 0.516297 0.677145 -0.288832
O17   O     O_3   0.112445 0.745807 0.651619 -0.439414
O18   O     O_R   0.679650 0.711510 0.491500 -0.619324
O19   O     O_R   0.320350 0.288490 0.508500 -0.602801
O20   O     O_R   0.337210 0.515200 0.623500 -0.575903
O21   O     O_R   0.662790 0.484800 0.376500 -0.590893
O22   O     O_R   0.628380 0.488060 0.609730 -0.542474
O23   O     O_R   0.371620 0.511940 0.390270 -0.576675
O24   O     O_3   0.554891 0.202013 0.686037 -0.740321
S1    S     S_3+6 0.020326 0.280612 0.425279 0.176001
S2    S     S_3+6 0.959040 0.636146 0.616675 0.180113
Zn1   Zn    Zn3+2 0.305580 0.518120 0.509190 1.179548
Zn2   Zn    Zn3+2 0.694420 0.481880 0.490810 1.185664

loop_
_geom_bond_atom_site_label_1
_geom_bond_atom_site_label_2
_ccdc_geom_bond_type
H9    O2    S    
O11   S1    D    
C2    C4    A    
H12   O5    S    
C16   O20   A    
C9    O4    S    
N1    Zn2   S    
H3    O9    S    
C7    O7    S    
C20   O24   S    
N2    Zn1   S    
O17   S2    S    
C2    O2    S    
O23   Zn1   S    
N1    N2    D    
C12   C15   S    
C12   O12   A    
C10   C19   A    
C1    O18   A    
H4    O10   S    
C13   O5    S    
O20   Zn1   S    
C3    C20   A    
N1    S1    S    
C16   O22   A    
C6    C13   S    
C4    H1    S    
C11   C13   D    
C1    C14   S    
O15   S2    D    
O18   Zn2   S    
C17   O23   A    
N2    S2    S    
H13   O6    S    
C6    C8    A    
C3    H7    S    
O1    Zn1   S    
H10   O3    S    
C5    C11   S    
C14   O9    S    
C18   C20   A    
H8    O24   S    
O22   Zn2   S    
O12   Zn2   S    
C4    C6    A    
O13   S1    D    
C12   O19   A    
H6    O17   S    
C7    C9    A    
C9    C18   A    
H11   O4    S    
O21   Zn2   S    
C16   C18   S    
C5    C7    A    
O14   S1    S    
C14   C15   D    
C10   O3    S    
O16   S2    D    
C11   O6    S    
C15   O10   S    
C17   C19   S    
C2    C19   A    
H5    O14   S    
C8    C10   A    
H2    O8    S    
H14   O7    S    
C8    O8    S    
C17   O21   A    
C1    O1    A    
C3    C5    A    
O19   Zn1   S    
