data_mof_unit_23422.cif
_audit_creation_date              2012-12-10T18:09:49-0500
_audit_creation_method            fapswitch 2.2
_symmetry_space_group_name_H-M    P1
_symmetry_Int_Tables_number       1
_space_group_crystal_system       triclinic
_cell_length_a                    10.684119
_cell_length_b                    12.622906
_cell_length_c                    13.122643
_cell_angle_alpha                 83.14487
_cell_angle_beta                  90.628571
_cell_angle_gamma                 102.179852
_cell_volume                      1717.39156139

loop_
_atom_site_label
_atom_site_type_symbol
_atom_type_description
_atom_site_fract_x
_atom_site_fract_y
_atom_site_fract_z
_atom_type_partial_charge
C1    C     C_R   0.473060 0.440259 0.690554 0.920198
C2    C     C_3   0.121736 0.495574 0.507084 0.074621
C3    C     C_3   0.086348 0.551657 0.402774 -0.491977
C4    C     C_3   0.090846 0.559624 0.594489 -0.430325
C5    C     C_R   0.509495 0.731403 0.053333 -0.204818
C6    C     C_R   0.488087 0.594924 0.201413 -0.148871
C7    C     C_R   0.430080 0.295691 0.837680 -0.313383
C8    C     C_R   0.424099 0.263779 0.942785 0.407856
C9    C     C_R   0.437315 0.344064 0.010254 0.335538
C10   C     C_R   0.426994 0.452834 0.972353 -0.089253
C11   C     C_R   0.419114 0.481173 0.865515 0.036717
C12   C     C_R   0.741268 0.498391 0.505459 0.862968
C13   C     C_R   0.437984 0.537863 0.035607 0.057827
C14   C     C_R   0.463363 0.648295 0.991818 0.151960
C15   C     C_R   0.436411 0.672361 0.889029 -0.235549
C16   C     C_R   0.402584 0.587720 0.828884 -0.139746
C17   C     C_R   0.422385 0.517550 0.141168 0.017825
C18   C     C_R   0.531054 0.703406 0.157300 -0.215060
C19   C     C_R   0.436037 0.404877 0.798636 -0.184765
C20   C     C_R   0.316810 0.085449 0.349547 -0.289094
C21   C     C_R   0.647278 0.802556 0.633840 0.125175
C22   C     C_R   0.673593 0.907031 0.662723 -0.276244
C23   C     C_R   0.506652 0.560117 0.309173 0.888647
C24   C     C_R   0.616879 0.986163 0.611631 -0.207452
C25   C     C_R   0.534097 0.962526 0.529572 0.019749
C26   C     C_R   0.508370 0.854244 0.502763 0.214478
C27   C     C_R   0.473118 0.041565 0.475824 -0.003749
C28   C     C_R   0.382644 0.010023 0.399439 0.177396
C29   C     C_R   0.357967 0.903464 0.374459 -0.289475
C30   C     C_R   0.420845 0.827165 0.424720 -0.207430
C31   C     C_R   0.497953 0.151467 0.495044 -0.072944
C32   C     C_R   0.342544 0.191473 0.374885 0.041527
C33   C     C_R   0.258417 0.498316 0.503366 0.835642
C34   C     C_3   0.898618 0.374991 0.518102 -0.208019
C35   C     C_3   0.043429 0.375096 0.524284 -0.190691
C36   C     C_3   0.944258 0.561058 0.404460 0.001986
C37   C     C_3   0.945618 0.553642 0.600950 -0.184372
C38   C     C_3   0.878700 0.496655 0.508144 -0.032001
H1    H     H_    0.862576 0.338896 0.447252 0.146148
H2    H     H_    0.140285 0.647022 0.578569 0.191250
H3    H     H_    0.151275 0.633476 0.384976 0.170175
H4    H     H_    0.575767 0.766250 0.203463 0.177833
H5    H     H_    0.439652 0.755719 0.855696 0.147755
H6    H     H_    0.533407 0.816218 0.020496 0.153126
H7    H     H_    0.437405 0.235483 0.786938 0.206415
H8    H     H_    0.369582 0.608279 0.752428 0.167893
H9    H     H_    0.290718 0.249711 0.339015 0.162328
H10   H     H_    0.289312 0.878736 0.315834 0.160193
H11   H     H_    0.245669 0.062496 0.292205 0.150560
H12   H     H_    0.567896 0.183797 0.548779 0.145204
H13   H     H_    0.636187 0.063631 0.640740 0.170229
H14   H     H_    0.735657 0.926724 0.726791 0.162836
H15   H     H_    0.397121 0.747044 0.402013 0.211504
H16   H     H_    0.066090 0.330565 0.460813 0.145233
H17   H     H_    0.105794 0.503399 0.341123 0.177906
H18   H     H_    0.930274 0.638499 0.596184 0.161700
H19   H     H_    0.129304 0.527943 0.668630 0.165733
N1    N     N_R   0.433240 0.222190 0.444680 -0.118458
N2    N     N_R   0.566070 0.776970 0.554790 -0.151012
O1    O     O_R   0.468120 0.366740 0.627160 -0.611948
O2    O     O_R   0.510770 0.544830 0.662520 -0.624982
O3    O     O_R   0.663880 0.410950 0.482330 -0.626788
O4    O     O_R   0.706530 0.589040 0.517700 -0.612613
O5    O     O_R   0.489230 0.455170 0.337480 -0.600640
O6    O     O_R   0.531880 0.633260 0.372840 -0.634963
O7    O     O_R   0.293470 0.410960 0.482300 -0.629761
O8    O     O_R   0.336120 0.589050 0.517670 -0.658824
Zn1   Zn    Zn3+2 0.471520 0.381090 0.476390 0.949830
Zn2   Zn    Zn3+2 0.528480 0.618910 0.523610 0.934273
C39   C     C_1   0.937893 0.678048 0.394425 0.172076
N3    N     N_1   0.933035 0.769406 0.386620 -0.208752
C40   C     C_1   0.308081 0.440674 0.181375 0.234303
N4    N     N_1   0.214756 0.380994 0.211422 -0.256209
O9    O     O_3   0.467102 0.315817 0.111412 -0.622444
C41   C     C_3   0.599927 0.318694 0.117623 0.147804
H20   H     H_    0.634896 0.276427 0.057264 0.166621
H21   H     H_    0.653786 0.404867 0.109859 0.159175
C42   C     C_3   0.628549 0.261047 0.221027 -0.761352
H22   H     H_    0.605011 0.305288 0.283815 0.280241
H23   H     H_    0.571377 0.176038 0.231443 0.254584
H24   H     H_    0.731771 0.258579 0.224903 0.203876
O10   O     O_3   0.431680 0.157677 0.978226 -0.601450
C43   C     C_3   0.314831 0.103436 0.027182 0.140356
H25   H     H_    0.235963 0.095436 0.970578 0.137895
H26   H     H_    0.289654 0.146913 0.090508 0.169141
C44   C     C_3   0.326937 0.989666 0.073384 -0.833942
H27   H     H_    0.404196 0.995520 0.131176 0.260553
H28   H     H_    0.235280 0.945741 0.111590 0.203385
H29   H     H_    0.350002 0.942733 0.012226 0.257182
C45   C     C_1   0.822917 0.302716 0.603640 0.208456
N5    N     N_1   0.765202 0.247778 0.671483 -0.223599
C46   C     C_1   0.701183 0.722056 0.694960 0.229836
N6    N     N_1   0.744431 0.658918 0.747051 -0.208299
C47   C     C_1   0.081686 0.315993 0.620773 0.211045
N7    N     N_1   0.111821 0.270258 0.695700 -0.208359
C48   C     C_1   0.880694 0.518001 0.312841 0.137330
N8    N     N_1   0.831708 0.485186 0.240572 -0.227010
C49   C     C_1   0.894982 0.499847 0.702806 0.219524
N9    N     N_1   0.856150 0.457920 0.782880 -0.184998

loop_
_geom_bond_atom_site_label_1
_geom_bond_atom_site_label_2
_ccdc_geom_bond_type
C2    C35   S    
O7    Zn1   S    
C32   N1    A    
C7    C8    A    
C11   C19   A    
C29   C30   A    
C8    O10   S    
C7    H7    S    
C31   N1    A    
C28   C29   A    
C37   C38   S    
C21   N2    A    
C18   H4    S    
C42   H23   S    
C15   C16   A    
C34   C35   S    
C37   H18   S    
C3    H17   S    
O4    Zn2   S    
C8    C9    A    
C4    H19   S    
C39   N3    T    
C26   N2    A    
C24   H13   S    
C21   C22   A    
C35   H16   S    
C9    C10   A    
C37   C49   S    
C36   C39   S    
C33   O7    A    
C6    C18   A    
C30   H15   S    
C1    C19   S    
O9    C41   S    
C29   H10   S    
C27   C31   A    
C34   H1    S    
C4    H2    S    
C24   C25   A    
C1    O1    A    
C16   H8    S    
C12   O4    A    
C44   H27   S    
C5    C18   A    
C20   C28   A    
C25   C26   A    
C10   C13   A    
O8    Zn2   S    
C2    C4    S    
C41   H20   S    
C34   C45   S    
C20   H11   S    
C12   O3    A    
C11   C16   A    
C36   C48   S    
C43   H25   S    
C48   N8    T    
C41   H21   S    
C5    C14   A    
N2    Zn2   S    
C2    C33   S    
N1    Zn1   S    
C23   O5    A    
C43   H26   S    
C5    H6    S    
C26   C30   A    
C7    C19   A    
C32   H9    S    
C22   C24   A    
C9    O9    S    
C31   H12   S    
O5    Zn1   S    
C33   O8    A    
C22   H14   S    
C20   C32   A    
C35   C47   S    
O2    Zn2   S    
C6    C17   A    
C3    H3    S    
C34   C38   S    
C40   N4    T    
C44   H29   S    
C1    O2    A    
O3    Zn1   S    
C25   C27   A    
C13   C17   A    
C23   O6    A    
C36   C38   S    
C2    C3    S    
C15   H5    S    
C42   H22   S    
C42   H24   S    
C45   N5    T    
C3    C36   S    
O6    Zn2   S    
C6    C23   S    
C46   N6    T    
C44   H28   S    
C12   C38   S    
C47   N7    T    
C41   C42   S    
C10   C11   A    
C43   C44   S    
C4    C37   S    
O1    Zn1   S    
C17   C40   S    
C49   N9    T    
C27   C28   A    
C14   C15   A    
O10   C43   S    
C13   C14   A    
C21   C46   S    
