data_mof_unit_46893.cif
_audit_creation_date              2013-03-05T15:40:34-0500
_audit_creation_method            fapswitch 2.2
_symmetry_space_group_name_H-M    P1
_symmetry_Int_Tables_number       1
_space_group_crystal_system       triclinic
_cell_length_a                    7.894339
_cell_length_b                    8.7497
_cell_length_c                    10.942034
_cell_angle_alpha                 95.741847
_cell_angle_beta                  85.741007
_cell_angle_gamma                 90.760572
_cell_volume                      749.918511128

loop_
_atom_site_label
_atom_site_type_symbol
_atom_site_description
_atom_site_fract_x
_atom_site_fract_y
_atom_site_fract_z
_atom_type_partial_charge
O1    O     O_R   0.389250 0.738570 0.508280 -0.577376
O2    O     O_R   0.610750 0.261430 0.491720 -0.577522
O3    O     O_R   0.678390 0.711630 0.486650 -0.560460
O4    O     O_R   0.321610 0.288370 0.513350 -0.560442
C1    C     C_R   0.542077 0.792743 0.496328 0.896061
C2    C     C_R   0.457923 0.207250 0.503644 0.895686
O5    O     O_R   0.355430 0.513480 0.694040 -0.652128
O6    O     O_R   0.644570 0.486520 0.305960 -0.652021
O7    O     O_R   0.644570 0.486540 0.672410 -0.600483
O8    O     O_R   0.355430 0.513460 0.327590 -0.600774
C3    C     C_R   0.502647 0.504922 0.739922 0.877615
C4    C     C_R   0.497269 0.494938 0.260077 0.877603
Zn1   Zn    Zn3+2 0.306940 0.517990 0.514440 1.117190
Zn2   Zn    Zn3+2 0.693060 0.482010 0.485560 1.117187
H1    H     H_    0.060086 0.367480 0.866530 0.181579
H2    H     H_    0.939223 0.631362 0.133249 0.181608
C5    C     C_R   0.209603 0.613585 0.901926 -0.132768
C6    C     C_R   0.789745 0.385357 0.097977 -0.132843
C7    C     C_R   0.042607 0.591475 0.953314 0.578199
C8    C     C_R   0.956736 0.407367 0.046522 0.578330
C9    C     C_R   0.028627 0.555409 0.075935 -0.266345
C10   C     C_R   0.970713 0.443423 0.923871 -0.265671
C11   C     C_R   0.180355 0.561720 0.137523 -0.051146
C12   C     C_R   0.818890 0.437103 0.862371 -0.051589
C13   C     C_R   0.342048 0.527779 0.072402 0.130449
C14   C     C_R   0.657388 0.471368 0.927569 0.129982
C15   C     C_R   0.352748 0.545666 0.946866 -0.060698
C16   C     C_R   0.646706 0.453487 0.053085 -0.060802
C17   C     C_R   0.492903 0.488801 0.126862 -0.117917
C18   C     C_R   0.506682 0.510600 0.873127 -0.117927
H3    H     H_    0.227384 0.693244 0.832352 0.231724
H4    H     H_    0.771869 0.305883 0.167680 0.231513
H5    H     H_    0.166077 0.614836 0.230619 0.202537
H6    H     H_    0.832480 0.383089 0.769565 0.202582
C19   C     C_2   0.565656 0.953490 0.504739 -0.024514
C20   C     C_2   0.434358 0.046495 0.495169 -0.024541
N1    N     N_2   0.950330 0.457950 0.466250 -0.001379
N2    N     N_2   0.049670 0.542050 0.533750 -0.001250
F1    F     F_    0.943445 0.711365 0.932022 -0.592235
F2    F     F_    0.055868 0.287469 0.067830 -0.592150
N3    N     N_R   0.733109 0.008038 0.529613 0.263710
O9    O     O_R   0.861076 0.951244 0.458639 -0.227512
O10   O     O_R   0.759973 0.078523 0.637027 -0.334859
N4    N     N_R   0.266935 0.991930 0.470219 0.263684
O11   O     O_R   0.138899 0.048712 0.541122 -0.227514
O12   O     O_R   0.240180 0.921328 0.362825 -0.334393
N5    N     N_R   0.010060 0.320909 0.402790 0.317159
O13   O     O_R   0.898672 0.216301 0.373854 -0.283519
O14   O     O_R   0.147333 0.317312 0.330879 -0.312941
N6    N     N_R   0.989939 0.679089 0.597213 0.317215
O15   O     O_R   0.101324 0.783707 0.626141 -0.283647
O16   O     O_R   0.852671 0.682674 0.669133 -0.312249

loop_
_geom_bond_atom_site_label_1
_geom_bond_atom_site_label_2
_geom_bond_distance
_ccdc_geom_bond_type
O1    Zn1   2.034188 S    
N6    O16   1.289901 A    
O7    Zn2   2.048440 S    
H2    C9    1.093800 S    
N2    N6    1.393576 S    
C4    C17   1.456210 S    
N1    N5    1.393575 S    
N3    O10   1.302015 A    
N3    O9    1.300059 A    
C14   C16   1.394012 A    
C19   C20   1.342795 D    
O1    C1    1.292720 A    
C8    F2    1.365717 S    
O6    C4    1.306163 A    
C9    C11   1.415132 A    
N6    O15   1.293561 A    
C6    C16   1.424982 A    
N5    O14   1.289877 A    
N4    O11   1.300039 A    
Zn2   N1    2.037779 S    
O5    C3    1.305684 A    
O7    C3    1.298043 A    
C12   C14   1.434087 A    
Zn1   N2    2.037779 S    
O2    C2    1.292718 A    
O3    Zn2   2.012769 S    
C7    F1    1.365757 S    
C19   N3    1.435292 S    
C1    C19   1.411036 S    
C16   C17   1.426825 A    
C5    C7    1.412960 A    
N1    N2    1.289943 D    
C2    C20   1.411079 S    
C14   C18   1.430092 A    
O8    C4    1.297602 A    
C11   C13   1.434535 A    
C13   C17   1.430565 A    
O2    Zn2   2.034188 S    
C10   C12   1.415268 A    
C20   N4    1.435303 S    
C13   C15   1.394244 A    
C8    C10   1.405213 A    
C5    C15   1.425056 A    
O5    Zn1   2.034137 S    
C7    C10   1.424127 A    
C6    H4    1.082907 S    
C8    C9    1.423983 A    
C6    C8    1.413034 A    
O4    C2    1.288906 A    
O4    Zn1   2.012769 S    
C15   C18   1.427097 A    
O6    Zn2   2.034137 S    
C11   H5    1.075162 S    
C7    C9    1.404903 A    
H1    C10   1.093735 S    
C12   H6    1.074810 S    
C5    H3    1.082932 S    
N5    O13   1.293533 A    
C3    C18   1.456110 S    
N4    O12   1.302026 A    
O3    C1    1.288884 A    
O8    Zn1   2.048440 S    
