data_mof_unit_27808.cif
_audit_creation_date              2012-10-26T17:11:06-0400
_audit_creation_method            fapswitch 2.2
_symmetry_space_group_name_H-M    P1
_symmetry_Int_Tables_number       1
_space_group_crystal_system       monoclinic
_cell_length_a                    28.091734
_cell_length_b                    18.74996
_cell_length_c                    16.842938
_cell_angle_alpha                 90.0
_cell_angle_beta                  62.53726
_cell_angle_gamma                 90.0
_cell_volume                      7871.77318339

loop_
_atom_site_label
_atom_site_type_symbol
_atom_type_description
_atom_site_fract_x
_atom_site_fract_y
_atom_site_fract_z
_atom_type_partial_charge
C1    C     C_R   0.294839 0.727976 0.329789 0.560158
C2    C     C_R   0.461456 0.128804 0.462834 -0.147351
C3    C     C_R   0.926409 0.096759 0.066673 0.557296
C4    C     C_R   0.426392 0.403325 0.066728 0.554448
C5    C     C_R   0.573590 0.596759 0.933327 0.557297
C6    C     C_R   0.573608 0.403325 0.933272 0.554449
C7    C     C_R   0.426409 0.596759 0.066673 0.557296
C8    C     C_R   0.047867 0.502277 0.507721 0.034857
C9    C     C_R   0.952133 0.502277 0.492279 0.034857
C10   C     C_R   0.547867 0.002277 0.507721 0.034857
C11   C     C_R   0.452133 0.002277 0.492279 0.034857
C12   C     C_R   0.021779 0.567152 0.510292 0.009849
C13   C     C_R   0.442723 0.876310 0.525149 -0.146168
C14   C     C_R   0.974160 0.437869 0.503131 0.011763
C15   C     C_R   0.978221 0.567152 0.489708 0.009849
C16   C     C_R   0.025840 0.437869 0.496869 0.011763
C17   C     C_R   0.521779 0.067152 0.510292 0.009849
C18   C     C_R   0.474160 0.937870 0.503131 0.011763
C19   C     C_R   0.478221 0.067152 0.489708 0.009849
C20   C     C_R   0.525840 0.937870 0.496869 0.011763
C21   C     C_R   0.125515 0.437417 0.501131 0.008132
C22   C     C_R   0.884857 0.565323 0.464273 0.008368
C23   C     C_R   0.874485 0.437417 0.498869 0.008132
C24   C     C_R   0.538544 0.128804 0.537165 -0.147351
C25   C     C_R   0.115143 0.565323 0.535726 0.008368
C26   C     C_R   0.625515 0.937417 0.501131 0.008132
C27   C     C_R   0.384857 0.065323 0.464273 0.008368
C28   C     C_R   0.374485 0.937417 0.498869 0.008132
C29   C     C_R   0.615143 0.065323 0.535726 0.008368
C30   C     C_R   0.171772 0.436089 0.515802 -0.025529
C31   C     C_R   0.833772 0.565279 0.464936 -0.028661
C32   C     C_R   0.828228 0.436089 0.484198 -0.025529
C33   C     C_R   0.166228 0.565279 0.535064 -0.028661
C34   C     C_R   0.671772 0.936089 0.515802 -0.025529
C35   C     C_R   0.057277 0.376310 0.474851 -0.146168
C36   C     C_R   0.333771 0.065279 0.464936 -0.028661
C37   C     C_R   0.328228 0.936089 0.484198 -0.025529
C38   C     C_R   0.666228 0.065279 0.535064 -0.028661
C39   C     C_R   0.191830 0.500310 0.530252 -0.170000
C40   C     C_R   0.808169 0.500310 0.469748 -0.170000
C41   C     C_R   0.691830 0.000310 0.530252 -0.169999
C42   C     C_R   0.308169 0.000310 0.469748 -0.169999
C43   C     C_R   0.096132 0.501606 0.515523 0.033018
C44   C     C_R   0.903868 0.501606 0.484477 0.033018
C45   C     C_R   0.596132 0.001606 0.515523 0.033018
C46   C     C_R   0.961456 0.628804 0.462834 -0.147351
C47   C     C_R   0.403868 0.001606 0.484477 0.033018
C48   C     C_R   0.607680 0.877683 0.470640 -0.115533
C49   C     C_R   0.417750 0.126668 0.445024 -0.116096
C50   C     C_R   0.392320 0.877683 0.529360 -0.115533
C51   C     C_R   0.582250 0.126668 0.554976 -0.116096
C52   C     C_R   0.107681 0.377683 0.470640 -0.115533
C53   C     C_R   0.917750 0.626668 0.445024 -0.116096
C54   C     C_R   0.892320 0.377683 0.529360 -0.115533
C55   C     C_R   0.082250 0.626668 0.554976 -0.116096
C56   C     C_3   0.161138 0.622309 0.995014 -0.014431
C57   C     C_R   0.942723 0.376310 0.525149 -0.146168
C58   C     C_3   0.142319 0.556652 0.964549 -0.366921
C59   C     C_3   0.737835 0.403173 0.137308 -0.029057
C60   C     C_3   0.747310 0.433212 0.212855 -0.358429
C61   C     C_3   0.838861 0.622309 0.004986 -0.014432
C62   C     C_3   0.857679 0.556650 0.035448 -0.366920
C63   C     C_3   0.262161 0.403178 0.862699 -0.029057
C64   C     C_3   0.252688 0.433214 0.787149 -0.358433
C65   C     C_3   0.661139 0.122307 0.995019 -0.014432
C66   C     C_3   0.642320 0.056648 0.964557 -0.366919
C67   C     C_3   0.237836 0.903173 0.137308 -0.029057
C68   C     C_R   0.038544 0.628804 0.537165 -0.147351
C69   C     C_3   0.247311 0.933212 0.212854 -0.358428
C70   C     C_3   0.338863 0.122309 0.004985 -0.014437
C71   C     C_3   0.357681 0.056650 0.035445 -0.366925
C72   C     C_3   0.762169 0.903167 0.862681 -0.029059
C73   C     C_3   0.752691 0.933208 0.787139 -0.358427
C74   C     C_R   0.219571 0.767018 0.955238 -0.017524
C75   C     C_R   0.778906 0.232667 0.047088 -0.003783
C76   C     C_R   0.780428 0.767019 0.044762 -0.017525
C77   C     C_R   0.704985 0.271617 0.670413 0.546715
C78   C     C_R   0.221094 0.232667 0.952912 -0.003782
C79   C     C_R   0.719572 0.267018 0.955238 -0.017524
C80   C     C_R   0.278906 0.732667 0.047088 -0.003782
C81   C     C_R   0.280428 0.267018 0.044762 -0.017524
C82   C     C_R   0.721094 0.732668 0.952912 -0.003784
C83   C     C_R   0.231806 0.695342 0.963390 0.258595
C84   C     C_R   0.763626 0.304002 0.044753 0.270556
C85   C     C_R   0.768193 0.695343 0.036610 0.258596
C86   C     C_R   0.236373 0.304001 0.955248 0.270557
C87   C     C_R   0.731806 0.195342 0.963390 0.258596
C88   C     C_R   0.705160 0.727976 0.670211 0.560157
C89   C     C_R   0.263626 0.804001 0.044753 0.270556
C90   C     C_R   0.268194 0.195342 0.036609 0.258596
C91   C     C_R   0.736374 0.804002 0.955246 0.270554
C92   C     C_R   0.262827 0.679056 0.006373 -0.149736
C93   C     C_R   0.735607 0.320749 0.995931 -0.158788
C94   C     C_R   0.737172 0.679057 0.993628 -0.149736
C95   C     C_R   0.264392 0.320749 0.004070 -0.158789
C96   C     C_R   0.762827 0.179056 0.006373 -0.149737
C97   C     C_R   0.235607 0.820749 0.995931 -0.158788
C98   C     C_R   0.237174 0.179056 0.993626 -0.149736
C99   C     C_R   0.295015 0.271617 0.329587 0.546715
C100  C     C_R   0.764393 0.820750 0.004069 -0.158786
C101  C     C_R   0.144666 0.830406 0.944068 -0.140534
C102  C     C_R   0.854957 0.169599 0.056194 -0.123068
C103  C     C_R   0.855334 0.830406 0.055932 -0.140534
C104  C     C_R   0.145043 0.169598 0.943806 -0.123068
C105  C     C_R   0.644666 0.330406 0.944068 -0.140533
C106  C     C_R   0.354957 0.669598 0.056194 -0.123068
C107  C     C_R   0.355334 0.330406 0.055932 -0.140534
C108  C     C_R   0.645042 0.669600 0.943806 -0.123068
C109  C     C_R   0.118037 0.852315 0.895107 -0.015213
C110  C     C_R   0.794840 0.227976 0.329789 0.560158
C111  C     C_R   0.881866 0.147714 0.104880 -0.015331
C112  C     C_R   0.881963 0.852315 0.104893 -0.015214
C113  C     C_R   0.118134 0.147713 0.895119 -0.015330
C114  C     C_R   0.618037 0.352315 0.895107 -0.015214
C115  C     C_R   0.381866 0.647714 0.104881 -0.015331
C116  C     C_R   0.381963 0.352315 0.104893 -0.015214
C117  C     C_R   0.618133 0.647714 0.895120 -0.015330
C118  C     C_R   0.136636 0.829626 0.807003 -0.143078
C119  C     C_R   0.863397 0.170364 0.192986 -0.138695
C120  C     C_R   0.863364 0.829626 0.192996 -0.143078
C121  C     C_R   0.204985 0.771617 0.670412 0.546715
C122  C     C_R   0.136603 0.170364 0.807014 -0.138695
C123  C     C_R   0.636636 0.329626 0.807003 -0.143078
C124  C     C_R   0.363397 0.670364 0.192986 -0.138695
C125  C     C_R   0.363364 0.329626 0.192997 -0.143078
C126  C     C_R   0.636603 0.670364 0.807014 -0.138694
C127  C     C_R   0.182354 0.787138 0.766306 -0.025652
C128  C     C_R   0.817228 0.211911 0.234251 -0.022486
C129  C     C_R   0.817646 0.787138 0.233694 -0.025652
C130  C     C_R   0.182772 0.211911 0.765749 -0.022486
C131  C     C_R   0.682354 0.287138 0.766306 -0.025652
C132  C     C_R   0.205160 0.227976 0.670211 0.560158
C133  C     C_R   0.317228 0.711911 0.234251 -0.022486
C134  C     C_R   0.317646 0.287138 0.233694 -0.025651
C135  C     C_R   0.682772 0.711911 0.765749 -0.022486
C136  C     C_R   0.208604 0.764679 0.815808 -0.078418
C137  C     C_R   0.790209 0.233087 0.185730 -0.075797
C138  C     C_R   0.791396 0.764679 0.184192 -0.078418
C139  C     C_R   0.209791 0.233087 0.814270 -0.075794
C140  C     C_R   0.708604 0.264679 0.815809 -0.078418
C141  C     C_R   0.290209 0.733086 0.185730 -0.075796
C142  C     C_R   0.291396 0.264679 0.184192 -0.078418
C143  C     C_R   0.795015 0.771617 0.329587 0.546715
C144  C     C_R   0.709791 0.733087 0.814270 -0.075798
C145  C     C_R   0.190031 0.786571 0.904756 0.006370
C146  C     C_R   0.809137 0.212719 0.096316 0.027272
C147  C     C_R   0.809969 0.786571 0.095244 0.006370
C148  C     C_R   0.190863 0.212718 0.903684 0.027272
C149  C     C_R   0.690031 0.286571 0.904756 0.006372
C150  C     C_R   0.309137 0.712718 0.096316 0.027272
C151  C     C_R   0.309969 0.286571 0.095244 0.006369
C152  C     C_R   0.690863 0.712719 0.903684 0.027271
C153  C     C_R   0.196941 0.631765 0.526515 0.552771
C154  C     C_R   0.557277 0.876310 0.474851 -0.146168
C155  C     C_R   0.800237 0.369047 0.483599 0.556265
C156  C     C_R   0.803059 0.631765 0.473485 0.552772
C157  C     C_R   0.199763 0.369047 0.516401 0.556265
C158  C     C_R   0.696941 0.131765 0.526515 0.552771
C159  C     C_R   0.300237 0.869047 0.483599 0.556265
C160  C     C_R   0.303059 0.131765 0.473485 0.552772
C161  C     C_R   0.699762 0.869047 0.516401 0.556264
C162  C     C_R   0.926392 0.903325 0.066728 0.554449
C163  C     C_R   0.073591 0.096759 0.933327 0.557297
C164  C     C_R   0.073608 0.903325 0.933272 0.554449
Cu1   Cu    Cu3+1 0.209920 0.785290 0.495070 0.899237
Cu2   Cu    Cu3+1 0.504760 0.500000 0.075850 0.915756
Cu3   Cu    Cu3+1 0.995240 0.000000 0.924150 0.915756
Cu4   Cu    Cu3+1 0.004760 0.000000 0.075850 0.915756
Cu5   Cu    Cu3+1 0.790080 0.214710 0.504930 0.915598
Cu6   Cu    Cu3+1 0.790080 0.785290 0.504930 0.899237
Cu7   Cu    Cu3+1 0.209920 0.214710 0.495070 0.915597
Cu8   Cu    Cu3+1 0.709920 0.285290 0.495070 0.899237
Cu9   Cu    Cu3+1 0.290080 0.714710 0.504930 0.915597
Cu10  Cu    Cu3+1 0.290080 0.285290 0.504930 0.899239
Cu11  Cu    Cu3+1 0.709920 0.714710 0.495070 0.915597
Cu12  Cu    Cu3+1 0.495240 0.500000 0.924150 0.915756
H1    H     H_    0.229037 0.500008 0.534883 0.158452
H2    H     H_    0.911563 0.673561 0.413927 0.148774
H3    H     H_    0.867900 0.331745 0.560409 0.156171
H4    H     H_    0.088437 0.673561 0.586072 0.148774
H5    H     H_    0.544766 0.828020 0.454456 0.109879
H6    H     H_    0.483865 0.178071 0.450094 0.104675
H7    H     H_    0.455234 0.828020 0.545543 0.109879
H8    H     H_    0.516135 0.178071 0.549905 0.104675
H9    H     H_    0.044766 0.328020 0.454456 0.109879
H10   H     H_    0.983865 0.678071 0.450094 0.104675
H11   H     H_    0.955234 0.328020 0.545543 0.109879
H12   H     H_    0.770963 0.500008 0.465117 0.158452
H13   H     H_    0.016135 0.678071 0.549905 0.104675
H14   H     H_    0.226791 0.875872 0.988675 0.110538
H15   H     H_    0.772638 0.123800 0.010886 0.124952
H16   H     H_    0.773210 0.875872 0.011323 0.110541
H17   H     H_    0.227363 0.123799 0.989113 0.124952
H18   H     H_    0.726791 0.375872 0.988675 0.110538
H19   H     H_    0.272638 0.623799 0.010886 0.124950
H20   H     H_    0.273208 0.375872 0.011326 0.110536
H21   H     H_    0.727361 0.623800 0.989115 0.124952
H22   H     H_    0.130757 0.848137 0.012437 0.123759
H23   H     H_    0.729037 0.000008 0.534883 0.158452
H24   H     H_    0.868892 0.152243 0.987686 0.131628
H25   H     H_    0.869243 0.848138 0.987563 0.123759
H26   H     H_    0.131109 0.152242 0.012314 0.131628
H27   H     H_    0.630757 0.348137 0.012437 0.123759
H28   H     H_    0.368891 0.652242 0.987686 0.131628
H29   H     H_    0.369243 0.348137 0.987563 0.123759
H30   H     H_    0.631108 0.652244 0.012315 0.131628
H31   H     H_    0.116690 0.847513 0.768777 0.154444
H32   H     H_    0.883738 0.153069 0.230823 0.156475
H33   H     H_    0.883310 0.847513 0.231223 0.154444
H34   H     H_    0.270963 0.000008 0.465117 0.158452
H35   H     H_    0.116262 0.153069 0.769177 0.156475
H36   H     H_    0.616690 0.347513 0.768777 0.154444
H37   H     H_    0.383738 0.653070 0.230823 0.156475
H38   H     H_    0.383310 0.347513 0.231223 0.154444
H39   H     H_    0.616262 0.653069 0.769177 0.156475
H40   H     H_    0.244646 0.732538 0.784487 0.160042
H41   H     H_    0.753228 0.263143 0.218223 0.145359
H42   H     H_    0.755354 0.732539 0.215513 0.160042
H43   H     H_    0.246772 0.263143 0.781778 0.145362
H44   H     H_    0.744645 0.232538 0.784487 0.160041
H45   H     H_    0.632100 0.831745 0.439591 0.156171
H46   H     H_    0.253228 0.763143 0.218223 0.145359
H47   H     H_    0.255354 0.232538 0.215513 0.160041
H48   H     H_    0.746772 0.763142 0.781777 0.145356
H49   H     H_    0.132664 0.666610 0.004174 0.140702
H50   H     H_    0.159930 0.609711 0.060660 0.126250
H51   H     H_    0.167412 0.510117 0.961893 0.176819
H52   H     H_    0.099948 0.544823 0.012673 0.105451
H53   H     H_    0.145201 0.565918 0.897334 0.160898
H54   H     H_    0.698011 0.375901 0.168540 0.112206
H55   H     H_    0.736633 0.448290 0.095446 0.146675
H56   H     H_    0.411563 0.173561 0.413927 0.148774
H57   H     H_    0.787337 0.458821 0.185733 0.166528
H58   H     H_    0.716090 0.473535 0.250896 0.108672
H59   H     H_    0.745239 0.389867 0.259226 0.158651
H60   H     H_    0.867336 0.666609 0.995829 0.140703
H61   H     H_    0.840069 0.609714 0.939339 0.126250
H62   H     H_    0.832585 0.510116 0.038103 0.176823
H63   H     H_    0.900050 0.544820 0.987324 0.105451
H64   H     H_    0.854797 0.565913 0.102664 0.160896
H65   H     H_    0.301987 0.375911 0.831471 0.112207
H66   H     H_    0.263358 0.448296 0.904566 0.146678
H67   H     H_    0.367900 0.831745 0.560409 0.156171
H68   H     H_    0.212659 0.458814 0.814266 0.166531
H69   H     H_    0.283904 0.473545 0.749117 0.108677
H70   H     H_    0.254770 0.389871 0.740772 0.158643
H71   H     H_    0.632663 0.166608 0.004179 0.140702
H72   H     H_    0.659933 0.109712 0.060664 0.126250
H73   H     H_    0.667415 0.010115 0.961898 0.176827
H74   H     H_    0.599950 0.044817 0.012684 0.105451
H75   H     H_    0.645199 0.065913 0.897343 0.160896
H76   H     H_    0.198012 0.875902 0.168539 0.112205
H77   H     H_    0.236634 0.948291 0.095444 0.146675
H78   H     H_    0.588437 0.173561 0.586072 0.148774
H79   H     H_    0.287338 0.958820 0.185733 0.166529
H80   H     H_    0.216090 0.973536 0.250895 0.108672
H81   H     H_    0.245238 0.889867 0.259226 0.158650
H82   H     H_    0.367337 0.166609 0.995829 0.140706
H83   H     H_    0.340071 0.109716 0.939338 0.126252
H84   H     H_    0.332587 0.010117 0.038101 0.176824
H85   H     H_    0.400052 0.044820 0.987320 0.105451
H86   H     H_    0.354800 0.065913 0.102660 0.160897
H87   H     H_    0.801990 0.875888 0.831445 0.112207
H88   H     H_    0.763379 0.948284 0.904538 0.146672
H89   H     H_    0.132100 0.331745 0.439591 0.156171
H90   H     H_    0.712669 0.958832 0.814267 0.166524
H91   H     H_    0.783918 0.973520 0.749085 0.108663
H92   H     H_    0.754749 0.889863 0.740779 0.158663
O1    O     O_R   0.255040 0.869590 0.478480 -0.509896
O2    O     O_R   0.817950 0.203450 0.375560 -0.504434
O3    O     O_R   0.817950 0.796550 0.375560 -0.515805
O4    O     O_R   0.182050 0.203450 0.624440 -0.504434
O5    O     O_R   0.682050 0.296550 0.624440 -0.515804
O6    O     O_R   0.317950 0.703450 0.375560 -0.504434
O7    O     O_R   0.317950 0.296550 0.375560 -0.515805
O8    O     O_R   0.682050 0.703450 0.624440 -0.504433
O9    O     O_R   0.250530 0.763330 0.367210 -0.518273
O10   O     O_R   0.749470 0.236670 0.632790 -0.519434
O11   O     O_R   0.749470 0.763330 0.632790 -0.518274
O12   O     O_R   0.744960 0.130410 0.521520 -0.506405
O13   O     O_R   0.250530 0.236670 0.367210 -0.519435
O14   O     O_R   0.750530 0.263330 0.367210 -0.518273
O15   O     O_R   0.249470 0.736670 0.632790 -0.519434
O16   O     O_R   0.249470 0.263330 0.632790 -0.518271
O17   O     O_R   0.750530 0.736670 0.367210 -0.519435
O18   O     O_R   0.177260 0.690030 0.513710 -0.518672
O19   O     O_R   0.822740 0.309970 0.486290 -0.519924
O20   O     O_R   0.822740 0.690030 0.486290 -0.518672
O21   O     O_R   0.177260 0.309970 0.513710 -0.519924
O22   O     O_R   0.677260 0.190030 0.513710 -0.518672
O23   O     O_R   0.744960 0.869590 0.521520 -0.509896
O24   O     O_R   0.322740 0.809970 0.486290 -0.519924
O25   O     O_R   0.322740 0.190030 0.486290 -0.518672
O26   O     O_R   0.677260 0.809970 0.513710 -0.519924
O27   O     O_R   0.051640 0.926880 0.885090 -0.512986
O28   O     O_R   0.948360 0.073120 0.114910 -0.510144
O29   O     O_R   0.948360 0.926880 0.114910 -0.512985
O30   O     O_R   0.051640 0.073120 0.885090 -0.510144
O31   O     O_R   0.551640 0.426880 0.885090 -0.512985
O32   O     O_R   0.448360 0.573120 0.114910 -0.510145
O33   O     O_R   0.448360 0.426880 0.114910 -0.512985
O34   O     O_R   0.255040 0.130410 0.478480 -0.506405
O35   O     O_R   0.551640 0.573120 0.885090 -0.510145
O36   O     O_R   0.940620 0.926560 0.986760 -0.517020
O37   O     O_R   0.059380 0.073440 0.013240 -0.513774
O38   O     O_R   0.059380 0.926560 0.013240 -0.517020
O39   O     O_R   0.940620 0.073440 0.986760 -0.513774
O40   O     O_R   0.440620 0.426560 0.986760 -0.517020
O41   O     O_R   0.559380 0.573440 0.013240 -0.513774
O42   O     O_R   0.559380 0.426560 0.013240 -0.517020
O43   O     O_R   0.440620 0.573440 0.986760 -0.513774
O44   O     O_3   0.213549 0.640435 0.929830 -0.564492
O45   O     O_R   0.755040 0.369590 0.478480 -0.509896
O46   O     O_3   0.780449 0.356619 0.084436 -0.557496
O47   O     O_3   0.786450 0.640435 0.070171 -0.564491
O48   O     O_3   0.219550 0.356618 0.915565 -0.557497
O49   O     O_3   0.713548 0.140435 0.929831 -0.564489
O50   O     O_3   0.280449 0.856619 0.084436 -0.557495
O51   O     O_3   0.286452 0.140435 0.070169 -0.564491
O52   O     O_3   0.719553 0.856620 0.915562 -0.557495
O53   O     O_R   0.244960 0.630410 0.521520 -0.506405
O54   O     O_R   0.244960 0.369590 0.521520 -0.509895
O55   O     O_R   0.755040 0.630410 0.478480 -0.506405
O56   O     O_R   0.182050 0.796550 0.624440 -0.515805

loop_
_geom_bond_atom_site_label_1
_geom_bond_atom_site_label_2
_ccdc_geom_bond_type
C28   C47   A    
C82   C94   A    
C24   H8    S    
C55   H4    S    
C36   C42   A    
C74   C83   A    
C34   C161  S    
C79   C87   A    
Cu8   O5    S    
Cu2   O41   S    
C124  C133  A    
C96   H15   S    
C3    O28   A    
C16   C35   A    
C81   C95   A    
Cu7   O34   S    
C63   H65   S    
C37   C42   A    
C131  C140  A    
C140  H44   S    
C113  C122  A    
C10   C20   A    
C91   C100  A    
C74   C97   A    
C117  C126  A    
C84   O46   S    
C78   C148  S    
C79   C149  S    
C119  C128  A    
C24   C51   A    
C67   O50   S    
C59   C60   S    
C8    C16   A    
C102  C111  A    
C109  C118  A    
C77   O5    A    
C137  C146  A    
C127  C136  A    
C108  H30   S    
C112  C120  A    
C5    C117  S    
Cu6   O23   S    
C82   C91   A    
C120  C129  A    
C98   H17   S    
C29   C45   A    
C103  C112  A    
C142  C151  A    
C163  O37   A    
C89   O50   S    
C103  H25   S    
C1    O9    A    
C91   O52   S    
C121  O56   A    
C46   H10   S    
C64   H68   S    
C81   C90   A    
C13   C18   A    
C70   H83   S    
C83   O44   S    
C158  O22   A    
C14   C57   A    
C72   H87   S    
C2    C19   A    
C60   H57   S    
C25   C55   A    
C88   C135  S    
C72   C73   S    
C132  O4    A    
C76   C100  A    
C106  C115  A    
C9    C15   A    
Cu8   O22   S    
C68   H13   S    
C46   C53   A    
C84   C93   A    
Cu9   O53   S    
C88   O11   A    
C57   H11   S    
C162  O36   A    
C86   C95   A    
C64   H70   S    
C137  H41   S    
C51   H78   S    
C76   C85   A    
C164  O27   A    
C110  C128  S    
C159  O1    A    
C66   H74   S    
C11   C18   A    
C95   H20   S    
C106  C150  A    
Cu10  O25   S    
Cu12  O31   S    
C74   C145  S    
C93   H18   S    
C59   H55   S    
C25   C43   A    
C31   C156  S    
C103  C147  A    
C54   H3    S    
C12   C68   A    
C101  C145  A    
C143  O3    A    
C90   O51   S    
C33   C153  S    
C75   C84   A    
Cu12  O40   S    
C111  C119  A    
Cu11  O17   S    
C159  O24   A    
C6    C114  S    
C26   C45   A    
C72   O52   S    
C29   C38   A    
Cu3   O39   S    
C107  C151  A    
C71   H86   S    
C52   H89   S    
Cu5   O2    S    
Cu7   O4    S    
C100  H16   S    
C60   H59   S    
C1    C133  S    
C141  C150  A    
Cu10  O54   S    
C124  H37   S    
C75   C146  S    
C139  C148  A    
C107  H29   S    
Cu4   O37   S    
C38   C41   A    
C50   H67   S    
C73   H90   S    
C110  O2    A    
C81   C151  S    
C99   C134  S    
C77   O10   A    
C73   H92   S    
C113  C163  S    
C158  O12   A    
C70   H82   S    
C8    C12   A    
C123  H36   S    
C10   C45   A    
C5    O35   A    
C1    O6    A    
C4    O40   A    
C114  C123  A    
C5    O41   A    
Cu9   O24   S    
C116  C125  A    
C118  C127  A    
C142  H47   S    
C153  O18   A    
C69   H81   S    
C29   C51   A    
C27   C47   A    
C48   C154  A    
C97   H14   S    
C108  C117  A    
C65   H72   S    
Cu2   O32   S    
C110  O14   A    
Cu10  O16   S    
Cu2   O42   S    
C94   H21   S    
C37   C159  S    
C49   H56   S    
C118  H31   S    
C144  C152  A    
C160  O25   A    
Cu9   O15   S    
C28   C37   A    
Cu7   O21   S    
C56   C58   S    
C30   C39   A    
C61   C62   S    
C107  C116  A    
C104  C113  A    
C139  H43   S    
Cu6   O3    S    
Cu11  O26   S    
Cu5   O10   S    
C121  O15   A    
C15   C46   A    
C160  O34   A    
C140  C149  A    
C58   H51   S    
C27   C49   A    
C69   H80   S    
C25   C33   A    
C54   C57   A    
C125  C134  A    
C30   C157  S    
C104  C148  A    
C11   C47   A    
C8    C43   A    
C41   H23   S    
C55   C68   A    
C58   H52   S    
C7    O32   A    
C11   C19   A    
Cu1   O1    S    
C56   H49   S    
C161  O23   A    
C121  C127  S    
C105  H27   S    
C101  C109  A    
C154  H5    S    
C62   H64   S    
C31   C40   A    
C80   C89   A    
C56   O44   S    
C108  C152  A    
C161  O26   A    
C3    C111  S    
C13   H7    S    
Cu12  O43   S    
C70   C71   S    
C42   H34   S    
C26   C48   A    
C67   H76   S    
C34   C41   A    
C130  C139  A    
C39   H1    S    
C65   O49   S    
C75   C96   A    
Cu6   Cu11  S    
Cu7   Cu10  S    
C72   H88   S    
C60   H58   S    
C38   C158  S    
C59   O46   S    
Cu3   Cu4   S    
C99   O7    A    
C63   H66   S    
C23   C44   A    
C130  C132  S    
C9    C14   A    
C102  H24   S    
C134  C142  A    
C125  H38   S    
Cu10  O7    S    
C12   C15   A    
C7    O43   A    
C87   O49   S    
Cu5   O12   S    
Cu6   O11   S    
C162  O29   A    
C40   H12   S    
C132  O16   A    
C126  C135  A    
C143  O17   A    
Cu3   O30   S    
C156  O55   A    
C112  C162  S    
C120  H33   S    
C66   H75   S    
C115  C124  A    
C123  C131  A    
Cu5   O19   S    
C4    C116  S    
Cu6   O20   S    
Cu1   O9    S    
C109  C164  S    
C85   O47   S    
C86   O48   S    
C129  C143  S    
C27   C36   A    
C21   C30   A    
C133  C141  A    
C62   H62   S    
C6    O31   A    
C23   C32   A    
C6    O42   A    
C13   C50   A    
C62   H63   S    
C106  H28   S    
C61   O47   S    
C35   C52   A    
C122  H35   S    
C82   C152  S    
C71   H85   S    
C80   C92   A    
C92   H19   S    
C53   H2    S    
C80   C150  S    
C83   C92   A    
C33   C39   A    
C20   C154  A    
Cu4   O38   S    
C70   O51   S    
C79   C93   A    
C77   C131  S    
C48   H45   S    
C10   C17   A    
Cu1   Cu9   S    
C157  O54   A    
C63   O48   S    
C2    H6    S    
C7    C115  S    
Cu11  O8    S    
C73   H91   S    
C21   C43   A    
C28   C50   A    
C26   C34   A    
C22   C44   A    
C64   H69   S    
C76   C147  S    
Cu3   O36   S    
C78   C98   A    
C136  C145  A    
C141  H46   S    
Cu8   O14   S    
C78   C86   A    
C65   H71   S    
C66   H73   S    
C22   C53   A    
C67   H77   S    
Cu3   O27   S    
Cu4   O28   S    
C17   C24   A    
C22   C31   A    
C129  C138  A    
Cu1   O56   S    
C157  O21   A    
C105  C114  A    
C163  O30   A    
C101  H22   S    
Cu2   O33   S    
C71   H84   S    
C63   C64   S    
C89   C97   A    
C67   C69   S    
C104  H26   S    
Cu1   O18   S    
C128  C137  A    
C2    C49   A    
C32   C155  S    
C85   C94   A    
C138  C147  A    
C35   H9    S    
C87   C96   A    
Cu11  O55   S    
C135  C144  A    
Cu5   Cu8   S    
C14   C16   A    
C155  O19   A    
C99   O13   A    
C156  O20   A    
C153  O53   A    
C69   H79   S    
C23   C54   A    
C155  O45   A    
C9    C44   A    
C119  H32   S    
C105  C149  A    
Cu2   Cu12  S    
C56   H50   S    
Cu8   O45   S    
Cu12  O35   S    
C61   H61   S    
C88   O8    A    
C58   H53   S    
C102  C146  A    
Cu4   O29   S    
C17   C19   A    
C90   C98   A    
C18   C20   A    
C4    O33   A    
C32   C40   A    
C144  H48   S    
C126  H39   S    
C36   C160  S    
C164  O38   A    
C138  H42   S    
C65   C66   S    
Cu9   O6    S    
C61   H60   S    
C3    O39   A    
Cu7   O13   S    
C59   H54   S    
C122  C130  A    
C21   C52   A    
C136  H40   S    
