data_mof_unit_42131.cif
_audit_creation_date              2012-10-26T21:15:29-0400
_audit_creation_method            fapswitch 2.2
_symmetry_space_group_name_H-M    P1
_symmetry_Int_Tables_number       1
_space_group_crystal_system       triclinic
_cell_length_a                    10.629922
_cell_length_b                    10.938324
_cell_length_c                    9.801515
_cell_angle_alpha                 91.982198
_cell_angle_beta                  89.960171
_cell_angle_gamma                 90.870982
_cell_volume                      1138.84319796

loop_
_atom_site_label
_atom_site_type_symbol
_atom_type_description
_atom_site_fract_x
_atom_site_fract_y
_atom_site_fract_z
_atom_type_partial_charge
C1    C     C_R   0.503582 0.266390 0.497518 0.531540
C2    C     C_2   0.435519 0.421733 0.072882 0.166435
C3    C     C_R   0.259941 0.499778 0.499874 0.537216
C4    C     C_R   0.488880 0.734249 0.502842 0.554174
C5    C     C_R   0.740176 0.499196 0.500094 0.551492
C6    C     C_3   0.044238 0.587611 0.588924 -0.118748
C7    C     C_3   0.960855 0.476617 0.623857 0.271055
C8    C     C_3   0.877090 0.498190 0.500338 0.076965
C9    C     C_3   0.960984 0.607305 0.462753 -0.036871
C10   C     C_3   0.042550 0.521261 0.372423 -0.102568
C11   C     C_3   0.007817 0.451809 0.850611 -0.014750
C12   C     C_3   0.958432 0.411692 0.412673 -0.040731
C13   C     C_3   0.964007 0.381180 0.972920 -0.380930
C14   C     C_3   0.700197 0.134497 0.612765 -0.000031
C15   C     C_3   0.815045 0.057744 0.639823 -0.386810
C16   C     C_3   0.446498 0.617977 0.886177 -0.169779
C17   C     C_3   0.320802 0.355145 0.122201 -0.393277
C18   C     C_3   0.648464 0.644244 0.128027 0.058090
C19   C     C_3   0.759355 0.677759 0.037527 -0.410488
C20   C     C_3   0.916607 0.732388 0.422070 -0.408945
C21   C     C_3   0.909241 0.310761 0.315515 -0.405916
C22   C     C_3   0.448488 0.894473 0.261628 -0.375376
C23   C     C_3   0.041867 0.387941 0.537459 -0.122494
C24   C     C_3   0.428776 0.910849 0.663146 -0.382267
C25   C     C_3   0.286442 0.117436 0.405702 -0.441378
C26   C     C_3   0.123527 0.499352 0.499403 -0.012009
C27   C     C_2   0.434099 0.936300 0.408646 0.046910
C28   C     C_2   0.452803 0.863948 0.516776 0.038029
C29   C     C_2   0.415911 0.067813 0.433352 0.005743
C30   C     C_2   0.513000 0.134133 0.488062 0.267578
C31   C     C_2   0.466767 0.407134 0.921706 0.091598
Cu1   Cu    Cu3+1 0.500030 0.500020 0.638630 0.914745
Cu2   Cu    Cu3+1 0.499970 0.499980 0.361370 0.940822
H1    H     H_    0.459583 0.316272 0.874337 0.095965
H2    H     H_    0.644685 0.142819 0.709015 0.139700
H3    H     H_    0.733881 0.226428 0.582484 0.160732
H4    H     H_    0.872971 0.048144 0.545788 0.149831
H5    H     H_    0.873005 0.102766 0.721921 0.105569
H6    H     H_    0.785144 0.965436 0.672298 0.148468
H7    H     H_    0.369213 0.638759 0.815559 0.140775
H8    H     H_    0.401080 0.626284 0.987402 0.064739
H9    H     H_    0.520021 0.690094 0.877136 0.120174
H10   H     H_    0.279085 0.296009 0.039100 0.063048
H11   H     H_    0.344421 0.295782 0.206641 0.171162
H12   H     H_    0.081977 0.659488 0.661180 0.090543
H13   H     H_    0.248552 0.421893 0.154802 0.131931
H14   H     H_    0.678218 0.662527 0.234323 0.186063
H15   H     H_    0.569543 0.705044 0.105655 0.100373
H16   H     H_    0.739265 0.651546 0.929184 0.194295
H17   H     H_    0.777951 0.777902 0.046205 0.080668
H18   H     H_    0.844850 0.629826 0.070501 0.140020
H19   H     H_    0.998374 0.796438 0.417668 0.127298
H20   H     H_    0.872039 0.725154 0.320107 0.124425
H21   H     H_    0.847867 0.768268 0.498167 0.139310
H22   H     H_    0.989367 0.265898 0.262448 0.119978
H23   H     H_    0.077458 0.540619 0.268522 0.110927
H24   H     H_    0.856388 0.241514 0.373468 0.145872
H25   H     H_    0.845477 0.349872 0.239619 0.171928
H26   H     H_    0.427258 0.969147 0.191563 0.111647
H27   H     H_    0.547778 0.869290 0.243772 0.135225
H28   H     H_    0.382815 0.817164 0.236158 0.132917
H29   H     H_    0.360163 0.849157 0.712938 0.103886
H30   H     H_    0.518255 0.911839 0.721617 0.139453
H31   H     H_    0.387842 0.003247 0.672525 0.115820
H32   H     H_    0.215459 0.065182 0.464122 0.120028
H33   H     H_    0.276494 0.215320 0.436190 0.128971
H34   H     H_    0.077107 0.298157 0.569016 0.095436
H35   H     H_    0.264069 0.105493 0.295470 0.122714
H36   H     H_    0.028854 0.548059 0.884415 0.123390
H37   H     H_    0.095883 0.408726 0.811656 0.128863
H38   H     H_    0.951916 0.282709 0.943623 0.144764
H39   H     H_    0.034820 0.391030 0.055725 0.082786
H40   H     H_    0.872689 0.416817 0.010434 0.194636
N1    N     N_2   0.498620 0.498660 0.846910 -0.211681
N2    N     N_2   0.498590 0.498630 0.153040 -0.048856
O1    O     O_R   0.500020 0.321960 0.617040 -0.536575
O2    O     O_3   0.628024 0.076601 0.507445 -0.587661
O3    O     O_3   0.615859 0.520033 0.103779 -0.464928
O4    O     O_R   0.499980 0.321920 0.382900 -0.507090
O5    O     O_R   0.316870 0.499990 0.617050 -0.528988
O6    O     O_R   0.316830 0.499950 0.382910 -0.520763
O7    O     O_R   0.500020 0.678080 0.617100 -0.524621
O8    O     O_R   0.499980 0.678040 0.382960 -0.532032
O9    O     O_R   0.683170 0.500050 0.617090 -0.452851
O10   O     O_R   0.683130 0.500010 0.382950 -0.494546
O11   O     O_3   0.910715 0.449405 0.752571 -0.542760

loop_
_geom_bond_atom_site_label_1
_geom_bond_atom_site_label_2
_ccdc_geom_bond_type
C6    H12   S    
C27   C29   S    
C22   H27   S    
C18   H14   S    
C6    C9    S    
C11   H37   S    
C7    C8    S    
C12   C23   S    
C16   N1    S    
C14   H3    S    
C23   C26   S    
C7    O11   S    
C11   O11   S    
C18   C19   S    
C14   O2    S    
C23   H34   S    
Cu2   O10   S    
C15   H4    S    
C30   O2    S    
Cu2   N2    S    
C8    C9    S    
C3    O6    A    
C10   H23   S    
C9    C10   S    
C18   O3    S    
C5    O10   A    
C10   C26   S    
C24   H31   S    
C2    C17   S    
C25   H35   S    
C3    O5    A    
C4    C28   S    
C25   C29   S    
Cu1   O9    S    
C25   H32   S    
C17   H13   S    
C20   H21   S    
C14   H2    S    
C21   H22   S    
C5    O9    A    
Cu2   O4    S    
C31   N1    D    
C13   H38   S    
C12   C21   S    
C2    C31   S    
C17   H10   S    
C15   H5    S    
C21   H24   S    
C29   C30   D    
Cu1   O5    S    
C19   H16   S    
C9    C20   S    
C8    C12   S    
C31   H1    S    
Cu2   O8    S    
C15   H6    S    
C10   C12   S    
C16   H7    S    
C13   H40   S    
C24   H30   S    
C22   C27   S    
C1    O4    A    
C16   H9    S    
C22   H26   S    
C24   H29   S    
C1    O1    A    
C3    C26   S    
C25   H33   S    
C24   C28   S    
C20   H20   S    
C18   H15   S    
Cu1   O1    S    
C5    C8    S    
C11   H36   S    
C6    C7    S    
C13   H39   S    
Cu1   O7    S    
Cu1   Cu2   S    
C17   H11   S    
C21   H25   S    
C20   H19   S    
C22   H28   S    
Cu1   N1    S    
C11   C13   S    
C19   H17   S    
C6    C26   S    
C4    O8    A    
C7    C23   S    
C1    C30   S    
N2    O3    S    
C19   H18   S    
C4    O7    A    
C27   C28   D    
C14   C15   S    
Cu2   O6    S    
C16   H8    S    
C2    N2    D    
