data_mof_unit_14121.cif
_audit_creation_date              2012-12-11T14:31:11-0500
_audit_creation_method            fapswitch 2.2
_symmetry_space_group_name_H-M    P1
_symmetry_Int_Tables_number       1
_space_group_crystal_system       triclinic
_cell_length_a                    6.898187
_cell_length_b                    14.428397
_cell_length_c                    16.514526
_cell_angle_alpha                 89.975081
_cell_angle_beta                  89.731483
_cell_angle_gamma                 89.742731
_cell_volume                      1643.65238894

loop_
_atom_site_label
_atom_site_type_symbol
_atom_type_description
_atom_site_fract_x
_atom_site_fract_y
_atom_site_fract_z
_atom_type_partial_charge
O1    O     O_R   0.469910 0.836130 0.163900 -0.569634
O2    O     O_R   0.530090 0.163870 0.836100 -0.569635
O3    O     O_R   0.530090 0.163870 0.663900 -0.567344
O4    O     O_R   0.469910 0.836130 0.336100 -0.567344
O5    O     O_R   0.969910 0.663870 0.336100 -0.568504
O6    O     O_R   0.030090 0.336130 0.663900 -0.568505
O7    O     O_R   0.030090 0.336130 0.836100 -0.562123
O8    O     O_R   0.969910 0.663870 0.163900 -0.562124
O9    O     O_R   0.140100 0.847470 0.335520 -0.513625
O10   O     O_R   0.859900 0.152530 0.664480 -0.513625
O11   O     O_R   0.859900 0.152530 0.835520 -0.510456
O12   O     O_R   0.140100 0.847470 0.164480 -0.510460
O13   O     O_R   0.640100 0.652530 0.164480 -0.541903
O14   O     O_R   0.359900 0.347470 0.835520 -0.541903
O15   O     O_R   0.359900 0.347470 0.664480 -0.515654
O16   O     O_R   0.640100 0.652530 0.335520 -0.515653
C1    C     C_R   0.310828 0.869559 0.363646 0.632442
C2    C     C_R   0.689172 0.130441 0.636354 0.632443
C3    C     C_R   0.689031 0.130910 0.863953 0.636497
C4    C     C_R   0.310969 0.869090 0.136047 0.636487
C5    C     C_R   0.811563 0.630886 0.136292 0.636856
C6    C     C_R   0.188437 0.369114 0.863708 0.636863
C7    C     C_R   0.188880 0.369540 0.636473 0.623266
C8    C     C_R   0.811120 0.630460 0.363527 0.623269
O17   O     O_3   0.303300 0.689750 0.250000 -0.385543
O18   O     O_3   0.696700 0.310250 0.750000 -0.385545
O19   O     O_3   0.803300 0.810250 0.250000 -0.371984
O20   O     O_3   0.196700 0.189750 0.750000 -0.371982
V1    V     V_3+5 0.028490 0.761170 0.250000 1.436911
V2    V     V_3+5 0.971510 0.238830 0.750000 1.436923
V3    V     V_3+5 0.528490 0.738830 0.250000 1.396031
V4    V     V_3+5 0.471510 0.261170 0.750000 1.396035
C9    C     C_2   0.826215 0.562025 0.430224 0.379193
C10   C     C_2   0.173785 0.437975 0.569776 0.379194
C11   C     C_2   0.170215 0.422223 0.940092 0.337999
C12   C     C_2   0.829784 0.577778 0.059907 0.338002
C13   C     C_2   0.326126 0.939295 0.070672 0.402523
C14   C     C_2   0.673875 0.060704 0.929326 0.402523
C15   C     C_2   0.674145 0.061781 0.569674 0.381896
C16   C     C_2   0.325855 0.938219 0.430326 0.381895
C17   C     C_2   0.997846 0.535080 0.466160 0.134904
C18   C     C_2   0.002154 0.464920 0.533840 0.134905
C19   C     C_2   0.013966 0.478360 0.958353 0.179494
C20   C     C_2   0.986034 0.521641 0.041646 0.179494
C21   C     C_2   0.496726 0.962660 0.031892 0.132701
C22   C     C_2   0.503280 0.037345 0.968113 0.132724
C23   C     C_2   0.502351 0.035275 0.533735 0.136070
C24   C     C_2   0.497649 0.964724 0.466265 0.136069
N1    N     N_2   0.820831 0.427073 0.559044 -0.448532
H1    H     H_    0.783192 0.433507 0.619229 0.278712
C25   C     C_3   0.763064 0.342729 0.518564 -0.305966
H2    H     H_    0.859971 0.284554 0.535241 0.112794
H3    H     H_    0.767418 0.352057 0.451811 0.191547
H4    H     H_    0.612880 0.325159 0.536559 0.202635
N2    N     N_2   0.179169 0.572927 0.440956 -0.448532
H5    H     H_    0.216808 0.566493 0.380771 0.278712
C26   C     C_3   0.236936 0.657271 0.481436 -0.305965
H6    H     H_    0.140029 0.715446 0.464759 0.112795
H7    H     H_    0.387120 0.674841 0.463441 0.202634
H8    H     H_    0.232582 0.647943 0.548189 0.191548
N3    N     N_2   0.126921 0.501908 0.102385 -0.513145
H9    H     H_    0.075708 0.497174 0.161010 0.227815
C27   C     C_3   0.305914 0.553227 0.094704 -0.274505
H10   H     H_    0.284291 0.626954 0.110328 0.175796
H11   H     H_    0.361662 0.552228 0.031743 0.237769
H12   H     H_    0.415880 0.521461 0.134996 0.190944
N4    N     N_2   0.873078 0.498093 0.897615 -0.513143
H13   H     H_    0.924291 0.502826 0.838990 0.227815
C28   C     C_3   0.694086 0.446774 0.905296 -0.274510
H14   H     H_    0.715708 0.373047 0.889672 0.175793
H15   H     H_    0.584120 0.478540 0.865003 0.190946
H16   H     H_    0.638337 0.447774 0.968256 0.237769
N5    N     N_2   0.325721 0.084087 0.950214 -0.469232
H17   H     H_    0.275008 0.079833 0.891769 0.289654
C29   C     C_3   0.293716 0.170716 0.992365 -0.277956
H18   H     H_    0.404629 0.222378 0.974504 0.170588
H19   H     H_    0.300917 0.159643 0.058853 0.195876
H20   H     H_    0.147662 0.198249 0.977366 0.197259
N6    N     N_2   0.674293 0.915931 0.049802 -0.469227
H21   H     H_    0.724981 0.920191 0.108251 0.289634
C30   C     C_3   0.706339 0.829301 0.007657 -0.277873
H22   H     H_    0.595424 0.777636 0.025507 0.170568
H23   H     H_    0.852388 0.801774 0.022672 0.197242
H24   H     H_    0.699178 0.840372 0.941168 0.195901
N7    N     N_2   0.678967 0.925971 0.441313 -0.448681
H25   H     H_    0.716893 0.932110 0.381150 0.281510
C31   C     C_3   0.736175 0.841403 0.481999 -0.311061
H26   H     H_    0.638714 0.783767 0.465532 0.114431
H27   H     H_    0.732083 0.850967 0.548725 0.193318
H28   H     H_    0.886194 0.822941 0.463986 0.199993
N8    N     N_2   0.321033 0.074029 0.558687 -0.448680
H29   H     H_    0.283107 0.067889 0.618850 0.281511
C32   C     C_3   0.263825 0.158597 0.518001 -0.311065
H30   H     H_    0.361286 0.216233 0.534468 0.114431
H31   H     H_    0.113805 0.177059 0.536014 0.199993
H32   H     H_    0.267917 0.149033 0.451275 0.193317
F1    F     F_    0.346100 0.472217 0.543757 -0.612289
F2    F     F_    0.653900 0.527783 0.456243 -0.612289
F3    F     F_    0.700291 0.602825 0.002231 -0.722828
F4    F     F_    0.299710 0.397177 0.997769 -0.722835
F5    F     F_    0.844180 0.019505 0.949926 -0.606898
F6    F     F_    0.155818 0.980485 0.050064 -0.606886
F7    F     F_    0.153588 0.973321 0.456189 -0.609608
F8    F     F_    0.846412 0.026679 0.543810 -0.609608

loop_
_geom_bond_atom_site_label_1
_geom_bond_atom_site_label_2
_ccdc_geom_bond_type
O17   V3    S    
N2    H5    S    
C27   H11   S    
O18   V4    S    
C32   H30   S    
O12   V1    S    
O19   V1    S    
C17   C18   S    
C10   C18   D    
C2    C15   S    
C30   H22   S    
C15   F8    S    
C5    C12   S    
C21   C22   S    
O16   V3    S    
C6    C11   S    
O11   C3    A    
O8    V1    S    
C14   F5    S    
C13   F6    S    
C26   H7    S    
O1    V3    S    
C10   F1    S    
O3    C2    A    
O2    V4    S    
C9    F2    S    
N5    H17   S    
C28   H15   S    
C17   N2    S    
O11   V2    S    
N1    C25   S    
C11   C19   D    
O9    V1    S    
O15   C7    A    
C27   H12   S    
O16   C8    A    
O7    V2    S    
N5    C29   S    
C28   H14   S    
C30   H23   S    
O5    V1    S    
N7    C31   S    
O17   V1    S    
O19   V3    S    
N4    H13   S    
O20   V4    S    
N6    H21   S    
N8    H29   S    
N6    C30   S    
C26   H8    S    
N7    H25   S    
C25   H2    S    
N4    C28   S    
C1    C16   S    
C28   H16   S    
C29   H18   S    
C19   N4    S    
C3    C14   S    
N8    C32   S    
O10   V2    S    
C23   C24   S    
C7    C10   S    
O12   C4    A    
N3    C27   S    
O8    C5    A    
O13   C5    A    
O3    V4    S    
C21   N6    S    
C29   H19   S    
O4    C1    A    
O9    C1    A    
O6    V2    S    
O18   V2    S    
C32   H32   S    
N2    C26   S    
C19   C20   S    
C12   C20   D    
C13   C21   D    
C11   F4    S    
C30   H24   S    
C15   C23   D    
C16   C24   D    
O1    C4    A    
O2    C3    A    
C23   N8    S    
O13   V3    S    
O14   V4    S    
O15   V4    S    
C20   N3    S    
O7    C6    A    
C8    C9    S    
C25   H4    S    
C9    C17   D    
O14   C6    A    
O20   V2    S    
C16   F7    S    
C4    C13   S    
C26   H6    S    
O5    C8    A    
O10   C2    A    
O6    C7    A    
C12   F3    S    
N3    H9    S    
C29   H20   S    
C14   C22   D    
O4    V3    S    
C18   N1    S    
C27   H10   S    
C31   H26   S    
C32   H31   S    
N1    H1    S    
C31   H28   S    
C31   H27   S    
C24   N7    S    
C25   H3    S    
C22   N5    S    
