data_mof_unit_7001.cif
_audit_creation_date              2013-03-05T15:51:39-0500
_audit_creation_method            fapswitch 2.2
_symmetry_space_group_name_H-M    P1
_symmetry_Int_Tables_number       1
_space_group_crystal_system       triclinic
_cell_length_a                    31.020356
_cell_length_b                    18.702944
_cell_length_c                    25.414052
_cell_angle_alpha                 89.999851
_cell_angle_beta                  144.541199
_cell_angle_gamma                 90.00005
_cell_volume                      8553.55326279

loop_
_atom_site_label
_atom_site_type_symbol
_atom_site_description
_atom_site_fract_x
_atom_site_fract_y
_atom_site_fract_z
_atom_type_partial_charge
Zn1   Zn    Zn3+2 1.000000 0.086750 0.293940 1.042209
Zn2   Zn    Zn3+2 0.000000 0.913250 0.706060 1.016306
Zn3   Zn    Zn3+2 1.000000 0.086750 0.706060 1.054825
Zn4   Zn    Zn3+2 0.000000 0.913250 0.293940 1.027189
Zn5   Zn    Zn3+2 0.500000 0.586750 0.293940 1.054817
Zn6   Zn    Zn3+2 0.500000 0.413250 0.706060 1.027161
Zn7   Zn    Zn3+2 0.500000 0.586750 0.706060 1.042219
Zn8   Zn    Zn3+2 0.500000 0.413250 0.293940 1.016303
Zn9   Zn    Zn3+2 0.913220 1.000000 0.119290 1.149320
Zn10  Zn    Zn3+2 0.086780 0.000000 0.880710 1.150194
Zn11  Zn    Zn3+2 0.413220 0.500000 0.119290 1.150197
Zn12  Zn    Zn3+2 0.586780 0.500000 0.880710 1.149323
Zn13  Zn    Zn3+2 0.086730 1.000000 0.292800 1.163509
Zn14  Zn    Zn3+2 0.913270 1.000000 0.707200 1.163171
Zn15  Zn    Zn3+2 0.586730 0.500000 0.292800 1.163137
Zn16  Zn    Zn3+2 0.413270 0.500000 0.707200 1.163543
O1    O     O_3   0.999990 0.000000 0.249990 -0.548880
O2    O     O_3   0.000010 0.000000 0.750010 -0.549377
O3    O     O_3   0.499990 0.500000 0.249990 -0.549370
O4    O     O_3   0.500010 0.500000 0.750010 -0.548874
O5    O     O_R   0.914560 0.853840 0.195310 -0.644390
O6    O     O_R   0.085440 0.146160 0.804690 -0.632825
O7    O     O_R   0.085440 0.853840 0.804690 -0.645030
O8    O     O_R   0.914560 0.146160 0.195310 -0.637660
O9    O     O_R   0.414560 0.353840 0.195310 -0.645040
O10   O     O_R   0.585440 0.646160 0.804690 -0.637684
O11   O     O_R   0.585440 0.353840 0.804690 -0.644514
O12   O     O_R   0.414560 0.646160 0.195310 -0.632813
O13   O     O_R   0.085440 0.146150 0.366190 -0.633882
O14   O     O_R   0.914560 0.853850 0.633810 -0.651572
O15   O     O_R   0.914560 0.146150 0.633810 -0.638362
O16   O     O_R   0.085440 0.853850 0.366190 -0.655677
O17   O     O_R   0.585440 0.646150 0.366190 -0.638365
O18   O     O_R   0.414560 0.353850 0.633810 -0.655716
O19   O     O_R   0.414560 0.646150 0.633810 -0.633880
O20   O     O_R   0.585440 0.353850 0.366190 -0.651567
O21   O     O_R   0.853820 0.085430 0.073070 -0.594882
O22   O     O_R   0.146180 0.914570 0.926930 -0.586392
O23   O     O_R   0.146180 0.085430 0.926930 -0.594854
O24   O     O_R   0.853820 0.914570 0.073070 -0.587403
O25   O     O_R   0.353820 0.585430 0.073070 -0.594851
O26   O     O_R   0.646180 0.414570 0.926930 -0.587375
O27   O     O_R   0.646180 0.585430 0.926930 -0.594874
O28   O     O_R   0.353820 0.414570 0.073070 -0.586391
O29   O     O_R   0.146150 0.914540 0.365390 -0.549771
O30   O     O_R   0.853850 0.085460 0.634610 -0.580199
O31   O     O_R   0.853850 0.914540 0.634610 -0.550442
O32   O     O_R   0.146150 0.085460 0.365390 -0.580779
O33   O     O_R   0.646150 0.414540 0.365390 -0.550484
O34   O     O_R   0.353850 0.585460 0.634610 -0.580713
O35   O     O_R   0.353850 0.414540 0.634610 -0.549713
O36   O     O_R   0.646150 0.585460 0.365390 -0.580261
O37   O     O_R   0.939240 0.000000 0.071950 -0.556473
O38   O     O_R   0.060760 0.000000 0.928050 -0.556099
O39   O     O_R   0.439240 0.500000 0.071950 -0.556107
O40   O     O_R   0.560760 0.500000 0.928050 -0.556460
O41   O     O_R   0.000020 0.939290 0.367320 -0.621247
O42   O     O_R   0.999980 0.060710 0.632680 -0.611004
O43   O     O_R   0.999980 0.939290 0.632680 -0.646824
O44   O     O_R   0.000020 0.060710 0.367320 -0.638371
O45   O     O_R   0.500020 0.439290 0.367320 -0.646822
O46   O     O_R   0.499980 0.560710 0.632680 -0.638376
O47   O     O_R   0.499980 0.439290 0.632680 -0.621210
O48   O     O_R   0.500020 0.560710 0.367320 -0.611006
O49   O     O_R   0.060680 1.000000 0.193390 -0.558081
O50   O     O_R   0.939320 0.000000 0.806610 -0.558135
O51   O     O_R   0.560680 0.500000 0.193390 -0.558122
O52   O     O_R   0.439320 0.500000 0.806610 -0.558137
C1    C     C_R   0.855493 0.864380 0.109087 0.838243
C2    C     C_R   0.140357 0.140398 0.890965 0.866920
C3    C     C_R   0.144526 0.864413 0.890977 0.831660
C4    C     C_R   0.859645 0.140374 0.109071 0.859180
C5    C     C_R   0.355474 0.364413 0.109023 0.831658
C6    C     C_R   0.640354 0.640374 0.890929 0.859177
C7    C     C_R   0.644506 0.364380 0.890913 0.838159
C8    C     C_R   0.359643 0.640398 0.109034 0.866923
C9    C     C_R   0.137795 0.141908 0.383594 0.839710
C10   C     C_R   0.857331 0.860754 0.607510 0.815369
C11   C     C_R   0.862205 0.141908 0.616407 0.833217
C12   C     C_R   0.142650 0.860738 0.392454 0.811016
C13   C     C_R   0.637795 0.641907 0.383594 0.833164
C14   C     C_R   0.357343 0.360742 0.607534 0.811061
C15   C     C_R   0.362202 0.641907 0.616400 0.839756
C16   C     C_R   0.642665 0.360750 0.392482 0.815361
C17   C     C_R   0.999966 0.985472 0.109346 0.975137
C18   C     C_R   0.000014 0.985443 0.890629 0.975395
C19   C     C_R   0.499985 0.485445 0.109369 0.975406
C20   C     C_R   0.500033 0.485471 0.890652 0.975116
C21   C     C_R   0.999803 0.000081 0.390996 0.881087
C22   C     C_R   0.000210 0.999912 0.609021 0.879374
C23   C     C_R   0.499790 0.499912 0.390979 0.879374
C24   C     C_R   0.500197 0.500081 0.609003 0.881097
C25   C     C_3   0.057835 0.960756 0.539351 -0.254248
C26   C     C_3   0.942221 0.039216 0.460724 -0.263344
C27   C     C_3   0.994052 0.931715 0.511432 -0.180549
C28   C     C_3   0.005985 0.068247 0.488611 -0.188591
C29   C     C_3   0.505949 0.431715 0.488569 -0.180511
C30   C     C_3   0.494014 0.568247 0.511387 -0.188594
C31   C     C_3   0.442166 0.460756 0.460649 -0.254232
C32   C     C_3   0.557778 0.539217 0.539275 -0.263362
C33   C     C_3   0.062734 0.027813 0.578968 0.345572
C34   C     C_3   0.937307 0.972183 0.421089 0.343579
C35   C     C_3   0.562694 0.472184 0.578912 0.343589
C36   C     C_3   0.437265 0.527812 0.421031 0.345568
H1    H     H_    0.105716 0.929734 0.571537 0.211105
H2    H     H_    0.894333 0.070219 0.428536 0.203459
H3    H     H_    0.987971 0.876040 0.519928 0.233436
H4    H     H_    0.012064 0.123920 0.480116 0.228530
H5    H     H_    0.512031 0.376040 0.480075 0.233454
H6    H     H_    0.487933 0.623920 0.519881 0.228530
H7    H     H_    0.394285 0.429732 0.428464 0.211107
H8    H     H_    0.605666 0.570221 0.571462 0.203455
C37   C     C_3   0.000532 0.999577 0.552179 -0.127258
C38   C     C_3   0.999513 0.000405 0.447879 -0.128215
C39   C     C_3   0.500487 0.500405 0.552121 -0.128221
C40   C     C_3   0.499468 0.499576 0.447821 -0.127274
C41   C     C_R   0.087787 0.290009 0.325598 -0.208653
C42   C     C_R   0.887003 0.713006 0.608423 -0.188432
C43   C     C_R   0.912231 0.289993 0.674455 -0.207639
C44   C     C_R   0.112949 0.712996 0.391512 -0.186951
C45   C     C_R   0.587756 0.789984 0.325529 -0.207626
C46   C     C_R   0.387017 0.213002 0.608417 -0.187116
C47   C     C_R   0.412182 0.790021 0.674382 -0.208669
C48   C     C_R   0.612986 0.213000 0.391553 -0.188443
C49   C     C_R   0.063395 0.360227 0.303679 0.227098
C50   C     C_R   0.904197 0.663326 0.586017 0.253632
C51   C     C_R   0.936642 0.360205 0.696411 0.227864
C52   C     C_R   0.095740 0.663296 0.413894 0.253225
C53   C     C_R   0.563333 0.860191 0.303553 0.227863
C54   C     C_R   0.404196 0.163343 0.585977 0.253611
C55   C     C_R   0.436553 0.860249 0.696292 0.227128
C56   C     C_R   0.595789 0.163314 0.413952 0.253642
C57   C     C_R   0.613038 0.913165 0.369414 0.180577
C58   C     C_R   0.345782 0.135182 0.496999 0.164091
C59   C     C_R   0.386829 0.913175 0.630349 0.179690
C60   C     C_R   0.654185 0.135136 0.502920 0.165697
C61   C     C_R   0.113112 0.413163 0.369602 0.179886
C62   C     C_R   0.845797 0.635154 0.497045 0.165737
C63   C     C_R   0.886929 0.413168 0.630530 0.180551
C64   C     C_R   0.154160 0.635116 0.502873 0.164170
C65   C     C_R   0.687630 0.895189 0.455788 0.155152
C66   C     C_R   0.271135 0.150049 0.436706 0.248244
C67   C     C_R   0.312274 0.895130 0.543966 0.154640
C68   C     C_R   0.728836 0.150009 0.563240 0.251691
C69   C     C_R   0.187685 0.395143 0.455970 0.154660
C70   C     C_R   0.771148 0.650024 0.436732 0.251656
C71   C     C_R   0.812346 0.395174 0.544156 0.155114
C72   C     C_R   0.228810 0.650000 0.563192 0.248404
C73   C     C_R   0.716956 0.826178 0.471825 -0.055942
C74   C     C_R   0.256655 0.194511 0.466559 -0.058435
C75   C     C_R   0.282984 0.826134 0.528034 -0.056267
C76   C     C_R   0.743341 0.194505 0.533435 -0.056923
C77   C     C_R   0.216990 0.326147 0.471927 -0.056337
C78   C     C_R   0.756649 0.694513 0.466549 -0.056957
C79   C     C_R   0.783031 0.326167 0.528147 -0.055934
C80   C     C_R   0.243310 0.694486 0.533377 -0.058394
C81   C     C_R   0.163271 0.272685 0.407480 -0.005877
C82   C     C_R   0.813622 0.738010 0.542202 -0.038860
C83   C     C_R   0.836742 0.272690 0.592569 -0.005855
C84   C     C_R   0.186334 0.737984 0.457725 -0.038877
C85   C     C_R   0.663247 0.772692 0.407417 -0.005845
C86   C     C_R   0.313638 0.237997 0.542224 -0.038736
C87   C     C_R   0.336705 0.772681 0.592492 -0.005865
C88   C     C_R   0.686368 0.238002 0.457779 -0.038852
C89   C     C_R   0.795504 0.807082 0.544869 -0.053151
C90   C     C_R   0.186204 0.203350 0.419197 -0.042541
C91   C     C_R   0.204449 0.807044 0.455037 -0.052136
C92   C     C_R   0.813800 0.203350 0.580818 -0.044394
C93   C     C_R   0.295530 0.307056 0.544927 -0.052195
C94   C     C_R   0.686196 0.703353 0.419177 -0.044373
C95   C     C_R   0.704485 0.307073 0.455111 -0.053118
C96   C     C_R   0.313776 0.703341 0.580773 -0.042544
H9    H     H_    0.048618 0.249746 0.273717 0.222324
H10   H     H_    0.931988 0.735354 0.676073 0.210946
H11   H     H_    0.951397 0.249716 0.726311 0.222404
H12   H     H_    0.067982 0.735358 0.323871 0.211235
H13   H     H_    0.548595 0.749699 0.273682 0.222413
H14   H     H_    0.432012 0.235344 0.676070 0.211049
H15   H     H_    0.451357 0.749765 0.726272 0.222298
H16   H     H_    0.568002 0.235354 0.323907 0.210932
C97   C     C_R   0.819359 0.783929 0.172456 -0.291705
C98   C     C_R   0.174634 0.234304 0.835769 -0.290332
C99   C     C_R   0.182183 0.786181 0.828774 -0.323945
C100  C     C_R   0.825886 0.234935 0.164633 -0.312358
C101  C     C_R   0.317824 0.286172 0.171232 -0.323950
C102  C     C_R   0.674097 0.734954 0.835355 -0.312359
C103  C     C_R   0.680645 0.283936 0.827548 -0.291834
C104  C     C_R   0.325354 0.734289 0.164222 -0.290324
C105  C     C_R   0.803943 0.743862 0.201767 0.636709
C106  C     C_R   0.163881 0.289708 0.789258 0.565223
C107  C     C_R   0.197468 0.746331 0.799214 0.610258
C108  C     C_R   0.836677 0.290621 0.210949 0.552092
C109  C     C_R   0.302539 0.246319 0.200792 0.610269
C110  C     C_R   0.663304 0.790646 0.789041 0.552110
C111  C     C_R   0.696062 0.243872 0.798237 0.636966
C112  C     C_R   0.336103 0.789689 0.210733 0.565202
C113  C     C_R   0.241213 0.201496 0.140989 0.593905
C114  C     C_R   0.677370 0.860792 0.818476 0.528393
C115  C     C_R   0.758110 0.200005 0.858619 0.584611
C116  C     C_R   0.322228 0.859967 0.181726 0.515027
C117  C     C_R   0.741894 0.699998 0.141384 0.584708
C118  C     C_R   0.177757 0.359984 0.818271 0.515040
C119  C     C_R   0.258792 0.701505 0.859015 0.593892
C120  C     C_R   0.822614 0.360770 0.181522 0.528392
C121  C     C_R   0.195969 0.193808 0.051168 0.115376
C122  C     C_R   0.712886 0.874517 0.902032 0.192753
C123  C     C_R   0.803803 0.193245 0.948724 0.116755
C124  C     C_R   0.286849 0.874087 0.098318 0.194278
C125  C     C_R   0.696198 0.693242 0.051278 0.116745
C126  C     C_R   0.213142 0.374097 0.901683 0.194289
C127  C     C_R   0.304034 0.693811 0.948834 0.115385
C128  C     C_R   0.787104 0.374503 0.097970 0.192757
C129  C     C_R   0.221047 0.222246 0.026837 -0.077138
C130  C     C_R   0.734605 0.815507 0.955753 -0.090683
C131  C     C_R   0.778739 0.221818 0.973024 -0.080409
C132  C     C_R   0.265227 0.815342 0.044396 -0.089006
C133  C     C_R   0.721260 0.721817 0.026976 -0.080440
C134  C     C_R   0.234768 0.315349 0.955604 -0.089023
C135  C     C_R   0.278954 0.722248 0.973164 -0.077129
C136  C     C_R   0.765387 0.315498 0.044245 -0.090625
C137  C     C_R   0.778802 0.773956 0.084979 -0.023813
C138  C     C_R   0.201009 0.248918 0.913297 -0.046453
C139  C     C_R   0.221818 0.774844 0.915544 -0.008771
C140  C     C_R   0.799254 0.249164 0.086850 -0.033493
C141  C     C_R   0.278185 0.274841 0.084459 -0.008773
C142  C     C_R   0.700735 0.749175 0.913143 -0.033501
C143  C     C_R   0.721199 0.273958 0.915023 -0.023998
C144  C     C_R   0.298983 0.748910 0.086698 -0.046441
C145  C     C_R   0.190739 0.202271 0.946702 0.039076
C146  C     C_R   0.788694 0.818665 0.049941 0.005081
C147  C     C_R   0.809337 0.202246 0.053401 0.041156
C148  C     C_R   0.211489 0.818916 0.950358 0.002829
C149  C     C_R   0.690659 0.702250 0.946596 0.041130
C150  C     C_R   0.288511 0.318917 0.049644 0.002833
C151  C     C_R   0.309258 0.702268 0.053297 0.039092
C152  C     C_R   0.711305 0.318662 0.950060 0.005059
H17   H     H_    0.860735 0.824808 0.218488 0.248868
H18   H     H_    0.160521 0.180805 0.809213 0.244104
H19   H     H_    0.141854 0.828141 0.783817 0.225505
H20   H     H_    0.840080 0.181517 0.191482 0.216520
H21   H     H_    0.358153 0.328131 0.216191 0.225513
H22   H     H_    0.659903 0.681538 0.808502 0.216531
H23   H     H_    0.639270 0.324816 0.781518 0.248904
H24   H     H_    0.339466 0.680789 0.190774 0.244100
H25   H     H_    0.241310 0.872866 0.289701 0.246278
H26   H     H_    0.758092 0.874039 0.709732 0.243943
H27   H     H_    0.741866 0.373955 0.290224 0.243968
H28   H     H_    0.258651 0.372950 0.710251 0.246248
C153  C     C_R   0.867628 0.914929 0.922463 0.648309
C154  C     C_R   0.132037 0.914386 0.077215 0.647659
C155  C     C_R   0.367937 0.414423 0.922756 0.647673
C156  C     C_R   0.632351 0.414897 0.077515 0.648295
C157  C     C_R   0.804350 0.896190 0.831248 -0.220516
C158  C     C_R   0.195169 0.895227 0.168299 -0.214343
C159  C     C_R   0.304798 0.395290 0.831663 -0.214349
C160  C     C_R   0.695620 0.396131 0.168722 -0.220527
C161  C     C_R   0.805571 0.894951 0.778053 -0.173594
C162  C     C_R   0.193958 0.894041 0.221504 -0.166552
C163  C     C_R   0.306011 0.394103 0.778459 -0.166500
C164  C     C_R   0.694396 0.394889 0.221914 -0.173571
C165  C     C_R   0.870199 0.912593 0.815343 0.687654
C166  C     C_R   0.129464 0.912105 0.184349 0.686301
C167  C     C_R   0.370516 0.412137 0.815628 0.686268
C168  C     C_R   0.629776 0.412557 0.184632 0.687654
C169  C     C_R   0.933168 0.939175 0.905278 -0.140812
C170  C     C_R   0.066629 0.938943 0.094532 -0.141930
C171  C     C_R   0.433358 0.438958 0.905454 -0.141943
C172  C     C_R   0.566818 0.439160 0.094707 -0.140811
C173  C     C_R   0.932369 0.939789 0.960455 -0.096501
C174  C     C_R   0.067430 0.939540 0.039355 -0.097491
C175  C     C_R   0.432556 0.439557 0.960629 -0.097490
C176  C     C_R   0.567618 0.439773 0.039531 -0.096496
C177  C     C_R   0.000306 0.956461 0.945676 -0.064178
C178  C     C_R   0.999568 0.956477 0.054203 -0.064120
C179  C     C_R   0.500424 0.456476 0.945788 -0.064112
C180  C     C_R   0.499684 0.456462 0.054314 -0.064177
H29   H     H_    0.756070 0.875943 0.803474 0.240023
H30   H     H_    0.243295 0.874640 0.195939 0.240685
H31   H     H_    0.256662 0.374723 0.804011 0.240730
H32   H     H_    0.743893 0.375868 0.196488 0.239987
N1    N     N_R   0.132912 0.058512 0.666335 0.237107
O53   O     O_R   0.180002 0.082693 0.678671 -0.319302
O54   O     O_R   0.150184 0.059629 0.733174 -0.388841
N2    N     N_R   0.867050 0.941754 0.333573 0.238908
O55   O     O_R   0.820816 0.915686 0.321921 -0.297737
O56   O     O_R   0.847874 0.944830 0.265240 -0.396651
N3    N     N_R   0.632951 0.441757 0.666428 0.238916
O57   O     O_R   0.679185 0.415688 0.678081 -0.297737
O58   O     O_R   0.652128 0.444835 0.734762 -0.396648
N4    N     N_R   0.367086 0.558510 0.333664 0.237112
O59   O     O_R   0.319997 0.582691 0.321327 -0.319298
O60   O     O_R   0.349813 0.559624 0.266823 -0.388844
N5    N     N_R   0.120203 0.170863 0.983296 0.240002
O61   O     O_R   0.102847 0.129584 0.005348 -0.272298
O62   O     O_R   0.066779 0.203639 0.905511 -0.383774
N6    N     N_R   0.715112 0.946764 0.923978 0.274166
O63   O     O_R   0.718664 0.000841 0.895371 -0.248241
O64   O     O_R   0.709797 0.958997 0.968978 -0.327987
N7    N     N_R   0.879781 0.170996 0.016676 0.242411
O65   O     O_R   0.897451 0.129892 0.994907 -0.271999
O66   O     O_R   0.932957 0.204097 0.094248 -0.380851
N8    N     N_R   0.284756 0.946490 0.076819 0.275286
O67   O     O_R   0.280831 0.000290 0.105285 -0.245280
O68   O     O_R   0.290530 0.959145 0.032358 -0.330460
N9    N     N_R   0.620219 0.670997 0.983325 0.242403
O69   O     O_R   0.602548 0.629894 0.005093 -0.271995
O70   O     O_R   0.567044 0.704099 0.905754 -0.380871
N10   N     N_R   0.215241 0.446498 0.923192 0.275284
O71   O     O_R   0.219162 0.500302 0.894725 -0.245292
O72   O     O_R   0.209476 0.459148 0.967663 -0.330485
N11   N     N_R   0.379799 0.670863 0.016706 0.240005
O73   O     O_R   0.397153 0.629583 0.994653 -0.272315
O74   O     O_R   0.433224 0.703636 0.094493 -0.383766
N12   N     N_R   0.784885 0.446753 0.076036 0.274175
O75   O     O_R   0.781331 0.500826 0.104644 -0.248215
O76   O     O_R   0.790207 0.458992 0.031044 -0.327945
F1    F     F_    0.868079 0.896625 0.974503 -0.665639
F2    F     F_    0.131520 0.896235 0.025079 -0.664122
F3    F     F_    0.368446 0.396265 0.974882 -0.664097
F4    F     F_    0.631897 0.396603 0.025470 -0.665666
F5    F     F_    0.874359 0.891557 0.768520 -0.630958
F6    F     F_    0.125231 0.891237 0.231134 -0.629592
F7    F     F_    0.374746 0.391255 0.768844 -0.629608
F8    F     F_    0.625607 0.391528 0.231447 -0.630964
N13   N     N_R   0.361726 0.093344 0.466994 0.275633
O77   O     O_R   0.390912 0.030046 0.500590 -0.209887
O78   O     O_R   0.345596 0.117978 0.404463 -0.206804
N14   N     N_R   0.586043 0.984108 0.351954 0.256540
O79   O     O_R   0.610258 0.036727 0.347283 -0.339990
O80   O     O_R   0.528465 0.993916 0.324819 -0.233804
N15   N     N_R   0.638218 0.093277 0.532887 0.275133
O81   O     O_R   0.654388 0.117861 0.595466 -0.203076
O82   O     O_R   0.608972 0.030007 0.499211 -0.211235
N16   N     N_R   0.413773 0.984131 0.647743 0.256494
O83   O     O_R   0.389429 0.036762 0.652216 -0.338579
O84   O     O_R   0.471400 0.993960 0.674977 -0.233762
N17   N     N_R   0.861758 0.593305 0.467066 0.275149
O85   O     O_R   0.890942 0.530008 0.500676 -0.211201
O86   O     O_R   0.845627 0.617919 0.404528 -0.203090
N18   N     N_R   0.086147 0.484106 0.352204 0.256477
O87   O     O_R   0.110371 0.536733 0.347555 -0.338486
O88   O     O_R   0.028580 0.493909 0.325091 -0.233882
N19   N     N_R   0.138234 0.593285 0.532898 0.275782
O89   O     O_R   0.153927 0.618131 0.595007 -0.207028
O90   O     O_R   0.109893 0.529637 0.500116 -0.210021
N20   N     N_R   0.913909 0.484113 0.647967 0.256545
O91   O     O_R   0.889655 0.536739 0.652574 -0.340146
O92   O     O_R   0.971493 0.493927 0.675114 -0.233794
N21   N     N_R   0.987951 0.377045 0.214493 0.261551
O93   O     O_R   0.972510 0.436132 0.174409 -0.240828
O94   O     O_R   0.935570 0.329980 0.168974 -0.359839
N22   N     N_R   0.981112 0.647894 0.651347 0.263260
O95   O     O_R   0.003245 0.635178 0.625522 -0.230254
O96   O     O_R   0.030945 0.654407 0.737711 -0.310599
N23   N     N_R   0.012103 0.376987 0.785596 0.261295
O97   O     O_R   0.027574 0.436034 0.825752 -0.241253
O98   O     O_R   0.064472 0.329922 0.831040 -0.362600
N24   N     N_R   0.018807 0.647803 0.348498 0.262914
O99   O     O_R   0.996750 0.634085 0.374267 -0.229514
O100  O     O_R   0.968901 0.654980 0.262176 -0.315527
N25   N     N_R   0.487867 0.876956 0.214368 0.261301
O101  O     O_R   0.472382 0.935990 0.174184 -0.241236
O102  O     O_R   0.435506 0.829890 0.168950 -0.362637
N26   N     N_R   0.481108 0.147923 0.651281 0.262891
O103  O     O_R   0.503217 0.135227 0.625425 -0.230455
O104  O     O_R   0.530961 0.154434 0.737651 -0.314487
N27   N     N_R   0.511983 0.877086 0.785490 0.261587
O105  O     O_R   0.527383 0.936159 0.825564 -0.240857
O106  O     O_R   0.564388 0.830047 0.831025 -0.359738
N28   N     N_R   0.518874 0.147887 0.348620 0.263261
O107  O     O_R   0.496733 0.135220 0.374443 -0.230280
O108  O     O_R   0.469046 0.154379 0.262257 -0.310559
N29   N     N_R   0.723805 0.939977 0.528911 0.259486
O109  O     O_R   0.733805 0.007038 0.528215 -0.355193
O110  O     O_R   0.734313 0.917055 0.587060 -0.287752
N30   N     N_R   0.211577 0.128904 0.342789 0.255579
O111  O     O_R   0.156851 0.172567 0.278939 -0.336981
O112  O     O_R   0.212335 0.066987 0.320194 -0.245398
N31   N     N_R   0.276153 0.939756 0.470755 0.260156
O113  O     O_R   0.266144 0.006869 0.471258 -0.353990
O114  O     O_R   0.265556 0.916574 0.412598 -0.285756
N32   N     N_R   0.788373 0.128820 0.657136 0.256464
O115  O     O_R   0.843087 0.172474 0.721029 -0.331732
O116  O     O_R   0.787619 0.066852 0.679662 -0.245795
N33   N     N_R   0.223851 0.439845 0.529150 0.260118
O117  O     O_R   0.233856 0.506933 0.528550 -0.354250
O118  O     O_R   0.234492 0.416773 0.587375 -0.285317
N34   N     N_R   0.711605 0.628846 0.342831 0.256475
O119  O     O_R   0.656883 0.672500 0.278949 -0.331747
O120  O     O_R   0.712367 0.566896 0.320287 -0.245762
N35   N     N_R   0.776187 0.439910 0.471006 0.259583
O121  O     O_R   0.766181 0.506987 0.471639 -0.354985
O122  O     O_R   0.765669 0.416909 0.412869 -0.287876
N36   N     N_R   0.288348 0.628871 0.657112 0.255518
O123  O     O_R   0.343063 0.672543 0.720963 -0.337016
O124  O     O_R   0.287562 0.566976 0.679711 -0.245360
F9    F     F_    0.654173 0.915182 0.764097 -0.531709
F10   F     F_    0.222097 0.171273 0.168629 -0.512521
F11   F     F_    0.345506 0.914108 0.236389 -0.531676
F12   F     F_    0.777221 0.169639 0.831024 -0.508510
F13   F     F_    0.154472 0.414129 0.763607 -0.531692
F14   F     F_    0.722784 0.669629 0.168980 -0.508498
F15   F     F_    0.845806 0.415155 0.235902 -0.531678
F16   F     F_    0.277910 0.671284 0.831376 -0.512560
F17   F     F_    0.844892 0.753700 0.286726 -0.528896
F18   F     F_    0.133823 0.275733 0.711522 -0.565963
F19   F     F_    0.157288 0.757315 0.714812 -0.558807
F20   F     F_    0.866922 0.277042 0.288872 -0.587515
F21   F     F_    0.342723 0.257298 0.285196 -0.558784
F22   F     F_    0.633054 0.777074 0.711113 -0.587508
F23   F     F_    0.655116 0.253714 0.713280 -0.528753
F24   F     F_    0.366155 0.775707 0.288464 -0.565967

loop_
_geom_bond_atom_site_label_1
_geom_bond_atom_site_label_2
_geom_bond_distance
_ccdc_geom_bond_type
C153  C157  1.391725 A    
C4    C147  1.476262 S    
C49   N21   1.439446 S    
C114  C122  1.406328 A    
C33   C37   1.524948 S    
C164  C168  1.389616 A    
C16   C95   1.498791 S    
C107  F19   1.356963 S    
N17   O85   1.300357 A    
C127  N11   1.441884 S    
C167  C171  1.418988 A    
C171  C179  1.418504 A    
O26   C7    1.282292 A    
C142  C149  1.422545 A    
C67   N31   1.420446 S    
C161  C165  1.389608 A    
C54   N26   1.441983 S    
N2    O55   1.300191 A    
C78   C82   1.395130 A    
C163  C167  1.389521 A    
O30   C11   1.261382 A    
C17   C178  1.493305 S    
C78   C94   1.402433 A    
C56   N28   1.441937 S    
Zn12  O26   1.949866 S    
C36   C40   1.524951 S    
C138  C145  1.422660 A    
N30   O112  1.301291 A    
N3    O58   1.300050 A    
C71   C79   1.433692 A    
C122  N6    1.441851 S    
C27   C34   1.535902 S    
C122  C130  1.427405 A    
C67   C75   1.433650 A    
C28   H4    1.110269 S    
C116  C124  1.406300 A    
C28   C38   1.543804 S    
C54   C58   1.413928 A    
C107  C119  1.386221 A    
C22   C37   1.452737 S    
O11   C7    1.287262 A    
O34   C15   1.261408 A    
C57   N14   1.432936 S    
C50   N22   1.441962 S    
C133  C137  1.422526 A    
C97   C137  1.415480 A    
N18   O87   1.300784 A    
C165  F5    1.355581 S    
Zn1   O44   1.926938 S    
C133  C149  1.431430 A    
C102  H22   1.080808 S    
Zn2   O43   1.926938 S    
C52   N24   1.442252 S    
C128  C136  1.427407 A    
N12   O75   1.301586 A    
Zn5   O48   1.926938 S    
Zn6   O47   1.926938 S    
Zn7   O46   1.926941 S    
C34   C38   1.524946 S    
O16   C12   1.296880 A    
H28   C163  1.082149 S    
C47   C87   1.407221 A    
N23   O97   1.301365 A    
C70   C78   1.422680 A    
Zn16  O4    1.911709 S    
C45   C85   1.407218 A    
N22   O95   1.301046 A    
Zn12  O4    1.926978 S    
Zn1   O13   1.924146 S    
C108  C120  1.392641 A    
C26   C28   1.557479 S    
H25   C162  1.082137 S    
C35   N3    1.457355 S    
C5    C150  1.486485 S    
Zn4   O16   1.924143 S    
C53   C57   1.398693 A    
N6    O63   1.301586 A    
C42   C82   1.411301 A    
C126  N10   1.441763 S    
C129  C145  1.432450 A    
C139  C148  1.423634 A    
C41   H9    1.082597 S    
O28   C5    1.281051 A    
C10   C89   1.498806 S    
N18   O88   1.301087 A    
Zn10  O22   1.949866 S    
C125  C133  1.433070 A    
C9    C90   1.476751 S    
O25   C8    1.286851 A    
Zn13  O29   1.953474 S    
C86   C93   1.432259 A    
Zn10  O2    1.926978 S    
C176  C179  1.424213 A    
C75   C91   1.463398 A    
O29   C12   1.272415 A    
C25   C38   1.541325 S    
Zn15  O33   1.953474 S    
N36   O123  1.301664 A    
C166  F6    1.355586 S    
C70   N34   1.443196 S    
C26   C34   1.536069 S    
C43   C83   1.407217 A    
C55   N27   1.439439 S    
C44   C84   1.411299 A    
O37   C17   1.268487 A    
C98   C106  1.392806 A    
O48   C23   1.289016 A    
C155  F3    1.355147 S    
C100  H20   1.080809 S    
C120  F15   1.357380 S    
N33   O118  1.299663 A    
N15   O82   1.300356 A    
N21   O93   1.301362 A    
Zn16  O35   1.953478 S    
N28   O107  1.301076 A    
C132  C144  1.400751 A    
Zn7   O10   1.928624 S    
C173  C178  1.424233 A    
C141  C150  1.423636 A    
O33   C16   1.272446 A    
C170  C178  1.418508 A    
C153  F1    1.355155 S    
O40   C20   1.268505 A    
C69   N33   1.420370 S    
C74   C90   1.402462 A    
C103  C143  1.415482 A    
C23   C40   1.452734 S    
C48   C56   1.402446 A    
N13   O78   1.301050 A    
C172  C176  1.422584 A    
C53   N25   1.439460 S    
N34   O119  1.301653 A    
N9    O70   1.301198 A    
Zn5   O17   1.924146 S    
C137  C146  1.425247 A    
C58   N13   1.432739 S    
C59   C67   1.418095 A    
C14   C93   1.498787 S    
Zn15  O51   1.926118 S    
C25   C27   1.557616 S    
C119  C127  1.407866 A    
C162  C166  1.389532 A    
C97   C105  1.387606 A    
C117  C125  1.407565 A    
C26   C37   1.541025 S    
N10   O72   1.301747 A    
C111  C115  1.385995 A    
C175  C180  1.424140 A    
N8    O68   1.301750 A    
Zn8   O3    1.969630 S    
C79   C83   1.418818 A    
C18   C177  1.493425 S    
C135  C151  1.432452 A    
C80   C84   1.395124 A    
C73   C89   1.463574 A    
C47   H15   1.082599 S    
C140  C147  1.422541 A    
O38   C18   1.268864 A    
C111  F23   1.356968 S    
N16   O83   1.300783 A    
C106  C118  1.392632 A    
C45   H13   1.082588 S    
C106  F18   1.356399 S    
C135  C139  1.423135 A    
C80   C96   1.402525 A    
O5    C1    1.287258 A    
C112  F24   1.356398 S    
O32   C9    1.261402 A    
N5    O61   1.300569 A    
C29   H5    1.110324 S    
N20   O92   1.301087 A    
C56   C60   1.413904 A    
C101  C141  1.415123 A    
C172  C180  1.418697 A    
C34   N2    1.457356 S    
Zn11  O28   1.949870 S    
C76   C88   1.395144 A    
N24   O100  1.301795 A    
C157  H29   1.078215 S    
C169  C177  1.418702 A    
N23   O98   1.300480 A    
C168  F8    1.355582 S    
N19   O90   1.300344 A    
C77   C93   1.463496 A    
O8    C4    1.278648 A    
C97   H17   1.074435 S    
N35   O122  1.299673 A    
C102  C110  1.392986 A    
N14   O79   1.300794 A    
C104  C144  1.414253 A    
O50   C18   1.276364 A    
N1    O54   1.300126 A    
C127  C135  1.433211 A    
Zn1   O1    1.969633 S    
C46   C86   1.411297 A    
Zn13  O1    1.911707 S    
Zn2   O14   1.924145 S    
N2    O56   1.300053 A    
C52   C64   1.414058 A    
C2    C145  1.477060 S    
C125  N9    1.442119 S    
C68   C76   1.422684 A    
H26   C161  1.082128 S    
C30   C39   1.543802 S    
C110  C114  1.392641 A    
C62   C70   1.416627 A    
C160  C164  1.383114 A    
C131  C143  1.422525 A    
O39   C19   1.268837 A    
O36   C13   1.261388 A    
C129  C141  1.423135 A    
C157  C161  1.383113 A    
O13   C9    1.292013 A    
C82   C89   1.432274 A    
Zn1   O8    1.928621 S    
C99   C139  1.415124 A    
Zn2   O7    1.928619 S    
Zn3   O6    1.928624 S    
O18   C14   1.296910 A    
O31   C10   1.272445 A    
C41   C49   1.385972 A    
O6    C2    1.279183 A    
C43   C51   1.385943 A    
C154  C158  1.391760 A    
C65   N29   1.420288 S    
N32   O115  1.301654 A    
C30   H6    1.110271 S    
C62   N17   1.432723 S    
C113  C121  1.407866 A    
C32   C40   1.541024 S    
N11   O73   1.300569 A    
H27   C164  1.082119 S    
N31   O113  1.295616 A    
Zn14  O30   1.953472 S    
N10   O71   1.301588 A    
Zn15  O3    1.911707 S    
C143  C152  1.425246 A    
N25   O102  1.300477 A    
Zn11  O3    1.926978 S    
O41   C21   1.288954 A    
C109  C113  1.386223 A    
C61   C69   1.418098 A    
C20   C179  1.493290 S    
Zn16  O34   1.953472 S    
N29   O110  1.299678 A    
C31   C39   1.541324 S    
N12   O76   1.301753 A    
C156  F4    1.355154 S    
N4    O59   1.300191 A    
Zn8   O20   1.924143 S    
C123  N7    1.442118 S    
C169  C173  1.422589 A    
C144  C151  1.422652 A    
C43   H11   1.082589 S    
C113  F10   1.357616 S    
N8    O67   1.301587 A    
C171  C175  1.422615 A    
C44   H12   1.081400 S    
C26   H2    1.110202 S    
N22   O96   1.301765 A    
C100  C108  1.392986 A    
C112  C116  1.392635 A    
C103  C111  1.387604 A    
N6    O64   1.301750 A    
C31   C36   1.536369 S    
C121  C129  1.433205 A    
C28   C33   1.535773 S    
Zn8   O9    1.928626 S    
C174  C177  1.424117 A    
N17   O86   1.301056 A    
C136  C152  1.416227 A    
C154  F2    1.355150 S    
C74   C86   1.395155 A    
C98   C138  1.414252 A    
C153  C173  1.422246 A    
C103  H23   1.074435 S    
C115  C123  1.407565 A    
O19   C15   1.292015 A    
C101  H21   1.076027 S    
C49   C61   1.398695 A    
Zn7   O4    1.969628 S    
Zn9   O24   1.949870 S    
Zn6   O18   1.924145 S    
Zn10  O23   1.949867 S    
Zn13  O32   1.953478 S    
C35   C39   1.524943 S    
N7    O65   1.300589 A    
C165  C169  1.419028 A    
O7    C3    1.288269 A    
C119  F16   1.357617 S    
C58   C66   1.416674 A    
C155  C159  1.391772 A    
N3    O57   1.300193 A    
C117  F14   1.357601 S    
C15   C96   1.476773 S    
C123  C131  1.433077 A    
N27   O106  1.300452 A    
C13   C94   1.476759 S    
C29   C40   1.544196 S    
O15   C11   1.292045 A    
O42   C22   1.289015 A    
C27   H3    1.110325 S    
Zn4   O1    1.969630 S    
C32   H8    1.110203 S    
C30   C32   1.557478 S    
C104  H24   1.080263 S    
C73   C85   1.418846 A    
C76   C92   1.402464 A    
C25   C33   1.536370 S    
O12   C8    1.279188 A    
Zn11  O39   1.918567 S    
N33   O117  1.295609 A    
C46   H14   1.081417 S    
C21   C38   1.452964 S    
C47   C55   1.386015 A    
C105  F17   1.356967 S    
C45   C53   1.385917 A    
N28   O108  1.301748 A    
C44   C52   1.402588 A    
Zn5   O3    1.969633 S    
C33   N1    1.457564 S    
Zn6   O4    1.969634 S    
C57   C65   1.418155 A    
C66   C74   1.422690 A    
C124  N8    1.441761 S    
C60   C68   1.416623 A    
C158  H30   1.077971 S    
C108  F20   1.356370 S    
N26   O104  1.301753 A    
C66   N30   1.443236 S    
C32   C35   1.536070 S    
C77   C81   1.418792 A    
N13   O77   1.300361 A    
C24   C39   1.452967 S    
C167  F7    1.355587 S    
Zn3   O42   1.926941 S    
N34   O120  1.301283 A    
N9    O69   1.300590 A    
O21   C4    1.287005 A    
C72   N36   1.443246 S    
C72   C80   1.422657 A    
C64   N19   1.432648 S    
N29   O109  1.295617 A    
C48   C88   1.411293 A    
N19   O89   1.301019 A    
Zn2   O2    1.969634 S    
Zn14  O2    1.911709 S    
C128  N12   1.441850 S    
N27   O105  1.301362 A    
N15   O81   1.301053 A    
C64   C72   1.416661 A    
C65   C73   1.433738 A    
N35   O121  1.295615 A    
Zn13  O49   1.926118 S    
O44   C21   1.286295 A    
N26   O103  1.301065 A    
C51   N23   1.439466 S    
C63   N20   1.432926 S    
C63   C71   1.418141 A    
C131  C147  1.431432 A    
C27   C37   1.544196 S    
Zn12  O27   1.949867 S    
C55   C59   1.398749 A    
N16   O84   1.301087 A    
N31   O114  1.299652 A    
C158  C162  1.383092 A    
C61   N18   1.432894 S    
C83   C92   1.389709 A    
Zn3   O2    1.969628 S    
C110  F22   1.356372 S    
C84   C91   1.432229 A    
C99   H19   1.076027 S    
C68   N32   1.443178 S    
O46   C24   1.286294 A    
O47   C24   1.288955 A    
C3    C148  1.486479 S    
C31   H7    1.110238 S    
Zn16  O52   1.926120 S    
C11   C92   1.476762 S    
C12   C91   1.498702 S    
O9    C5    1.288265 A    
Zn8   O45   1.926941 S    
C156  C160  1.391720 A    
C25   H1    1.110235 S    
O27   C6    1.287012 A    
C124  C132  1.427445 A    
C120  C128  1.406329 A    
C51   C63   1.398719 A    
C118  C126  1.406300 A    
C130  C142  1.400779 A    
C29   C31   1.557615 S    
C134  C138  1.400752 A    
C36   N4    1.457562 S    
C159  C163  1.383096 A    
O24   C1    1.282297 A    
C41   C81   1.407227 A    
C7    C152  1.486670 S    
C134  C150  1.415914 A    
N14   O80   1.301087 A    
C170  C174  1.422617 A    
C155  C175  1.422097 A    
C156  C176  1.422241 A    
C114  F9    1.357377 S    
C105  C117  1.385998 A    
N1    O53   1.300187 A    
Zn15  O36   1.953478 S    
N11   O74   1.301210 A    
C6    C149  1.476274 S    
O43   C22   1.286124 A    
Zn4   O41   1.926941 S    
Zn3   O15   1.924142 S    
C87   C96   1.389742 A    
Zn5   O12   1.928621 S    
Zn6   O11   1.928619 S    
C102  C142  1.414417 A    
C168  C172  1.419013 A    
Zn9   O21   1.949866 S    
Zn14  O50   1.926120 S    
C29   C35   1.535901 S    
N7    O66   1.301197 A    
O35   C14   1.272435 A    
C42   H10   1.081418 S    
Zn12  O40   1.918565 S    
N36   O124  1.301284 A    
C85   C94   1.389708 A    
Zn9   O1    1.926978 S    
C75   C87   1.418747 A    
O52   C20   1.276600 A    
C19   C180  1.493441 S    
C154  C174  1.422085 A    
C121  N5    1.441884 S    
C136  C140  1.400776 A    
N30   O111  1.301655 A    
C98   H18   1.080262 S    
C100  C140  1.414412 A    
O22   C3    1.281048 A    
C50   C62   1.413917 A    
N32   O116  1.301281 A    
C159  H31   1.077974 S    
Zn7   O19   1.924142 S    
C160  H32   1.078212 S    
C60   N15   1.432740 S    
C101  C109  1.387438 A    
C115  F12   1.357599 S    
C99   C107  1.387434 A    
C81   C90   1.389706 A    
C166  C170  1.418979 A    
C116  F11   1.357394 S    
O49   C17   1.276621 A    
Zn14  O31   1.953478 S    
N25   O101  1.301365 A    
C118  F13   1.357394 S    
O51   C19   1.276391 A    
C126  C134  1.427444 A    
C69   C77   1.433698 A    
N5    O62   1.301210 A    
C1    C146  1.486679 S    
Zn4   O5    1.928626 S    
N20   O91   1.300794 A    
O20   C16   1.296894 A    
C59   N16   1.432913 S    
C30   C36   1.535772 S    
O10   C6    1.278641 A    
O23   C2    1.286855 A    
Zn11  O25   1.949866 S    
C8    C151  1.477051 S    
N4    O60   1.300128 A    
N24   O99   1.301107 A    
Zn10  O38   1.918565 S    
C48   H16   1.081417 S    
C71   N35   1.420308 S    
O14   C10   1.296909 A    
C79   C95   1.463523 A    
Zn9   O37   1.918567 S    
C104  C112  1.392804 A    
N21   O94   1.300443 A    
C132  C148  1.415913 A    
C88   C95   1.432253 A    
C109  F21   1.356963 S    
C42   C50   1.402449 A    
O17   C13   1.292030 A    
C46   C54   1.402458 A    
O45   C23   1.286125 A    
C130  C146  1.416227 A    
