data_mof_unit_56779.cif
_audit_creation_date              2012-10-26T19:52:23-0400
_audit_creation_method            fapswitch 2.2
_symmetry_space_group_name_H-M    P1
_symmetry_Int_Tables_number       1
_space_group_crystal_system       triclinic
_cell_length_a                    9.532857
_cell_length_b                    10.817902
_cell_length_c                    13.433522
_cell_angle_alpha                 90.136964
_cell_angle_beta                  72.657573
_cell_angle_gamma                 90.088209
_cell_volume                      1322.35752989

loop_
_atom_site_label
_atom_site_type_symbol
_atom_type_description
_atom_site_fract_x
_atom_site_fract_y
_atom_site_fract_z
_atom_type_partial_charge
C1    C     C_R   0.502301 0.737737 0.495439 0.554038
C2    C     C_R   0.374289 0.505620 0.814910 -0.000944
C3    C     C_R   0.379998 0.936295 0.489269 -0.004043
C4    C     C_R   0.421511 0.505034 0.700139 0.531696
C5    C     C_R   0.509353 0.870859 0.480389 0.029516
C6    C     C_R   0.644233 0.937137 0.454618 0.106146
C7    C     C_R   0.640715 0.066579 0.458860 -0.148372
C8    C     C_R   0.505968 0.129620 0.484670 -0.018923
C9    C     C_R   0.378453 0.063235 0.490788 0.008517
C10   C     C_3   0.230416 0.068323 0.569875 -0.259977
C11   C     C_3   0.231863 0.927890 0.568178 -0.272432
C12   C     C_R   0.437722 0.510716 0.978618 0.044452
C13   C     C_R   0.943411 0.402801 0.458300 0.157931
C14   C     C_R   0.904478 0.589377 0.550595 -0.003600
C15   C     C_R   0.053266 0.589126 0.550923 -0.014754
C16   C     C_R   0.500941 0.262356 0.497516 0.554121
C17   C     C_R   0.090945 0.402870 0.458222 0.158870
C18   C     C_3   0.142081 0.359544 0.347968 -0.281628
C19   C     C_3   0.982840 0.358506 0.348363 -0.279809
C20   C     C_R   0.578761 0.501943 0.299946 0.537610
C21   C     C_R   0.789147 0.611412 0.030398 0.011112
C22   C     C_R   0.624516 0.519090 0.186737 -0.033484
C23   C     C_R   0.470066 0.543764 0.872273 0.035239
C24   C     C_R   0.236917 0.454676 0.867453 -0.126574
C25   C     C_R   0.197538 0.435200 0.974161 -0.106364
C26   C     C_R   0.296924 0.460387 0.029128 -0.093608
C27   C     C_2   0.935825 0.666425 0.977904 0.205738
C28   C     C_3   0.833987 0.831260 0.322952 -0.256845
C29   C     C_R   0.546396 0.530919 0.030452 0.023502
C30   C     C_R   0.680216 0.593313 0.978598 0.017081
C31   C     C_R   0.698506 0.639998 0.878250 -0.147408
C32   C     C_R   0.595210 0.616468 0.826669 -0.113959
C33   C     C_R   0.525334 0.490192 0.132678 -0.132269
C34   C     C_R   0.757915 0.575748 0.135084 -0.122160
Cu1   Cu    Cu3+1 0.359330 0.500020 0.500010 0.933733
Cu2   Cu    Cu3+1 0.640670 0.499980 0.499990 0.938678
H1    H     H_    0.836619 0.594099 0.177186 0.156580
H2    H     H_    0.192328 0.266008 0.340466 0.126625
H3    H     H_    0.959042 0.427680 0.294485 0.152128
H4    H     H_    0.791210 0.697005 0.838412 0.086668
H5    H     H_    0.940232 0.264035 0.342249 0.117539
H6    H     H_    0.431445 0.435983 0.173200 0.108182
H7    H     H_    0.160822 0.426965 0.825613 0.125004
H8    H     H_    0.258184 0.442006 0.111396 0.093514
H9    H     H_    0.090565 0.397002 0.014240 0.119069
H10   H     H_    0.612956 0.659544 0.751440 0.132966
H11   H     H_    0.979376 0.668927 0.893719 0.100282
H12   H     H_    0.742952 0.117065 0.444909 0.123832
H13   H     H_    0.862774 0.923479 0.450566 0.233594
H14   H     H_    0.859791 0.910527 0.267973 0.143128
H15   H     H_    0.749718 0.771924 0.304636 0.167668
H16   H     H_    0.935031 0.775356 0.312296 0.155416
H17   H     H_    0.233671 0.108326 0.645507 0.142078
H18   H     H_    0.146187 0.108781 0.537453 0.136216
H19   H     H_    0.235635 0.886074 0.642897 0.135938
H20   H     H_    0.148373 0.887728 0.534699 0.132311
H21   H     H_    0.832532 0.663174 0.589690 0.119562
H22   H     H_    0.092397 0.662174 0.590890 0.108429
H23   H     H_    0.207774 0.430954 0.295385 0.146644
N1    N     N_R   0.852320 0.499070 0.499340 -0.228414
N2    N     N_R   0.148230 0.499110 0.499340 -0.228852
N3    N     N_2   0.782403 0.875583 0.429347 -0.505601
O1    O     O_R   0.381190 0.680360 0.500000 -0.510787
O2    O     O_R   0.618780 0.680320 0.499990 -0.478347
O3    O     O_R   0.323230 0.500000 0.650990 -0.506103
O4    O     O_R   0.560820 0.499960 0.650980 -0.503199
O5    O     O_R   0.381220 0.319680 0.500010 -0.495192
O6    O     O_R   0.618810 0.319640 0.500000 -0.501722
O7    O     O_R   0.439180 0.500040 0.349020 -0.499325
O8    O     O_R   0.676770 0.500000 0.349010 -0.513779
O9    O     O_2   0.012261 0.707801 0.028760 -0.522880

loop_
_geom_bond_atom_site_label_1
_geom_bond_atom_site_label_2
_ccdc_geom_bond_type
C2    C4    S    
Cu2   O6    S    
C6    C7    A    
C3    C9    A    
C13   C17   A    
C12   C29   A    
Cu2   O8    S    
C34   H1    S    
C14   N1    A    
C21   C30   A    
C2    C24   A    
C31   C32   A    
C14   C15   A    
C18   H2    S    
Cu1   O5    S    
C30   C31   A    
C3    C5    A    
C11   H19   S    
C23   C32   A    
C6    N3    S    
C17   C18   S    
C21   C27   S    
C26   H8    S    
C7    C8    A    
C8    C16   S    
C13   N1    A    
C14   H21   S    
C7    H12   S    
C4    O4    A    
C28   H16   S    
C12   C23   A    
C20   O8    A    
C29   C30   A    
C19   H3    S    
C16   O6    A    
C33   H6    S    
C1    O1    A    
C28   H15   S    
C20   C22   S    
Cu2   O4    S    
C25   C26   A    
C15   N2    A    
C5    C6    A    
C22   C34   A    
C15   H22   S    
C1    C5    S    
C20   O7    A    
C3    C11   S    
C10   C11   S    
Cu1   O3    S    
C10   H18   S    
C16   O5    A    
C28   H14   S    
C1    O2    A    
C25   H9    S    
C18   H23   S    
C27   O9    D    
C24   C25   A    
Cu1   O7    S    
Cu1   N2    S    
C18   C19   S    
C9    C10   S    
C27   H11   S    
C2    C23   A    
C24   H7    S    
C22   C33   A    
C13   C19   S    
C4    O3    A    
C10   H17   S    
H13   N3    S    
Cu1   O1    S    
C21   C34   A    
C17   N2    A    
C31   H4    S    
Cu2   O2    S    
C32   H10   S    
C11   H20   S    
C19   H5    S    
C29   C33   A    
C12   C26   A    
C8    C9    A    
Cu2   N1    S    
Cu1   Cu2   S    
C28   N3    S    
