data_mof_unit_60852.cif
_audit_creation_date              2013-03-05T16:16:30-0500
_audit_creation_method            fapswitch 2.2
_symmetry_space_group_name_H-M    P1
_symmetry_Int_Tables_number       1
_space_group_crystal_system       triclinic
_cell_length_a                    44.443032
_cell_length_b                    38.881332
_cell_length_c                    21.773317
_cell_angle_alpha                 89.980399
_cell_angle_beta                  60.861624
_cell_angle_gamma                 89.988632
_cell_volume                      32862.8773979

loop_
_atom_site_label
_atom_site_type_symbol
_atom_site_description
_atom_site_fract_x
_atom_site_fract_y
_atom_site_fract_z
_atom_type_partial_charge
O1    O     O_R   0.050910 0.528740 0.449110 -0.617824
O2    O     O_R   0.949090 0.528740 0.550890 -0.614554
O3    O     O_R   0.550910 0.028740 0.449110 -0.617534
O4    O     O_R   0.449090 0.028740 0.550890 -0.614545
O5    O     O_R   0.050900 0.471250 0.449110 -0.613980
O6    O     O_R   0.949100 0.471250 0.550890 -0.612195
O7    O     O_R   0.550900 0.971250 0.449110 -0.613350
O8    O     O_R   0.449100 0.971250 0.550890 -0.612884
C1    C     C_R   0.067073 0.499963 0.432506 0.891385
C2    C     C_R   0.932917 0.499951 0.567207 0.881893
C3    C     C_R   0.567096 0.999958 0.432446 0.890807
C4    C     C_R   0.432940 0.999955 0.567166 0.882081
O9    O     O_R   0.999990 0.528740 0.590470 -0.622971
O10   O     O_R   0.000010 0.528740 0.409530 -0.626082
O11   O     O_R   0.499990 0.028740 0.590470 -0.622900
O12   O     O_R   0.500010 0.028740 0.409530 -0.626125
O13   O     O_R   0.999990 0.471250 0.590470 -0.615295
O14   O     O_R   0.000010 0.471250 0.409530 -0.613541
O15   O     O_R   0.499990 0.971250 0.590470 -0.615019
O16   O     O_R   0.500010 0.971250 0.409530 -0.613750
C5    C     C_R   0.998607 0.499850 0.620591 0.836907
C6    C     C_R   0.001320 0.499851 0.379503 0.832265
C7    C     C_R   0.498645 0.999846 0.620544 0.837265
C8    C     C_R   0.501353 0.999854 0.379461 0.831714
Zn1   Zn    Zn3+2 0.000000 0.538380 0.500000 0.953195
Zn2   Zn    Zn3+2 0.500000 0.038380 0.500000 0.953279
Zn3   Zn    Zn3+2 0.000000 0.461610 0.500000 0.984678
Zn4   Zn    Zn3+2 0.500000 0.961610 0.500000 0.984731
C9    C     C_2   0.972497 0.518929 0.811180 0.525690
C10   C     C_2   0.027757 0.518413 0.188634 0.524846
C11   C     C_2   0.472373 0.018676 0.811261 0.524904
C12   C     C_2   0.527660 0.018629 0.188694 0.524684
C13   C     C_2   0.000641 0.510617 0.815855 -0.304439
C14   C     C_2   0.999454 0.510763 0.184011 -0.304920
C15   C     C_2   0.500595 0.010677 0.815911 -0.304454
C16   C     C_2   0.499416 0.010721 0.184056 -0.304509
H1    H     H_    0.025788 0.510214 0.768753 0.130584
H2    H     H_    0.974277 0.510934 0.231036 0.132190
H3    H     H_    0.525757 0.010540 0.768842 0.131833
H4    H     H_    0.474249 0.010671 0.231112 0.131418
C17   C     C_2   0.976647 0.523243 0.740170 0.014205
C18   C     C_2   0.023691 0.522760 0.259570 0.013782
C19   C     C_2   0.476482 0.023006 0.740286 0.015201
C20   C     C_2   0.523563 0.022958 0.259658 0.014434
C21   C     C_2   0.993517 0.498217 0.692038 0.220439
C22   C     C_2   0.006108 0.498207 0.308343 0.223664
C23   C     C_2   0.493689 0.998200 0.691862 0.220986
C24   C     C_2   0.506252 0.998221 0.308195 0.223341
C25   C     C_R   0.378236 0.480760 0.076812 -0.225718
C26   C     C_R   0.621354 0.479504 0.923751 -0.223842
C27   C     C_R   0.878721 0.978926 0.076758 -0.221671
C28   C     C_R   0.121836 0.981371 0.923699 -0.222396
H5    H     H_    0.392651 0.466875 0.027827 0.175040
H6    H     H_    0.606606 0.465956 0.973061 0.172866
H7    H     H_    0.893518 0.965200 0.027705 0.180701
H8    H     H_    0.107476 0.967581 0.972840 0.182611
C29   C     C_R   0.342605 0.477895 0.112962 -0.177939
C30   C     C_R   0.656914 0.475766 0.887729 -0.157860
C31   C     C_R   0.843179 0.974993 0.112972 -0.154001
C32   C     C_R   0.157489 0.978792 0.887787 -0.174167
H9    H     H_    0.329886 0.462358 0.091089 0.155478
H10   H     H_    0.669272 0.459981 0.910041 0.155165
H11   H     H_    0.830891 0.958869 0.091036 0.158580
H12   H     H_    0.170282 0.963560 0.909953 0.158803
C33   C     C_R   0.323544 0.494609 0.177458 0.062416
C34   C     C_R   0.676380 0.492002 0.822850 -0.007292
C35   C     C_R   0.823643 0.991488 0.177530 -0.010367
C36   C     C_R   0.176475 0.995366 0.823104 0.059282
C37   C     C_R   0.340215 0.514822 0.204988 -0.073461
C38   C     C_R   0.660246 0.512700 0.794841 -0.143364
C39   C     C_R   0.839715 0.012625 0.204993 -0.145000
C40   C     C_R   0.159735 0.015184 0.795145 -0.075050
H13   H     H_    0.325330 0.528726 0.253798 0.174261
H14   H     H_    0.675532 0.526143 0.745588 0.180092
H15   H     H_    0.824391 0.026283 0.253939 0.180897
H16   H     H_    0.174578 0.028959 0.746133 0.173959
C41   C     C_R   0.375862 0.518617 0.168579 0.429451
C42   C     C_R   0.624668 0.517307 0.831022 0.451735
C43   C     C_R   0.875276 0.017374 0.168666 0.449952
C44   C     C_R   0.124068 0.018745 0.831356 0.427887
C45   C     C_R   0.395194 0.500596 0.104439 -0.155490
C46   C     C_R   0.604869 0.499753 0.895614 -0.155040
C47   C     C_R   0.895132 0.999590 0.104412 -0.158806
C48   C     C_R   0.104800 0.000820 0.895661 -0.158979
C49   C     C_R   0.267679 0.482918 0.285531 0.463782
C50   C     C_R   0.732880 0.478117 0.715542 0.457342
C51   C     C_R   0.767105 0.978297 0.285500 0.457027
C52   C     C_R   0.232294 0.983164 0.715518 0.464117
C53   C     C_R   0.231581 0.483774 0.320364 -0.295910
C54   C     C_R   0.768687 0.480517 0.680971 -0.169509
C55   C     C_R   0.731290 0.980684 0.319939 -0.169135
C56   C     C_R   0.268381 0.984067 0.680595 -0.295770
H17   H     H_    0.217143 0.476242 0.375132 0.138607
H18   H     H_    0.783197 0.472056 0.626807 0.164880
H19   H     H_    0.716762 0.972914 0.374559 0.165234
H20   H     H_    0.282790 0.975948 0.626196 0.137920
C57   C     C_R   0.214061 0.494182 0.284622 0.087361
C58   C     C_R   0.785859 0.493065 0.715917 0.031190
C59   C     C_R   0.714129 0.992337 0.284304 0.030355
C60   C     C_R   0.285925 0.995241 0.715785 0.087883
C61   C     C_R   0.232566 0.503046 0.213367 -0.176657
C62   C     C_R   0.767028 0.502883 0.786551 -0.182524
C63   C     C_R   0.732973 0.001278 0.213159 -0.182138
C64   C     C_R   0.267444 0.004824 0.786635 -0.176907
H21   H     H_    0.219393 0.511401 0.185209 0.149711
H22   H     H_    0.779897 0.512843 0.814158 0.151477
H23   H     H_    0.720110 0.010552 0.185011 0.151549
H24   H     H_    0.280632 0.013751 0.814364 0.149693
C65   C     C_R   0.268284 0.502269 0.178452 -0.268368
C66   C     C_R   0.731334 0.501117 0.821396 -0.212881
C67   C     C_R   0.768668 0.999567 0.178445 -0.212221
C68   C     C_R   0.231723 0.003964 0.821668 -0.267206
H25   H     H_    0.282237 0.510063 0.123787 0.163287
H26   H     H_    0.717132 0.510006 0.875310 0.163826
H27   H     H_    0.782862 0.007830 0.124094 0.163846
H28   H     H_    0.217766 0.012261 0.876006 0.164106
C69   C     C_R   0.285941 0.492707 0.214354 0.072133
C70   C     C_R   0.713964 0.489393 0.786267 -0.007482
C71   C     C_R   0.786045 0.988744 0.214197 -0.006486
C72   C     C_R   0.214064 0.993628 0.786251 0.072161
C73   C     C_R   0.157688 0.482480 0.291517 -0.162510
C74   C     C_R   0.842423 0.483864 0.709993 -0.153784
C75   C     C_R   0.657581 0.982332 0.290679 -0.154231
C76   C     C_R   0.342314 0.984079 0.709258 -0.161792
H29   H     H_    0.171164 0.470126 0.240523 0.146215
H30   H     H_    0.829113 0.472592 0.762083 0.146344
H31   H     H_    0.670893 0.970186 0.239450 0.146808
H32   H     H_    0.328837 0.972530 0.761070 0.146332
C77   C     C_R   0.121789 0.483989 0.326815 0.127713
C78   C     C_R   0.878328 0.485536 0.674219 0.123777
C79   C     C_R   0.621687 0.984276 0.326045 0.126175
C80   C     C_R   0.378227 0.985188 0.673469 0.124812
C81   C     C_R   0.104545 0.499646 0.393836 -0.053773
C82   C     C_R   0.895441 0.499563 0.605607 -0.042031
C83   C     C_R   0.604608 0.999573 0.393440 -0.053689
C84   C     C_R   0.395506 0.999640 0.605249 -0.042366
C85   C     C_R   0.123347 0.513939 0.424462 0.144756
C86   C     C_R   0.876384 0.512067 0.573841 0.151134
C87   C     C_R   0.623603 0.013149 0.424290 0.145050
C88   C     C_R   0.376644 0.013061 0.573820 0.150571
C89   C     C_R   0.159242 0.512038 0.387986 -0.161790
C90   C     C_R   0.840503 0.510210 0.611088 -0.174409
C91   C     C_R   0.659498 0.010760 0.387804 -0.160678
C92   C     C_R   0.340765 0.011861 0.611174 -0.175681
H33   H     H_    0.173962 0.523051 0.410801 0.146375
H34   H     H_    0.825726 0.519839 0.587156 0.154690
H35   H     H_    0.674352 0.021097 0.410929 0.147820
H36   H     H_    0.326130 0.022322 0.587624 0.153229
C93   C     C_R   0.176396 0.496212 0.322002 0.041481
C94   C     C_R   0.823513 0.495866 0.678519 0.042616
C95   C     C_R   0.676477 0.995210 0.321499 0.040019
C96   C     C_R   0.323594 0.997150 0.678235 0.043930
O17   O     O_R   0.971250 0.449080 0.028720 -0.577576
O18   O     O_R   0.028750 0.449080 0.971280 -0.578306
O19   O     O_R   0.471250 0.949080 0.028720 -0.576177
O20   O     O_R   0.528750 0.949080 0.971280 -0.580712
C97   C     C_R   0.000004 0.432767 0.999993 0.992066
C98   C     C_R   0.499999 0.932770 0.999933 0.988109
O21   O     O_R   0.971260 0.500000 0.938260 -0.538921
O22   O     O_R   0.028740 0.500000 0.061740 -0.539126
O23   O     O_R   0.471260 0.000000 0.938260 -0.539308
O24   O     O_R   0.528740 0.000000 0.061740 -0.539220
O25   O     O_R   0.028750 0.500000 0.880800 -0.647521
O26   O     O_R   0.971250 0.500000 0.119200 -0.646269
O27   O     O_R   0.528750 1.000000 0.880800 -0.646491
O28   O     O_R   0.471250 0.000000 0.119200 -0.646385
C99   C     C_R   0.999981 0.502623 0.881254 0.956306
C100  C     C_R   0.000033 0.502649 0.118729 0.956267
C101  C     C_R   0.499974 0.002633 0.881260 0.955534
C102  C     C_R   0.500027 0.002644 0.118734 0.957186
Zn5   Zn    Zn3+2 0.961620 0.500000 0.038360 1.044077
Zn6   Zn    Zn3+2 0.038380 0.500000 0.961640 1.041161
Zn7   Zn    Zn3+2 0.461620 0.000000 0.038360 1.042262
Zn8   Zn    Zn3+2 0.538380 0.000000 0.961640 1.041901
O29   O     O_R   0.971260 0.550910 0.028730 -0.632128
O30   O     O_R   0.028740 0.550910 0.971270 -0.632876
O31   O     O_R   0.471260 0.050910 0.028730 -0.632722
O32   O     O_R   0.528740 0.050910 0.971270 -0.632180
C103  C     C_R   0.999999 0.567288 0.000004 0.834280
C104  C     C_R   0.500000 0.067289 1.000000 0.834422
O33   O     O_R   0.499990 0.449020 0.050970 -0.601107
O34   O     O_R   0.500010 0.449020 0.949030 -0.600895
O35   O     O_R   0.999990 0.949020 0.050970 -0.601556
O36   O     O_R   0.000010 0.949020 0.949030 -0.600095
C105  C     C_R   0.500002 0.432788 0.000008 0.843042
C106  C     C_R   0.000001 0.932789 0.000005 0.847627
O37   O     O_R   0.449080 0.499930 0.101960 -0.597237
O38   O     O_R   0.550920 0.499930 0.898040 -0.599953
O39   O     O_R   0.949080 0.999930 0.101960 -0.598381
O40   O     O_R   0.050920 0.999930 0.898040 -0.596517
O41   O     O_R   0.449090 0.500000 0.999810 -0.619012
O42   O     O_R   0.550910 0.500000 0.000190 -0.616804
O43   O     O_R   0.949090 0.000000 0.999810 -0.617933
O44   O     O_R   0.050910 1.000000 0.000190 -0.619846
C107  C     C_R   0.432752 0.500688 0.067137 0.848861
C108  C     C_R   0.567277 0.500582 0.932846 0.843359
C109  C     C_R   0.932722 0.000553 0.067154 0.843377
C110  C     C_R   0.067245 0.000717 0.932876 0.850072
Zn9   Zn    Zn3+2 0.499990 0.499920 0.068200 1.001592
Zn10  Zn    Zn3+2 0.500010 0.499920 0.931800 0.998972
Zn11  Zn    Zn3+2 0.999990 0.999920 0.068200 1.004380
Zn12  Zn    Zn3+2 0.000010 0.999920 0.931800 1.003602
O45   O     O_R   0.500000 0.550840 0.051180 -0.625423
O46   O     O_R   0.500000 0.550840 0.948820 -0.625965
O47   O     O_R   0.000000 0.050840 0.051180 -0.627215
O48   O     O_R   0.000000 0.050840 0.948820 -0.622101
C111  C     C_R   0.500017 0.567232 0.999948 0.901367
C112  C     C_R   0.000101 0.067231 0.999899 0.902538
C113  C     C_R   0.499156 0.622679 0.944647 -0.305995
C114  C     C_R   0.501404 0.623067 0.053748 -0.311068
C115  C     C_R   0.002542 0.122744 0.053236 -0.179481
C116  C     C_R   0.000344 0.122955 0.944150 -0.316655
H37   H     H_    0.498065 0.608682 0.902766 0.174466
H38   H     H_    0.502291 0.609348 0.096148 0.174207
H39   H     H_    0.003232 0.108987 0.095820 0.199055
H40   H     H_    0.999032 0.109183 0.902275 0.176283
C117  C     C_R   0.499341 0.658651 0.943510 0.398449
C118  C     C_R   0.501735 0.659078 0.053410 0.407484
C119  C     C_R   0.003998 0.158459 0.052773 0.393314
C120  C     C_R   0.001229 0.158935 0.942976 0.453210
C121  C     C_R   0.500703 0.676698 0.998047 0.043228
C122  C     C_R   0.002909 0.176697 0.997507 -0.035693
C123  C     C_R   0.500166 0.604850 0.999533 -0.122979
C124  C     C_R   0.000843 0.104839 0.999224 -0.179902
C125  C     C_R   0.473880 0.732339 0.051556 -0.239090
C126  C     C_R   0.527692 0.731824 0.941519 -0.098677
C127  C     C_R   0.030164 0.232348 0.945277 -0.225453
C128  C     C_R   0.973499 0.231623 0.048665 -0.291947
H41   H     H_    0.453138 0.718353 0.094245 0.164724
H42   H     H_    0.548510 0.717603 0.899474 0.187666
H43   H     H_    0.052169 0.218397 0.905570 0.160185
H44   H     H_    0.952005 0.217100 0.088397 0.167507
C129  C     C_R   0.029786 0.268334 0.944761 0.376173
C130  C     C_R   0.972647 0.267601 0.049305 0.388424
C131  C     C_R   0.473578 0.768313 0.050828 0.426041
C132  C     C_R   0.527797 0.767547 0.938837 0.368006
C133  C     C_R   0.000961 0.285816 0.997198 0.028438
C134  C     C_R   0.500611 0.785941 0.994465 -0.054534
C135  C     C_R   0.500859 0.714274 0.997243 0.065978
C136  C     C_R   0.002215 0.214230 0.997164 0.056669
C137  C     C_R   0.025579 0.341223 0.006601 -0.213287
C138  C     C_R   0.975313 0.341175 0.990518 -0.203155
C139  C     C_R   0.525365 0.840972 0.005114 -0.272136
C140  C     C_R   0.475228 0.841472 0.988556 -0.200101
H45   H     H_    0.044820 0.327014 0.013138 0.157360
H46   H     H_    0.956274 0.326936 0.983379 0.162472
H47   H     H_    0.544567 0.826500 0.011310 0.165978
H48   H     H_    0.456168 0.827403 0.981193 0.157998
C141  C     C_R   0.025580 0.377205 0.007554 0.366781
C142  C     C_R   0.974763 0.377174 0.991278 0.362701
C143  C     C_R   0.525435 0.876956 0.006749 0.380552
C144  C     C_R   0.474736 0.877456 0.990032 0.366195
C145  C     C_R   0.000066 0.395165 0.999743 -0.144604
C146  C     C_R   0.500010 0.895177 0.999072 -0.142234
C147  C     C_R   0.000615 0.323393 0.998039 0.134234
C148  C     C_R   0.500470 0.823477 0.995815 0.069826
C149  C     C_R   0.527124 0.377153 0.943665 0.413491
C150  C     C_R   0.472912 0.377137 0.056382 0.413282
C151  C     C_R   0.026835 0.877016 0.002914 0.415866
C152  C     C_R   0.972859 0.877281 0.997019 0.416496
C153  C     C_R   0.526352 0.341410 0.943985 -0.164027
C154  C     C_R   0.473695 0.341395 0.056057 -0.163713
C155  C     C_R   0.026014 0.841272 0.003785 -0.161428
C156  C     C_R   0.973598 0.841545 0.995450 -0.159454
H49   H     H_    0.546786 0.327293 0.900968 0.175823
H50   H     H_    0.453265 0.327265 0.099073 0.176098
H51   H     H_    0.046349 0.827040 0.006355 0.179176
H52   H     H_    0.953248 0.827528 0.992534 0.176708
C157  C     C_R   0.500025 0.323708 0.000018 -0.064362
C158  C     C_R   0.999781 0.823719 0.999454 -0.079447
C159  C     C_R   0.500013 0.395382 0.000020 -0.275967
C160  C     C_R   0.999879 0.895385 0.000088 -0.271921
C161  C     C_R   0.480443 0.268228 0.975251 0.173916
C162  C     C_R   0.519599 0.268201 0.024768 0.173950
C163  C     C_R   0.979754 0.768270 0.062553 0.169857
C164  C     C_R   0.019889 0.768107 0.935527 0.177962
C165  C     C_R   0.979991 0.732395 0.062078 -0.191000
C166  C     C_R   0.019759 0.732257 0.936697 -0.205432
C167  C     C_R   0.480621 0.232348 0.975606 -0.191254
C168  C     C_R   0.519409 0.232320 0.024417 -0.191281
H53   H     H_    0.964990 0.718364 0.110688 0.148024
H54   H     H_    0.034853 0.718188 0.888159 0.154512
H55   H     H_    0.465975 0.218272 0.956046 0.148306
H56   H     H_    0.534051 0.218223 0.043978 0.148379
C169  C     C_R   0.999910 0.714399 0.999508 0.011592
C170  C     C_R   0.500012 0.214406 0.000013 0.008197
C171  C     C_R   0.500024 0.286179 0.000009 0.101485
C172  C     C_R   0.999786 0.786212 0.998965 0.111341
C173  C     C_R   0.031159 0.658751 0.965513 -0.171869
C174  C     C_R   0.968756 0.658721 0.034086 -0.171765
C175  C     C_R   0.531167 0.158734 0.973355 -0.171565
C176  C     C_R   0.468844 0.158744 0.026663 -0.171913
H57   H     H_    0.055491 0.672348 0.939312 0.138204
H58   H     H_    0.944405 0.672291 0.060163 0.138982
H59   H     H_    0.555484 0.172315 0.951962 0.139037
H60   H     H_    0.444530 0.172332 0.048058 0.138678
C177  C     C_R   0.031198 0.623013 0.965710 -0.183985
C178  C     C_R   0.968761 0.622986 0.034131 -0.183067
C179  C     C_R   0.531182 0.122996 0.973230 -0.183157
C180  C     C_R   0.468823 0.123005 0.026781 -0.183629
H61   H     H_    0.055627 0.609625 0.939056 0.163953
H62   H     H_    0.944345 0.609580 0.060853 0.164608
H63   H     H_    0.555572 0.109593 0.952247 0.165575
H64   H     H_    0.444431 0.109608 0.047761 0.165148
C181  C     C_R   0.999989 0.604893 0.999964 -0.026214
C182  C     C_R   0.500001 0.104894 0.000004 -0.027514
C183  C     C_R   0.999946 0.676762 0.999726 0.141036
C184  C     C_R   0.500007 0.176766 0.000011 0.140563
O49   O     O_3   0.940692 0.522483 0.870703 -0.739895
H65   H     H_    0.923062 0.525293 0.855668 0.338584
O50   O     O_3   0.059680 0.521135 0.129110 -0.739720
H66   H     H_    0.077362 0.523364 0.144140 0.338361
O51   O     O_3   0.440510 0.021844 0.870788 -0.740910
H67   H     H_    0.422853 0.024382 0.855758 0.338202
O52   O     O_3   0.559539 0.021674 0.129164 -0.740380
H68   H     H_    0.577204 0.024124 0.144190 0.338514
C185  C     C_3   0.102418 0.469282 0.291988 -0.856725
H69   H     H_    0.085471 0.489268 0.288536 0.224767
H70   H     H_    0.120151 0.460131 0.237816 0.239803
H71   H     H_    0.086522 0.447095 0.322746 0.263734
C186  C     C_3   0.897881 0.472502 0.710040 -0.858444
H72   H     H_    0.914648 0.493171 0.711803 0.224420
H73   H     H_    0.880278 0.464188 0.764920 0.240992
H74   H     H_    0.913997 0.450100 0.680962 0.263786
C187  C     C_3   0.602131 0.970298 0.291004 -0.856467
H75   H     H_    0.585422 0.990668 0.287932 0.224473
H76   H     H_    0.619744 0.961272 0.236669 0.240574
H77   H     H_    0.585964 0.948174 0.321399 0.264111
C188  C     C_3   0.397594 0.971232 0.708966 -0.857724
H78   H     H_    0.414688 0.991425 0.711141 0.224481
H79   H     H_    0.379875 0.962767 0.763679 0.240398
H80   H     H_    0.413348 0.948730 0.679416 0.263560
C189  C     C_3   0.105580 0.530306 0.496390 -0.888971
H81   H     H_    0.087504 0.511647 0.535658 0.230095
H82   H     H_    0.124267 0.538529 0.513551 0.237386
H83   H     H_    0.091069 0.553390 0.495662 0.257949
C190  C     C_3   0.892887 0.526483 0.500135 -0.897801
H84   H     H_    0.921366 0.524901 0.471984 0.240775
H85   H     H_    0.883659 0.511928 0.468623 0.241865
H86   H     H_    0.885439 0.553890 0.502158 0.249718
C191  C     C_3   0.606009 0.029192 0.496516 -0.885569
H87   H     H_    0.587847 0.010475 0.535472 0.229998
H88   H     H_    0.624793 0.037033 0.513690 0.239758
H89   H     H_    0.591603 0.052466 0.496292 0.256985
C192  C     C_3   0.393330 0.027858 0.500402 -0.899580
H90   H     H_    0.421740 0.025333 0.471732 0.241697
H91   H     H_    0.383465 0.014248 0.468958 0.239605
H92   H     H_    0.386727 0.055557 0.503072 0.249416
O53   O     O_3   0.497641 0.676712 0.890586 -0.757567
H93   H     H_    0.496785 0.660220 0.856737 0.342459
O54   O     O_3   0.503587 0.677566 0.105676 -0.755869
H94   H     H_    0.504154 0.661340 0.140251 0.340838
O55   O     O_3   0.006720 0.174176 0.106800 -0.749030
H95   H     H_    0.012804 0.198694 0.095540 0.342941
O56   O     O_3   0.999892 0.177315 0.889987 -0.747403
H96   H     H_    0.998718 0.161025 0.856179 0.337072
O57   O     O_3   0.056894 0.286926 0.893502 -0.753142
H97   H     H_    0.074861 0.270755 0.860996 0.342000
O58   O     O_3   0.944945 0.285482 0.100701 -0.753261
H98   H     H_    0.927479 0.268848 0.132993 0.344402
O59   O     O_3   0.447542 0.786801 0.104741 -0.741582
H99   H     H_    0.430804 0.770564 0.139918 0.338930
O60   O     O_3   0.554611 0.783101 0.880986 -0.741530
H100  H     H_    0.549442 0.807721 0.879511 0.345990
O61   O     O_3   0.049630 0.395238 0.017636 -0.728884
H101  H     H_    0.065425 0.378757 0.022338 0.341936
O62   O     O_3   0.950436 0.395202 0.982079 -0.727809
H102  H     H_    0.934857 0.378702 0.976709 0.342983
O63   O     O_3   0.549472 0.894730 0.017293 -0.729103
H103  H     H_    0.565192 0.878085 0.021828 0.343479
O64   O     O_3   0.450491 0.895738 0.980997 -0.730440
H104  H     H_    0.434939 0.879401 0.975132 0.341491
O65   O     O_3   0.555001 0.392857 0.888098 -0.744528
H105  H     H_    0.556558 0.417154 0.899599 0.338813
O66   O     O_3   0.445032 0.392824 0.111956 -0.740515
H106  H     H_    0.443473 0.417129 0.100474 0.340458
O67   O     O_3   0.054629 0.892575 0.003658 -0.751268
H107  H     H_    0.056253 0.916927 0.989340 0.334558
O68   O     O_3   0.945114 0.893112 0.996543 -0.753840
H108  H     H_    0.943439 0.917315 0.011756 0.332673
C193  C     C_3   0.459624 0.286984 0.947999 -0.883728
H109  H     H_    0.446274 0.268907 0.929749 0.237842
H110  H     H_    0.439787 0.303183 0.990324 0.248314
H111  H     H_    0.476821 0.303606 0.902982 0.251563
C194  C     C_3   0.540425 0.286927 0.052017 -0.883808
H112  H     H_    0.553770 0.268830 0.070264 0.238021
H113  H     H_    0.560265 0.303130 0.009692 0.248085
H114  H     H_    0.523233 0.303542 0.097036 0.251535
C195  C     C_3   0.958402 0.787026 0.130978 -0.878452
H115  H     H_    0.944796 0.768955 0.175703 0.238109
H116  H     H_    0.975266 0.803733 0.142605 0.251700
H117  H     H_    0.938733 0.803130 0.127230 0.248866
C196  C     C_3   0.041546 0.785689 0.865724 -0.889020
H118  H     H_    0.033177 0.777099 0.827753 0.244923
H119  H     H_    0.039656 0.814112 0.868851 0.255872
H120  H     H_    0.069004 0.778568 0.844970 0.243955
C197  C     C_3   0.961885 0.555260 0.725402 -0.941334
H121  H     H_    0.943569 0.548252 0.706516 0.253048
H122  H     H_    0.947850 0.571211 0.773447 0.251267
H123  H     H_    0.982949 0.571479 0.685799 0.269045
C198  C     C_3   0.039618 0.554117 0.273487 -0.941926
H124  H     H_    0.019173 0.570987 0.312795 0.269907
H125  H     H_    0.057723 0.546281 0.292407 0.251667
H126  H     H_    0.054151 0.569716 0.225077 0.251354
C199  C     C_3   0.461174 0.054724 0.725906 -0.942755
H127  H     H_    0.442956 0.047333 0.707002 0.252476
H128  H     H_    0.446902 0.070509 0.774119 0.250615
H129  H     H_    0.481953 0.071253 0.686441 0.269591
C200  C     C_3   0.539056 0.054564 0.273888 -0.942618
H130  H     H_    0.553401 0.070302 0.225614 0.250765
H131  H     H_    0.518377 0.071190 0.313312 0.269758
H132  H     H_    0.557246 0.047033 0.292789 0.252244
O69   O     O_3   0.002576 0.468210 0.713734 -0.776008
H133  H     H_    0.018182 0.454324 0.672107 0.350394
O70   O     O_3   0.996084 0.468526 0.287601 -0.776085
H134  H     H_    0.980229 0.455033 0.329679 0.350993
O71   O     O_3   0.503200 0.968339 0.713125 -0.777236
H135  H     H_    0.518924 0.954638 0.671291 0.350013
O72   O     O_3   0.496593 0.968414 0.287097 -0.775323
H136  H     H_    0.480830 0.954771 0.329007 0.351109
O73   O     O_3   0.390383 0.540674 0.196533 -0.747783
H137  H     H_    0.412562 0.549296 0.158220 0.336130
O74   O     O_3   0.610696 0.539630 0.802357 -0.746463
H138  H     H_    0.588532 0.548519 0.840243 0.336620
O75   O     O_3   0.889173 0.040049 0.196867 -0.746227
H139  H     H_    0.911416 0.048738 0.158895 0.337160
O76   O     O_3   0.109458 0.040489 0.803054 -0.748503
H140  H     H_    0.087305 0.049209 0.841287 0.336566
O77   O     O_3   0.285534 0.472419 0.319387 -0.763886
H141  H     H_    0.268841 0.466522 0.368814 0.337014
O78   O     O_3   0.717719 0.464603 0.678548 -0.759182
H142  H     H_    0.693501 0.458481 0.711606 0.346425
O79   O     O_3   0.782257 0.965618 0.323189 -0.760994
H143  H     H_    0.806429 0.959213 0.290414 0.344270
O80   O     O_3   0.214415 0.971959 0.682200 -0.766277
H144  H     H_    0.231091 0.965653 0.633013 0.336357

loop_
_geom_bond_atom_site_label_1
_geom_bond_atom_site_label_2
_geom_bond_distance
_ccdc_geom_bond_type
C59   C63   1.399342 A    
O76   H140  0.989518 S    
C141  C145  1.410552 A    
O57   H97   0.991767 S    
C51   C55   1.393640 A    
O75   H139  0.989405 S    
C90   H34   1.084398 S    
C128  H44   1.083919 S    
C152  C156  1.389871 A    
C66   C70   1.401519 A    
O27   C101  1.278109 A    
C190  H84   1.107247 S    
C189  H81   1.110698 S    
C81   C85   1.412414 A    
C26   C46   1.403037 A    
C141  O61   1.382426 S    
C137  H45   1.083979 S    
C151  C155  1.390121 A    
C197  H122  1.110349 S    
C164  C172  1.414293 A    
C9    C13   1.342812 D    
C60   C64   1.399841 A    
C155  C158  1.393323 A    
C178  H62   1.082998 S    
C28   C48   1.402597 A    
C129  C133  1.408018 A    
C165  H53   1.083929 S    
O30   C103  1.284630 A    
C38   H14   1.083998 S    
C116  H40   1.083291 S    
C167  H55   1.083919 S    
C47   C109  1.459671 S    
C84   C88   1.414736 A    
C142  C145  1.410717 A    
C91   C95   1.399522 A    
C118  O54   1.382157 S    
O19   C98   1.283593 A    
C51   C71   1.418042 A    
C78   C82   1.414492 A    
C117  C121  1.405928 A    
C127  C129  1.399392 A    
O35   Zn11  2.014430 S    
C167  C170  1.399008 A    
O26   C100  1.278397 A    
C137  C141  1.399217 A    
C50   C54   1.393292 A    
C73   C77   1.394806 A    
C68   C72   1.400636 A    
C125  C135  1.396036 A    
O15   C7    1.277083 A    
C116  C120  1.399405 A    
C58   C62   1.399348 A    
O44   Zn11  2.012630 S    
C113  H37   1.083268 S    
O7    Zn4   2.011123 S    
C152  O68   1.382613 S    
C130  C133  1.407730 A    
O13   Zn3   2.005084 S    
C185  H71   1.109473 S    
C83   C87   1.412492 A    
C42   C46   1.418594 A    
C8    C24   1.459556 S    
O4    Zn2   2.011512 S    
O56   H96   0.991707 S    
C36   C40   1.399386 A    
O22   Zn6   2.006109 S    
O9    C5    1.286820 A    
C26   H6    1.083624 S    
C192  H92   1.110252 S    
C49   C69   1.407173 A    
O25   Zn6   2.003731 S    
C77   C81   1.413754 A    
C20   C200  1.512809 S    
C195  H115  1.110802 S    
C161  C171  1.411495 A    
C149  C153  1.390065 A    
O35   C106  1.276575 A    
C163  C195  1.508514 S    
C27   C47   1.402950 A    
C190  H86   1.110273 S    
C58   C94   1.465723 S    
C189  H83   1.109710 S    
O39   C109  1.280614 A    
C126  C135  1.396611 A    
C52   C72   1.406757 A    
C16   C102  1.443939 S    
O3    Zn2   2.011479 S    
C49   O77   1.381701 S    
O66   H106  0.988420 S    
C29   H9    1.083434 S    
C173  C183  1.401211 A    
C196  H118  1.110475 S    
C31   H11   1.083429 S    
C19   C199  1.512808 S    
C32   H12   1.083440 S    
C113  C117  1.398805 A    
O20   C98   1.283676 A    
C173  C177  1.389549 A    
C85   C189  1.509110 S    
C199  H127  1.110095 S    
C154  C157  1.393133 A    
C80   C188  1.510005 S    
C34   C38   1.399646 A    
Zn5   O29   2.014523 S    
C25   H5    1.083639 S    
C127  C136  1.395985 A    
O21   C99   1.279601 A    
C27   H7    1.083640 S    
O22   C100  1.279219 A    
O3    C3    1.283435 A    
C186  H72   1.109358 S    
C140  C148  1.394765 A    
C134  C148  1.459679 S    
O58   H98   0.991771 S    
C17   C21   1.357357 D    
C162  C194  1.508025 S    
C63   H23   1.083254 S    
C200  H130  1.110326 S    
O61   H101  0.991809 S    
C19   C23   1.357167 D    
C20   C24   1.357082 D    
C194  H113  1.110039 S    
C1    C81   1.454968 S    
C127  H43   1.083899 S    
C111  C123  1.462667 S    
O53   H93   0.991697 S    
C166  C169  1.398340 A    
C37   C41   1.391786 A    
O54   H94   0.991698 S    
O70   H134  0.991084 S    
C39   C43   1.392918 A    
C198  H124  1.109590 S    
O77   H141  0.991714 S    
C60   C96   1.464153 S    
C73   H29   1.083912 S    
C11   C19   1.474739 S    
C121  C135  1.461097 S    
C12   C16   1.343101 D    
C128  C136  1.396432 A    
C117  O53   1.382370 S    
O38   Zn10  2.009981 S    
C143  O63   1.382313 S    
C25   C29   1.387734 A    
C76   C80   1.394750 A    
C67   C71   1.401636 A    
C187  H76   1.110787 S    
C28   C32   1.387652 A    
C31   C35   1.397452 A    
O5    Zn3   2.011123 S    
C87   C91   1.396576 A    
C142  O62   1.382332 S    
C73   C93   1.398143 A    
C195  H117  1.109992 S    
C10   O50   1.383156 S    
C155  H51   1.084026 S    
C153  C157  1.393138 A    
O8    C4    1.280289 A    
O23   C101  1.279413 A    
C43   O75   1.380450 S    
O10   Zn1   2.005091 S    
C138  C147  1.395808 A    
C188  H79   1.110798 S    
C150  C154  1.390055 A    
C22   O70   1.389527 S    
C177  C181  1.403233 A    
O7    C3    1.281172 A    
C5    C21   1.460286 S    
C191  H88   1.110809 S    
C196  H120  1.110371 S    
C104  C182  1.462133 S    
C39   H15   1.083984 S    
C139  C143  1.399625 A    
C10   C14   1.343258 D    
C23   O71   1.389596 S    
C176  H60   1.083301 S    
O41   Zn10  2.012627 S    
C199  H129  1.109619 S    
C64   C68   1.387078 A    
C105  C159  1.454383 S    
O40   Zn12  2.009981 S    
C143  C146  1.410761 A    
C44   O76   1.380306 S    
O27   Zn8   2.003731 S    
C126  H42   1.084049 S    
C165  C169  1.398290 A    
C164  C196  1.509507 S    
C98   C146  1.461786 S    
O5    C1    1.280906 A    
C45   C107  1.457969 S    
C75   H31   1.083902 S    
O78   H142  0.989291 S    
C74   C94   1.397913 A    
C80   C84   1.414418 A    
C186  H74   1.109562 S    
C24   O72   1.389580 S    
C200  H132  1.110155 S    
O15   Zn4   2.005084 S    
C42   O74   1.380363 S    
C137  C147  1.395727 A    
O28   C102  1.278194 A    
C131  C134  1.408272 A    
O4    C4    1.282851 A    
O33   Zn9   2.014430 S    
C68   H28   1.083570 S    
C198  H126  1.110312 S    
C118  C121  1.406319 A    
C193  H110  1.110036 S    
C116  C124  1.399968 A    
C156  C158  1.393048 A    
C9    C17   1.474710 S    
C174  H58   1.083303 S    
C150  O66   1.382628 S    
C89   H33   1.083922 S    
C112  C124  1.462551 S    
C115  C119  1.389964 A    
O10   C6    1.286823 A    
C7    C23   1.459722 S    
C40   C44   1.391555 A    
C197  H121  1.109982 S    
C36   C72   1.460776 S    
C119  C122  1.417506 A    
C161  C193  1.508026 S    
O44   C110  1.280513 A    
C53   H17   1.083602 S    
C168  C170  1.399017 A    
C178  C181  1.403216 A    
C55   H19   1.083745 S    
C180  H64   1.083002 S    
C4    C84   1.453329 S    
C33   C69   1.461635 S    
C55   C59   1.401754 A    
C35   C71   1.463477 S    
Zn6   O30   2.014497 S    
C30   H10   1.083437 S    
C17   C197  1.512754 S    
O69   H133  0.990965 S    
C86   C190  1.510250 S    
C174  C178  1.389421 A    
C44   C48   1.418242 A    
O55   H95   0.988625 S    
C65   C69   1.400751 A    
O68   H108  0.988420 S    
C144  O64   1.382371 S    
O20   Zn8   2.014834 S    
C138  H46   1.083928 S    
O21   Zn5   2.006110 S    
O42   C108  1.281002 A    
C50   O78   1.381248 S    
O48   C112  1.283896 A    
C191  H89   1.109768 S    
C38   C42   1.392757 A    
C61   C65   1.386914 A    
O64   H104  0.991814 S    
C130  O58   1.382009 S    
C63   C67   1.387342 A    
C18   C22   1.356913 D    
C25   C45   1.402386 A    
C185  H70   1.110798 S    
C190  H85   1.110649 S    
O72   H136  0.991036 S    
C120  O56   1.382571 S    
O60   H100  0.988539 S    
C37   H13   1.083948 S    
C149  C159  1.421359 A    
C192  H91   1.110686 S    
Zn8   O32   2.014497 S    
C46   C108  1.459634 S    
C92   H36   1.084419 S    
C76   H32   1.083893 S    
O52   H68   0.991296 S    
O14   C6    1.276699 A    
Zn9   O45   2.014057 S    
C13   C99   1.443653 S    
C9    O49   1.383050 S    
C14   C100  1.444060 S    
C163  C172  1.412579 A    
C79   C187  1.509671 S    
C54   H18   1.083739 S    
C189  H82   1.110819 S    
O12   Zn2   2.005091 S    
C75   C95   1.398406 A    
C89   C93   1.399192 A    
C26   C30   1.388106 A    
C168  H56   1.083917 S    
O1    C1    1.282837 A    
O18   C97   1.283556 A    
C86   C90   1.395165 A    
C197  H123  1.109643 S    
C49   C53   1.401875 A    
C48   C110  1.457860 S    
O49   H65   0.991321 S    
C18   C198  1.512855 S    
C125  H41   1.083904 S    
O43   Zn12  2.012627 S    
C140  H48   1.083972 S    
O37   Zn9   2.009976 S    
C138  C142  1.399887 A    
C152  C160  1.421431 A    
C15   H3    1.088480 S    
O13   C5    1.277371 A    
C153  H49   1.084028 S    
C3    C83   1.456727 S    
O23   Zn7   2.006110 S    
O24   C102  1.279374 A    
O46   C111  1.283278 A    
C41   C45   1.418241 A    
O34   Zn10  2.014178 S    
C50   C70   1.417716 A    
C6    C22   1.459070 S    
C87   C191  1.508847 S    
C139  H47   1.083953 S    
C113  C123  1.400859 A    
C11   C15   1.343012 D    
C176  C180  1.389566 A    
C41   O73   1.380379 S    
C88   C192  1.510445 S    
C64   H24   1.083230 S    
O40   C110  1.280070 A    
C144  C146  1.410992 A    
C194  H112  1.110790 S    
C169  C183  1.463370 S    
C180  C182  1.403213 A    
C85   C89   1.395439 A    
O28   Zn7   2.003731 S    
C114  C123  1.400722 A    
C75   C79   1.395389 A    
C133  C147  1.461145 S    
C88   C92   1.394031 A    
C29   C33   1.397794 A    
O6    C2    1.280587 A    
O32   C104  1.284602 A    
O16   Zn4   2.004838 S    
C90   C94   1.398862 A    
C119  O55   1.382362 S    
C43   C47   1.418551 A    
O51   H67   0.991304 S    
C33   C37   1.399609 A    
C115  C124  1.400157 A    
C122  C136  1.459754 S    
C15   C101  1.443820 S    
O36   C106  1.276402 A    
O2    Zn1   2.011512 S    
C35   C39   1.399873 A    
O73   H137  0.989493 S    
O17   C97   1.283818 A    
C187  H75   1.109646 S    
C173  H57   1.083298 S    
C139  C148  1.395127 A    
C106  C160  1.454318 S    
C21   O69   1.389661 S    
C32   C36   1.397535 A    
C92   C96   1.398584 A    
C195  H116  1.110327 S    
C10   C18   1.474826 S    
C162  C171  1.411487 A    
C103  C181  1.462109 S    
C179  H63   1.083006 S    
O34   C105  1.276500 A    
C151  O67   1.382682 S    
C129  O57   1.382024 S    
C77   C185  1.509751 S    
C115  H39   1.083549 S    
O50   H66   0.991287 S    
C59   C95   1.465853 S    
C51   O79   1.381165 S    
C188  H78   1.109560 S    
C175  H59   1.083302 S    
O62   H102  0.991805 S    
C56   H20   1.083589 S    
C40   H16   1.083981 S    
C120  C122  1.406813 A    
O71   H135  0.991025 S    
C126  C132  1.390105 A    
C191  H87   1.110696 S    
C91   H35   1.083904 S    
C196  H119  1.107896 S    
C174  C183  1.401186 A    
C161  C167  1.395154 A    
C162  C168  1.395155 A    
C163  C165  1.394913 A    
C79   C83   1.413833 A    
C199  H128  1.110334 S    
O43   C109  1.280986 A    
C132  C134  1.418950 A    
C52   O80   1.381736 S    
O42   Zn9   2.012630 S    
C30   C34   1.397112 A    
C52   C56   1.401439 A    
C186  H73   1.110790 S    
C200  H131  1.109609 S    
C175  C179  1.389544 A    
C128  C130  1.399272 A    
C176  C184  1.401223 A    
C65   H25   1.083563 S    
C78   C186  1.509923 S    
C11   O51   1.383102 S    
O11   C7    1.286791 A    
C82   C86   1.414968 A    
C76   C96   1.397676 A    
O12   C8    1.286857 A    
O1    Zn1   2.011479 S    
O9    Zn1   2.004833 S    
C198  H125  1.110243 S    
O41   C107  1.280761 A    
C61   H21   1.083249 S    
O36   Zn12  2.014178 S    
C125  C131  1.398933 A    
O16   C8    1.276938 A    
C16   H4    1.088470 S    
O74   H138  0.989433 S    
O33   C105  1.276496 A    
O11   Zn2   2.004833 S    
O29   C103  1.284585 A    
C166  H54   1.084403 S    
C12   O52   1.383115 S    
O39   Zn11  2.009976 S    
C114  H38   1.083275 S    
O45   C111  1.284219 A    
C53   C57   1.401942 A    
C74   H30   1.083883 S    
C187  H77   1.109487 S    
O25   C99   1.277850 A    
C150  C159  1.421361 A    
C97   C145  1.462017 S    
Zn10  O46   2.014307 S    
C193  H111  1.110320 S    
O6    Zn3   2.011101 S    
Zn7   O31   2.014523 S    
C156  H52   1.084035 S    
O31   C104  1.284625 A    
O17   Zn5   2.014808 S    
C12   C20   1.474830 S    
O18   Zn6   2.014834 S    
C149  O65   1.382632 S    
O67   H107  0.988357 S    
Zn11  O47   2.014057 S    
C164  C166  1.394105 A    
C34   C70   1.462553 S    
C188  H80   1.109548 S    
C175  C184  1.401206 A    
C27   C31   1.388272 A    
O2    C2    1.283419 A    
C56   C60   1.402099 A    
C13   H1    1.088511 S    
O63   H103  0.991814 S    
O47   C112  1.283571 A    
C66   H26   1.083732 S    
C177  H61   1.082994 S    
C140  C144  1.399400 A    
O37   C107  1.279890 A    
C14   H2    1.088445 S    
C157  C171  1.459170 S    
C57   C93   1.464216 S    
O14   Zn3   2.004838 S    
C2    C82   1.455076 S    
C158  C172  1.458383 S    
C154  H50   1.084031 S    
C179  C182  1.403221 A    
O24   Zn8   2.006109 S    
O59   H99   0.991767 S    
C114  C118  1.400192 A    
C194  H114  1.110324 S    
C131  O59   1.382407 S    
C132  O60   1.382190 S    
O65   H105  0.988433 S    
C170  C184  1.463478 S    
O19   Zn7   2.014808 S    
C193  H109  1.110795 S    
O8    Zn4   2.011101 S    
C74   C78   1.395289 A    
C62   H22   1.083238 S    
C185  H69   1.109805 S    
C62   C66   1.387362 A    
O80   H144  0.991715 S    
O38   C108  1.280590 A    
O79   H143  0.989330 S    
Zn12  O48   2.014307 S    
O26   Zn5   2.003731 S    
C67   H27   1.083715 S    
C192  H90   1.107238 S    
C54   C58   1.401920 A    
C57   C61   1.399763 A    
C151  C160  1.421447 A    
C28   H8    1.083672 S    
