data_mof_unit_5331.cif
_audit_creation_date              2012-12-10T18:13:24-0500
_audit_creation_method            fapswitch 2.2
_symmetry_space_group_name_H-M    P1
_symmetry_Int_Tables_number       1
_space_group_crystal_system       triclinic
_cell_length_a                    12.703682
_cell_length_b                    13.116178
_cell_length_c                    16.673315
_cell_angle_alpha                 89.03622
_cell_angle_beta                  98.004624
_cell_angle_gamma                 97.378598
_cell_volume                      2728.31924947

loop_
_atom_site_label
_atom_site_type_symbol
_atom_type_description
_atom_site_fract_x
_atom_site_fract_y
_atom_site_fract_z
_atom_type_partial_charge
C1    C     C_R   0.558974 0.690622 0.514894 0.908096
C2    C     C_R   0.467765 0.461307 0.731577 -0.044583
C3    C     C_R   0.275696 0.052062 0.506209 -0.197923
C4    C     C_R   0.512570 0.496245 0.349062 0.861642
C5    C     C_R   0.404831 0.197800 0.482517 -0.142652
C6    C     C_R   0.703562 0.836705 0.530865 -0.247771
C7    C     C_R   0.736335 0.941846 0.534093 0.072299
C8    C     C_R   0.659982 0.009688 0.531665 -0.221494
C9    C     C_R   0.550214 0.971944 0.532195 0.038343
C10   C     C_R   0.522779 0.866949 0.547623 0.046339
C11   C     C_R   0.466491 0.033949 0.517418 0.087463
C12   C     C_R   0.596597 0.433711 0.237438 -0.199599
C13   C     C_R   0.360166 0.993237 0.527062 0.085915
C14   C     C_R   0.340196 0.895208 0.559381 -0.304289
C15   C     C_R   0.422776 0.834017 0.574766 0.234791
C16   C     C_R   0.440642 0.308586 0.486917 0.881550
C17   C     C_R   0.485361 0.134589 0.491151 -0.280534
C18   C     C_R   0.296702 0.154831 0.481292 0.233322
C19   C     C_R   0.595864 0.798774 0.534144 -0.139207
C20   C     C_R   0.904372 0.393042 0.642064 -0.292648
C21   C     C_R   0.207327 0.618683 0.396122 -0.042184
C22   C     C_R   0.105056 0.645334 0.373270 -0.024803
C23   C     C_R   0.510224 0.346994 0.843724 0.036439
C24   C     C_R   0.021964 0.604409 0.415304 -0.234136
C25   C     C_R   0.040777 0.536885 0.481097 -0.014353
C26   C     C_R   0.146986 0.511893 0.503608 0.166506
C27   C     C_R   0.957311 0.491924 0.524538 -0.001192
C28   C     C_R   0.485208 0.496524 0.650498 0.886184
C29   C     C_R   0.983383 0.439770 0.598140 0.171529
C30   C     C_R   0.087470 0.426658 0.624861 -0.329400
C31   C     C_R   0.164550 0.447085 0.573834 -0.044675
C32   C     C_R   0.848028 0.494128 0.497782 -0.055691
C33   C     C_R   0.798730 0.395839 0.611497 0.018639
C34   C     C_R   0.531776 0.390428 0.770322 -0.227180
C35   C     C_R   0.514119 0.481043 0.262999 -0.071927
C36   C     C_R   0.429202 0.506337 0.206503 -0.256515
C37   C     C_R   0.423551 0.480354 0.125100 0.251736
C38   C     C_R   0.505379 0.429606 0.100681 0.137586
C39   C     C_R   0.592420 0.408873 0.156606 -0.214711
C40   C     C_3   0.103788 0.180889 0.467785 -0.765570
C41   C     C_1   0.848031 0.979754 0.536087 0.150917
C42   C     C_3   0.473266 0.758107 0.704518 -0.800542
C43   C     C_1   0.085472 0.715121 0.306850 0.140375
C44   C     C_1   0.241656 0.376614 0.593328 0.330792
C45   C     C_R   0.377972 0.483983 0.764838 -0.227315
C46   C     C_1   0.577382 0.273919 0.881838 0.135967
C47   C     C_3   0.233468 0.467090 0.076629 -0.822971
C48   C     C_R   0.357227 0.442298 0.838989 -0.165042
C49   C     C_R   0.425503 0.377171 0.880075 0.128851
C50   C     C_2   0.508944 0.407392 0.016047 -0.200413
C51   C     C_2   0.423203 0.364824 0.966765 -0.198249
H1    H     H_    0.367123 0.545984 0.225523 0.162433
H2    H     H_    0.104506 0.384035 0.680900 0.155711
H3    H     H_    0.924092 0.352958 0.698491 0.145683
H4    H     H_    0.819270 0.533528 0.443485 0.126259
H5    H     H_    0.272568 0.649768 0.363872 0.140485
H6    H     H_    0.944132 0.628638 0.396967 0.141996
H7    H     H_    0.324769 0.534893 0.734101 0.156779
H8    H     H_    0.347540 0.340925 0.988895 0.177520
H9    H     H_    0.656766 0.372349 0.137655 0.153862
H10   H     H_    0.663327 0.413822 0.279995 0.167231
H11   H     H_    0.583687 0.432990 0.992620 0.156576
H12   H     H_    0.292072 0.466105 0.866757 0.149718
H13   H     H_    0.219346 0.252345 0.399585 0.234086
H14   H     H_    0.070475 0.112357 0.429888 0.246269
H15   H     H_    0.053348 0.243172 0.450928 0.239081
H16   H     H_    0.101669 0.163569 0.533000 0.261108
H17   H     H_    0.330377 0.717434 0.628902 0.230985
H18   H     H_    0.458388 0.687721 0.740897 0.232029
H19   H     H_    0.451829 0.823939 0.737272 0.245718
H20   H     H_    0.559989 0.770753 0.698687 0.247560
H21   H     H_    0.347009 0.591389 0.061492 0.230315
H22   H     H_    0.177331 0.485914 0.022884 0.245299
H23   H     H_    0.261556 0.867590 0.575184 0.149692
H24   H     H_    0.207869 0.497949 0.131452 0.242121
H25   H     H_    0.229050 0.382095 0.081433 0.247889
H26   H     H_    0.194505 0.017271 0.509860 0.160197
H27   H     H_    0.563890 0.166991 0.479262 0.171109
H28   H     H_    0.761889 0.784851 0.524584 0.168251
H29   H     H_    0.688812 0.090745 0.531527 0.136179
H30   H     H_    0.735872 0.362039 0.644901 0.129906
H31   H     H_    0.597576 0.367344 0.742923 0.150787
N1    N     N_R   0.774070 0.445420 0.541180 -0.106491
N2    N     N_R   0.226730 0.554050 0.459240 -0.137100
N3    N     N_2   0.212503 0.215216 0.453996 -0.296689
N4    N     N_1   0.938052 0.009534 0.538108 -0.238160
N5    N     N_2   0.409171 0.746164 0.625541 -0.274921
N6    N     N_1   0.069757 0.771221 0.253486 -0.202465
N7    N     N_1   0.298330 0.316337 0.615433 -0.214888
N8    N     N_1   0.631159 0.215416 0.912362 -0.203188
N9    N     N_2   0.341079 0.512527 0.067243 -0.315689
O1    O     O_R   0.631480 0.627510 0.519670 -0.615605
O2    O     O_R   0.455770 0.662400 0.493360 -0.599826
O3    O     O_R   0.598240 0.480510 0.398910 -0.623036
O4    O     O_R   0.422540 0.515400 0.372600 -0.626795
O5    O     O_R   0.544230 0.337600 0.506640 -0.617843
O6    O     O_R   0.368520 0.372490 0.480330 -0.608796
O7    O     O_R   0.577460 0.484600 0.627400 -0.622643
O8    O     O_R   0.401760 0.519490 0.601090 -0.616661
Zn1   Zn    Zn3+2 0.617320 0.476700 0.517570 0.936746
Zn2   Zn    Zn3+2 0.382680 0.523300 0.482430 0.943500

loop_
_geom_bond_atom_site_label_1
_geom_bond_atom_site_label_2
_ccdc_geom_bond_type
C27   C29   A    
C35   C36   A    
C7    C8    A    
C41   N4    T    
C29   C30   A    
C43   N6    T    
C14   H23   S    
C36   C37   A    
C47   H25   S    
C10   C15   A    
C30   C31   A    
C16   O6    A    
C23   C49   A    
C5    C17   A    
C42   H19   S    
C3    C18   A    
C17   H27   S    
C5    C16   S    
C8    C9    A    
C49   C51   S    
C40   H16   S    
C46   N8    T    
C9    C10   A    
C32   H4    S    
C3    C13   A    
C2    C34   A    
C4    C35   S    
C26   C31   A    
C23   C46   S    
C40   H15   S    
C13   C14   A    
N2    Zn2   S    
C20   C29   A    
C2    C45   A    
C30   H2    S    
C45   H7    S    
C16   O5    A    
C18   N3    S    
C1    C19   S    
C31   C44   S    
C37   N9    S    
C24   C25   A    
C47   H22   S    
C20   H3    S    
O2    Zn2   S    
H21   N9    S    
C24   H6    S    
C48   H12   S    
C5    C18   A    
C25   C26   A    
C42   H18   S    
C40   N3    S    
C37   C38   A    
C6    C19   A    
C4    O4    A    
C33   N1    A    
C22   C43   S    
C21   N2    A    
O3    Zn1   S    
C10   C19   A    
C23   C34   A    
C50   C51   D    
C12   C35   A    
C9    C11   A    
C4    O3    A    
C20   C33   A    
C28   O8    A    
C48   C49   A    
O8    Zn2   S    
C1    O1    A    
O7    Zn1   S    
N1    Zn1   S    
C50   H11   S    
C22   C24   A    
C51   H8    S    
C3    H26   S    
H13   N3    S    
O1    Zn1   S    
C15   N5    S    
C45   C48   A    
C28   O7    A    
C32   N1    A    
C11   C17   A    
C26   N2    A    
C27   C32   A    
C47   N9    S    
C36   H1    S    
C21   H5    S    
C6    C7    A    
C38   C50   S    
C25   C27   A    
C40   H14   S    
C12   C39   A    
C47   H24   S    
C12   H10   S    
C11   C13   A    
C6    H28   S    
C38   C39   A    
C39   H9    S    
O5    Zn1   S    
C42   H20   S    
C7    C41   S    
C1    O2    A    
C8    H29   S    
H17   N5    S    
C14   C15   A    
C2    C28   S    
C42   N5    S    
C34   H31   S    
C21   C22   A    
C33   H30   S    
O6    Zn2   S    
C44   N7    T    
O4    Zn2   S    
