data_mof_unit_23153.cif
_audit_creation_date              2013-03-05T16:08:00-0500
_audit_creation_method            fapswitch 2.2
_symmetry_space_group_name_H-M    P1
_symmetry_Int_Tables_number       1
_space_group_crystal_system       triclinic
_cell_length_a                    23.386276
_cell_length_b                    11.560726
_cell_length_c                    10.751706
_cell_angle_alpha                 90.108697
_cell_angle_beta                  89.769283
_cell_angle_gamma                 89.801054
_cell_volume                      2906.809876

loop_
_atom_site_label
_atom_site_type_symbol
_atom_site_description
_atom_site_fract_x
_atom_site_fract_y
_atom_site_fract_z
_atom_type_partial_charge
O1    O     O_R   0.500000 0.334450 0.602530 -0.603807
O2    O     O_R   0.500000 0.665550 0.397470 -0.606737
O3    O     O_R   0.500000 0.665550 0.602530 -0.614581
O4    O     O_R   0.500000 0.334450 0.397470 -0.605292
C1    C     C_R   0.499698 0.281124 0.499906 0.908562
C2    C     C_R   0.500568 0.718872 0.500095 0.909758
O5    O     O_R   0.416150 0.500000 0.602560 -0.618892
O6    O     O_R   0.583850 0.500000 0.397440 -0.614594
O7    O     O_R   0.583850 0.500000 0.602560 -0.623755
O8    O     O_R   0.416150 0.500000 0.397440 -0.620904
C3    C     C_R   0.388790 0.502818 0.500088 0.918796
C4    C     C_R   0.611246 0.499298 0.499407 0.899994
Zn1   Zn    Zn3+2 0.500000 0.500000 0.636920 0.965356
Zn2   Zn    Zn3+2 0.500000 0.500000 0.363080 0.964537
C5    C     C_R   0.878820 0.604957 0.441138 0.554846
C6    C     C_R   0.121884 0.415252 0.410118 0.541817
C7    C     C_R   0.884282 0.398718 0.445444 0.540648
C8    C     C_R   0.117250 0.616191 0.462101 0.541266
N1    N     N_R   0.853666 0.499242 0.454808 -0.346731
N2    N     N_R   0.147408 0.515939 0.445938 -0.355227
C9    C     C_R   0.942603 0.401877 0.415359 -0.183761
C10   C     C_R   0.058600 0.619486 0.436298 -0.178235
C11   C     C_R   0.938534 0.613365 0.430829 -0.166115
C12   C     C_R   0.062256 0.410720 0.396396 -0.185324
C13   C     C_R   0.970452 0.509942 0.417799 -0.153562
C14   C     C_R   0.030469 0.513674 0.414653 -0.150642
C15   C     C_R   0.973813 0.300831 0.383664 0.469568
C16   C     C_R   0.027039 0.724193 0.436010 0.453209
C17   C     C_R   0.967070 0.721151 0.434289 0.426105
C18   C     C_R   0.033302 0.306393 0.369072 0.457832
O9    O     O_2   0.845787 0.700866 0.439705 -0.541828
O10   O     O_2   0.154220 0.319451 0.394096 -0.522889
O11   O     O_2   0.857906 0.296712 0.465186 -0.522152
O12   O     O_2   0.144138 0.711106 0.505439 -0.515448
C19   C     C_R   0.243110 0.576527 0.380625 0.165147
C20   C     C_R   0.758979 0.443411 0.377115 0.153548
C21   C     C_R   0.231117 0.459882 0.570428 0.169591
C22   C     C_R   0.767286 0.540464 0.579732 0.200591
C23   C     C_R   0.301280 0.590355 0.410032 0.101768
C24   C     C_R   0.700839 0.423600 0.403394 0.110173
C25   C     C_R   0.291179 0.445351 0.577130 0.081701
C26   C     C_R   0.707562 0.559671 0.579557 0.064833
C27   C     C_R   0.326210 0.513641 0.497803 -0.166536
C28   C     C_R   0.673935 0.493496 0.495845 -0.183242
C29   C     C_R   0.207876 0.516933 0.465674 0.148759
C30   C     C_R   0.792863 0.493540 0.471202 0.161112
C31   C     C_1   0.499832 0.161041 0.499770 -0.196657
C32   C     C_1   0.500668 0.838961 0.500267 -0.192894
C33   C     C_1   0.500112 0.059144 0.499896 0.002757
C34   C     C_1   0.500489 0.940864 0.500157 -0.000654
N3    N     N_1   0.500000 0.500000 0.180630 -0.087409
N4    N     N_1   0.500000 0.500000 0.819370 -0.083223
C35   C     C_1   0.499999 0.499999 0.069690 0.023892
C36   C     C_1   0.499999 0.499999 0.930312 0.029037
O13   O     O_3   0.947225 0.194519 0.371738 -0.524634
C37   C     C_3   0.920780 0.186266 0.253896 -0.257150
H1    H     H_    0.910508 0.271010 0.209560 0.114742
H2    H     H_    0.879866 0.139076 0.264952 0.194267
H3    H     H_    0.948179 0.134531 0.190246 0.145745
O14   O     O_3   0.053710 0.830753 0.442681 -0.518573
C38   C     C_3   0.076126 0.858435 0.324082 -0.195779
H4    H     H_    0.044283 0.846732 0.248446 0.083508
H5    H     H_    0.114809 0.806224 0.302223 0.157145
H6    H     H_    0.088966 0.950659 0.324488 0.224399
O15   O     O_3   0.936923 0.823006 0.453231 -0.530479
C39   C     C_3   0.926216 0.876558 0.337671 -0.114622
H7    H     H_    0.919813 0.814236 0.259601 0.095317
H8    H     H_    0.961129 0.937627 0.314936 0.181390
H9    H     H_    0.886346 0.928229 0.346300 0.200054
O16   O     O_3   0.062545 0.206541 0.336528 -0.532217
C40   C     C_3   0.074615 0.210458 0.207726 -0.240074
H10   H     H_    0.105239 0.280695 0.184857 0.176947
H11   H     H_    0.035251 0.221847 0.151439 0.115031
H12   H     H_    0.094667 0.127315 0.179610 0.175220
C41   C     C_3   0.218463 0.622549 0.258700 -0.388174
C42   C     C_3   0.247137 0.565898 0.145803 -0.889033
H13   H     H_    0.293581 0.584650 0.142400 0.259426
H14   H     H_    0.241013 0.470682 0.148905 0.273609
H15   H     H_    0.227407 0.599465 0.059238 0.255578
H16   H     H_    0.172267 0.604185 0.249100 0.198918
H17   H     H_    0.221713 0.718096 0.254007 0.204786
C43   C     C_3   0.784580 0.414602 0.249579 -0.382348
C44   C     C_3   0.753477 0.478268 0.145041 -0.892793
H18   H     H_    0.708261 0.450626 0.137940 0.258405
H19   H     H_    0.754799 0.573100 0.161676 0.273858
H20   H     H_    0.774914 0.459436 0.054844 0.252007
H21   H     H_    0.829824 0.441575 0.241793 0.201551
H22   H     H_    0.784672 0.319948 0.232636 0.207181
C45   C     C_3   0.191492 0.415375 0.672865 -0.350846
C46   C     C_3   0.199797 0.482900 0.793900 -0.902206
H23   H     H_    0.244480 0.477166 0.827505 0.257296
H24   H     H_    0.188827 0.575453 0.779283 0.283527
H25   H     H_    0.171126 0.447609 0.867036 0.252665
H26   H     H_    0.145719 0.425032 0.649111 0.217224
H27   H     H_    0.197498 0.321188 0.687468 0.214136
C47   C     C_3   0.803769 0.568220 0.693433 -0.396717
C48   C     C_3   0.824433 0.457699 0.756740 -0.864545
H28   H     H_    0.787396 0.402635 0.782452 0.264000
H29   H     H_    0.853607 0.408047 0.695051 0.288947
H30   H     H_    0.848099 0.480193 0.842759 0.244001
H31   H     H_    0.840985 0.622450 0.668450 0.235909
H32   H     H_    0.780187 0.618068 0.764947 0.212333
C49   C     C_3   0.335389 0.691454 0.355731 -0.398740
C50   C     C_3   0.350398 0.779014 0.456975 -0.842742
H33   H     H_    0.310691 0.813905 0.500212 0.274710
H34   H     H_    0.377034 0.738856 0.530357 0.248827
H35   H     H_    0.374621 0.851912 0.415454 0.249714
H36   H     H_    0.374540 0.662240 0.306842 0.232628
H37   H     H_    0.311589 0.740128 0.284376 0.214500
C51   C     C_3   0.669190 0.324633 0.338854 -0.386524
C52   C     C_3   0.651980 0.231083 0.431885 -0.837628
H38   H     H_    0.690668 0.194459 0.476954 0.270716
H39   H     H_    0.623149 0.266123 0.504907 0.247354
H40   H     H_    0.629322 0.160357 0.382630 0.247857
H41   H     H_    0.631421 0.355547 0.286844 0.230998
H42   H     H_    0.695835 0.280548 0.268046 0.209934
C53   C     C_3   0.317383 0.353347 0.662043 -0.398029
C54   C     C_3   0.338682 0.249096 0.587171 -0.820536
H43   H     H_    0.302416 0.208720 0.536853 0.271133
H44   H     H_    0.371936 0.274198 0.518706 0.244374
H45   H     H_    0.357435 0.183952 0.651044 0.247416
H46   H     H_    0.352148 0.389596 0.719540 0.229479
H47   H     H_    0.287046 0.319438 0.731732 0.212520
C55   C     C_3   0.681536 0.655412 0.660600 -0.414267
C56   C     C_3   0.706012 0.774045 0.627105 -0.826673
H48   H     H_    0.752717 0.778261 0.643543 0.279494
H49   H     H_    0.697606 0.793452 0.527652 0.268643
H50   H     H_    0.685035 0.841737 0.684991 0.245220
H51   H     H_    0.634954 0.665128 0.648520 0.230873
H52   H     H_    0.687775 0.636445 0.760727 0.205701

loop_
_geom_bond_atom_site_label_1
_geom_bond_atom_site_label_2
_geom_bond_distance
_ccdc_geom_bond_type
C39   H8    1.108099 S    
O13   C37   1.415323 S    
C47   H32   1.104607 S    
C19   C23   1.407450 A    
C52   H38   1.111011 S    
C42   H15   1.110541 S    
C53   H46   1.106442 S    
O3    C2    1.263201 A    
C50   H34   1.108770 S    
C48   H28   1.111075 S    
N1    C30   1.433872 S    
C26   C55   1.530419 S    
C31   C33   1.177996 T    
C35   C36   1.498551 S    
C5    N1    1.366112 A    
C1    C31   1.388234 S    
C19   C41   1.529843 S    
C2    C32   1.388324 S    
O1    C1    1.262963 A    
C11   C17   1.416073 A    
C16   C17   1.403217 A    
C12   C14   1.414069 A    
C22   C26   1.413504 A    
C15   O13   1.385269 S    
C39   H9    1.109077 S    
C43   H21   1.107019 S    
C37   H1    1.116154 S    
C45   H26   1.106821 S    
C38   H5    1.109908 S    
O7    Zn1   1.993972 S    
C51   C52   1.528403 S    
C48   H29   1.107737 S    
C54   H43   1.111465 S    
Zn2   N3    1.961649 S    
C20   C43   1.529680 S    
C56   H50   1.110612 S    
C20   C30   1.412292 A    
O16   C40   1.413054 S    
C41   H16   1.106926 S    
N2    C29   1.430879 S    
O3    Zn1   1.949957 S    
O6    C4    1.272048 A    
C32   C34   1.178065 T    
C39   H7    1.116050 S    
C9    C15   1.415638 A    
C6    C12   1.403992 A    
C10   C16   1.415601 A    
C47   H31   1.106921 S    
C15   C18   1.401137 A    
C21   C25   1.416208 A    
C25   C27   1.422426 A    
O2    C2    1.263029 A    
C26   C28   1.421640 A    
C50   H33   1.110991 S    
C18   O16   1.383369 S    
N4    C36   1.192816 T    
C12   C18   1.416118 A    
C16   O14   1.384610 S    
C20   C24   1.407241 A    
C42   H13   1.108779 S    
C52   H39   1.108039 S    
O8    Zn2   1.993975 S    
C40   H11   1.111302 S    
C41   H17   1.108693 S    
C24   C51   1.531456 S    
C13   C14   1.404660 A    
C7    C9    1.401088 A    
O14   C38   1.414403 S    
N3    C35   1.192795 T    
C54   H45   1.110514 S    
C45   H27   1.108953 S    
C38   H6    1.108658 S    
O5    C3    1.276709 A    
C41   C42   1.529502 S    
Zn1   N4    1.961648 S    
C46   H24   1.111056 S    
C44   H18   1.108604 S    
C24   C28   1.423121 A    
C6    N2    1.365485 A    
C47   C48   1.526773 S    
C55   H52   1.109167 S    
C7    O11   1.349493 S    
C3    C27   1.468725 S    
C8    O12   1.349735 S    
C49   H36   1.105424 S    
C17   O15   1.384660 S    
C44   H19   1.111042 S    
C33   C34   1.367413 S    
C56   H48   1.108375 S    
O1    Zn1   1.948580 S    
O15   C39   1.412114 S    
C21   C29   1.415694 A    
C19   C29   1.410687 A    
C51   H42   1.104599 S    
C48   H30   1.110624 S    
C46   H25   1.110515 S    
C9    C13   1.411135 A    
O6    Zn2   1.996896 S    
C8    C10   1.400869 A    
C42   H14   1.111083 S    
O4    C1    1.263191 A    
C40   H12   1.108960 S    
C23   C27   1.421636 A    
C5    O9    1.349289 S    
C6    O10   1.349284 S    
C37   H3    1.108548 S    
C21   C45   1.527660 S    
C49   H37   1.103596 S    
C53   H47   1.103256 S    
C40   H10   1.111784 S    
C4    C28   1.467706 S    
C53   C54   1.528932 S    
C46   H23   1.108856 S    
C43   H22   1.108979 S    
C5    C11   1.404159 A    
C7    N1    1.366214 A    
C37   H2    1.109172 S    
C55   H51   1.102972 S    
C52   H40   1.110568 S    
C8    N2    1.365077 A    
C11   C13   1.413746 A    
O4    Zn2   1.949958 S    
C38   H4    1.113263 S    
O2    Zn2   1.948579 S    
O7    C4    1.278587 A    
C54   H44   1.108442 S    
C22   C30   1.415425 A    
O8    C3    1.273773 A    
O5    Zn1   1.996898 S    
C44   H20   1.110727 S    
C43   C44   1.529743 S    
C10   C14   1.410353 A    
C22   C47   1.527801 S    
C49   C50   1.527795 S    
C56   H49   1.111146 S    
C23   C49   1.532489 S    
C25   C53   1.531008 S    
C45   C46   1.529640 S    
C51   H41   1.105941 S    
C50   H35   1.110462 S    
C55   C56   1.531013 S    
