data_mof_unit_27602.cif
_audit_creation_date              2012-12-10T18:58:48-0500
_audit_creation_method            fapswitch 2.2
_symmetry_space_group_name_H-M    P1
_symmetry_Int_Tables_number       1
_space_group_crystal_system       triclinic
_cell_length_a                    12.989444
_cell_length_b                    10.822904
_cell_length_c                    9.549389
_cell_angle_alpha                 90.077388
_cell_angle_beta                  96.068819
_cell_angle_gamma                 90.042955
_cell_volume                      1334.96102931

loop_
_atom_site_label
_atom_site_type_symbol
_atom_type_description
_atom_site_fract_x
_atom_site_fract_y
_atom_site_fract_z
_atom_type_partial_charge
C1    C     C_R   0.498357 0.262441 0.499706 0.800907
C2    C     C_R   0.027756 0.520769 0.563434 0.175817
C3    C     C_R   0.972526 0.480662 0.436030 0.178264
C4    C     C_R   0.865258 0.471739 0.426299 -0.268615
C5    C     C_R   0.867406 0.545608 0.666737 -0.202060
C6    C     C_R   0.974791 0.552872 0.678304 -0.223910
C7    C     C_R   0.500313 0.063893 0.625030 0.030482
C8    C     C_R   0.489245 0.129465 0.498811 -0.075099
C9    C     C_R   0.465340 0.064332 0.371862 -0.218832
C10   C     C_R   0.465384 0.935246 0.371844 -0.217936
C11   C     C_R   0.490363 0.870534 0.498549 -0.110492
C12   C     C_R   0.300595 0.499506 0.473760 0.801409
C13   C     C_R   0.503370 0.936988 0.624165 0.008225
C14   C     C_3   0.583281 0.934288 0.750507 0.298712
C15   C     C_3   0.578262 0.075255 0.751698 -0.503120
C16   C     C_R   0.552758 0.588951 0.081461 0.255332
C17   C     C_R   0.440285 0.419567 0.065710 -0.083713
C18   C     C_R   0.440253 0.419582 0.916843 -0.081339
C19   C     C_R   0.553241 0.588433 0.934044 0.256288
C20   C     C_3   0.667169 0.609612 0.946083 -0.509552
C21   C     C_3   0.666254 0.612607 0.104319 -0.504201
C22   C     C_R   0.498419 0.737515 0.499728 0.804323
C23   C     C_R   0.699472 0.500996 0.526179 0.805553
C24   C     C_R   0.812263 0.505016 0.540911 -0.049814
C25   C     C_R   0.187921 0.496397 0.458651 -0.048064
C26   C     C_R   0.025403 0.450439 0.320344 -0.215117
C27   C     C_R   0.132797 0.458873 0.331402 -0.197280
C28   C     C_R   0.135103 0.527937 0.573995 -0.267597
Cu1   Cu    Cu3+1 0.499990 0.499980 0.640670 0.946706
Cu2   Cu    Cu3+1 0.500010 0.500020 0.359330 0.934841
H1    H     H_    0.823261 0.438429 0.329597 0.140900
H2    H     H_    0.542905 0.112494 0.844041 0.167716
H3    H     H_    0.650479 0.123211 0.729637 0.201834
H4    H     H_    0.393510 0.352840 0.114721 0.131787
H5    H     H_    0.393448 0.352859 0.854221 0.140760
H6    H     H_    0.709651 0.528391 0.910401 0.210234
H7    H     H_    0.687986 0.699665 0.901641 0.241044
H8    H     H_    0.710173 0.534759 0.156868 0.217287
H9    H     H_    0.684357 0.705167 0.151244 0.196611
H10   H     H_    0.827716 0.574201 0.755079 0.158594
H11   H     H_    0.983845 0.420107 0.221885 0.135692
H12   H     H_    0.016206 0.584636 0.776239 0.138429
H13   H     H_    0.172759 0.433880 0.241501 0.151938
H14   H     H_    0.177440 0.558130 0.672091 0.151936
H15   H     H_    0.450461 0.112535 0.272460 0.156155
H16   H     H_    0.450088 0.886782 0.272504 0.162337
H17   H     H_    0.551079 0.893158 0.843234 0.098850
N1    N     N_R   0.500660 0.500930 0.148010 -0.183291
N2    N     N_R   0.500660 0.500890 0.852110 -0.185620
O1    O     O_R   0.500000 0.319640 0.618810 -0.577549
O2    O     O_R   0.500010 0.319680 0.381230 -0.590578
O3    O     O_R   0.348990 0.499960 0.599490 -0.588624
O4    O     O_R   0.349000 0.500000 0.361910 -0.587808
O5    O     O_R   0.499990 0.680320 0.618770 -0.571856
O6    O     O_R   0.500000 0.680360 0.381190 -0.588937
O7    O     O_R   0.651000 0.500000 0.638090 -0.580770
O8    O     O_R   0.651010 0.500040 0.400510 -0.587289
O9    O     O_3   0.683356 0.884763 0.734759 -0.581232
C29   C     C_3   0.721967 0.908133 0.603900 0.111978
H18   H     H_    0.694882 0.996667 0.554256 0.145039
H19   H     H_    0.699398 0.831173 0.530026 0.142343
C30   C     C_3   0.839555 0.912106 0.626376 -0.804489
H20   H     H_    0.870046 0.823789 0.672991 0.256423
H21   H     H_    0.871178 0.926337 0.524006 0.203782
H22   H     H_    0.865311 0.989338 0.698437 0.246254

loop_
_geom_bond_atom_site_label_1
_geom_bond_atom_site_label_2
_ccdc_geom_bond_type
C10   H16   S    
C30   H21   S    
C23   C24   S    
C16   C21   S    
C9    H15   S    
C14   H17   S    
Cu1   O7    S    
C25   C27   A    
C1    C8    S    
C11   C13   A    
Cu2   O6    S    
C19   N2    A    
C11   C22   S    
C12   O4    A    
C21   H9    S    
C17   N1    A    
C7    C13   A    
C12   C25   S    
Cu2   O2    S    
Cu1   O5    S    
C10   C11   A    
C16   N1    A    
C19   C20   S    
C7    C15   S    
C17   C18   A    
C22   O6    A    
C29   H18   S    
C22   O5    A    
Cu1   N2    S    
C13   C14   S    
C25   C28   A    
C20   H7    S    
C1    O2    A    
C26   C27   A    
C30   H20   S    
C5    C24   A    
C16   C19   A    
C4    C24   A    
C18   H5    S    
Cu2   N1    S    
C12   O3    A    
C15   H3    S    
C1    O1    A    
C2    C3    A    
Cu1   O1    S    
C6    H12   S    
C5    C6    A    
C14   O9    S    
Cu2   O4    S    
C29   H19   S    
C4    H1    S    
C7    C8    A    
C17   H4    S    
Cu1   Cu2   S    
C3    C4    A    
C20   H6    S    
Cu2   O8    S    
C27   H13   S    
C23   O7    A    
C20   C21   S    
C26   H11   S    
C9    C10   A    
C5    H10   S    
C23   O8    A    
C14   C15   S    
C29   C30   S    
C2    C28   A    
C30   H22   S    
O9    C29   S    
C28   H14   S    
C3    C26   A    
C21   H8    S    
C2    C6    A    
C18   N2    A    
C8    C9    A    
Cu1   O3    S    
C15   H2    S    
