data_mof_unit_32529.cif
_audit_creation_date              2012-10-26T17:46:57-0400
_audit_creation_method            fapswitch 2.2
_symmetry_space_group_name_H-M    P1
_symmetry_Int_Tables_number       1
_space_group_crystal_system       triclinic
_cell_length_a                    18.66034
_cell_length_b                    18.937864
_cell_length_c                    19.055047
_cell_angle_alpha                 110.171819
_cell_angle_beta                  109.38886
_cell_angle_gamma                 109.466373
_cell_volume                      5143.85241388

loop_
_atom_site_label
_atom_site_type_symbol
_atom_type_description
_atom_site_fract_x
_atom_site_fract_y
_atom_site_fract_z
_atom_type_partial_charge
C1    C     C_R   0.379480 0.498408 0.381226 0.585683
C2    C     C_R   0.310221 0.438419 0.033448 -0.091117
C3    C     C_R   0.119515 0.117524 0.499569 0.587339
C4    C     C_R   0.005572 0.381634 0.886561 0.536814
C5    C     C_R   0.119526 0.501660 0.119833 0.585050
C6    C     C_R   0.999168 0.619053 0.117944 0.566881
C7    C     C_R   0.880495 0.497899 0.879725 0.535355
C8    C     C_R   0.061923 0.754267 0.536450 -0.111440
C9    C     C_R   0.066378 0.767957 0.470146 -0.031901
C10   C     C_R   0.990904 0.721670 0.388033 0.012845
C11   C     C_R   0.912130 0.657914 0.371746 -0.103680
C12   C     C_R   0.907069 0.644656 0.438434 0.020840
C13   C     C_R   0.339841 0.525489 0.057075 -0.093074
C14   C     C_R   0.808808 0.710139 0.762458 -0.159348
C15   C     C_R   0.982401 0.693505 0.521052 -0.082782
C16   C     C_R   0.992559 0.674135 0.250926 -0.110040
C17   C     C_R   0.998304 0.686260 0.184103 0.020577
C18   C     C_R   0.005573 0.762822 0.183436 -0.031524
C19   C     C_R   0.004623 0.824365 0.248928 -0.153412
C20   C     C_R   0.999392 0.812391 0.315766 -0.003632
C21   C     C_R   0.995078 0.737340 0.318120 -0.030159
C22   C     C_R   0.083930 0.858638 0.138909 -0.075142
C23   C     C_R   0.092920 0.874576 0.075045 -0.087461
C24   C     C_R   0.086423 0.265706 0.753894 0.233974
C25   C     C_R   0.032233 0.812405 0.987576 -0.092192
C26   C     C_3   0.597764 0.884171 0.658045 -0.352910
C27   C     C_3   0.373840 0.205247 0.673399 -0.378550
C28   C     C_3   0.071776 0.622124 0.699085 -0.408772
C29   C     C_3   0.821399 0.578783 0.420816 -0.394840
C30   C     C_3   0.204674 0.278855 0.934565 -0.366596
C31   C     C_3   0.535085 0.755837 0.172646 -0.405329
C32   C     C_R   0.827544 0.816185 0.574704 -0.155556
C33   C     C_R   0.004241 0.190041 0.686127 -0.008225
C34   C     C_R   0.925260 0.180568 0.684471 -0.083962
C35   C     C_R   0.929073 0.243702 0.752286 -0.182942
C36   C     C_R   0.009465 0.315581 0.822272 -0.062003
C37   C     C_R   0.089872 0.325820 0.825733 -0.047422
C38   C     C_R   0.777648 0.125778 0.562647 -0.083032
C39   C     C_R   0.822720 0.784870 0.827737 -0.096225
C40   C     C_R   0.694325 0.057796 0.492911 -0.105772
C41   C     C_R   0.669710 0.971627 0.470894 -0.095493
C42   C     C_R   0.728182 0.953579 0.519036 -0.096655
C43   C     C_R   0.811225 0.021277 0.589410 -0.063009
C44   C     C_R   0.812158 0.811628 0.495800 0.000084
C45   C     C_R   0.837004 0.107892 0.610969 0.050126
C46   C     C_R   0.731486 0.745006 0.418792 -0.040278
C47   C     C_R   0.670449 0.681479 0.422371 -0.173023
C48   C     C_R   0.686732 0.685768 0.501242 0.000757
C49   C     C_R   0.764828 0.755038 0.578699 -0.033132
C50   C     C_R   0.961900 0.734898 0.964055 -0.095965
C51   C     C_R   0.633449 0.746691 0.293490 -0.077427
C52   C     C_R   0.612107 0.746603 0.215506 0.005882
C53   C     C_R   0.664508 0.739337 0.178145 -0.067449
C54   C     C_R   0.619521 0.618880 0.500853 0.533288
C55   C     C_R   0.737624 0.732722 0.218325 -0.103926
C56   C     C_R   0.759200 0.733803 0.296332 -0.067852
C57   C     C_R   0.707591 0.741121 0.334680 0.034951
C58   C     C_R   0.438037 0.767630 0.552747 -0.001121
C59   C     C_R   0.371400 0.695224 0.471293 0.015526
C60   C     C_R   0.391500 0.660862 0.407259 0.114550
C61   C     C_R   0.951227 0.719662 0.027529 -0.049377
C62   C     C_R   0.478652 0.699857 0.425197 -0.046681
C63   C     C_R   0.545089 0.772408 0.506685 -0.070879
C64   C     C_R   0.525324 0.806823 0.570809 0.031645
C65   C     C_R   0.263161 0.581912 0.257959 0.218477
C66   C     C_R   0.616934 0.497873 0.618555 0.536023
C67   C     C_R   0.187237 0.502034 0.186757 -0.063317
C68   C     C_R   0.172525 0.421023 0.180869 -0.097310
C69   C     C_R   0.237368 0.418098 0.241666 0.206195
C70   C     C_R   0.311659 0.498116 0.314371 -0.064620
C71   C     C_R   0.321736 0.579202 0.324484 -0.096619
C72   C     C_R   0.013449 0.780471 0.115545 0.051103
C73   C     C_R   0.018521 0.310164 0.127239 0.025854
C74   C     C_R   0.936095 0.238002 0.060151 -0.044101
C75   C     C_R   0.922097 0.195523 0.976569 -0.031937
C76   C     C_R   0.990385 0.225172 0.960028 -0.061691
C77   C     C_R   0.072405 0.297743 0.027053 -0.045612
C78   C     C_R   0.379126 0.381174 0.498171 0.577231
C79   C     C_R   0.087832 0.339517 0.111364 0.118733
C80   C     C_R   0.237236 0.526811 0.530294 -0.123228
C81   C     C_R   0.258535 0.466889 0.543838 -0.103367
C82   C     C_R   0.210813 0.378721 0.478012 0.024592
C83   C     C_R   0.291291 0.546936 0.003623 -0.067256
C84   C     C_R   0.135268 0.349535 0.400077 0.306076
C85   C     C_R   0.113849 0.410618 0.388504 -0.092136
C86   C     C_R   0.165506 0.498839 0.452413 -0.164140
C87   C     C_R   0.176057 0.253212 0.499033 -0.043223
C88   C     C_R   0.188021 0.185284 0.501987 0.032763
C89   C     C_R   0.263487 0.182587 0.505540 -0.029730
C90   C     C_R   0.818281 0.850709 0.812199 0.257770
C91   C     C_R   0.324980 0.247508 0.503783 -0.145462
C92   C     C_R   0.311789 0.314569 0.498427 0.032422
C93   C     C_R   0.235488 0.316813 0.494601 0.008352
C94   C     C_R   0.211382 0.481542 0.927873 -0.008604
C95   C     C_R   0.330453 0.121637 0.589269 -0.005281
C96   C     C_R   0.340954 0.051871 0.590086 -0.072993
C97   C     C_R   0.299609 0.972781 0.512967 0.224702
C98   C     C_R   0.246975 0.962805 0.434085 -0.119148
C99   C     C_R   0.236227 0.031821 0.432338 -0.148217
C100  C     C_R   0.278248 0.111645 0.509344 0.044736
C101  C     C_R   0.562374 0.604512 0.848343 0.294580
C102  C     C_R   0.799559 0.840935 0.730689 -0.085807
C103  C     C_R   0.629270 0.592778 0.837968 -0.071935
C104  C     C_R   0.609002 0.512078 0.775034 0.002472
C105  C     C_R   0.176902 0.393792 0.906113 0.098841
C106  C     C_R   0.521571 0.442962 0.722939 -0.088676
C107  C     C_R   0.455069 0.454037 0.734375 -0.165016
C108  C     C_R   0.475268 0.534742 0.796590 -0.083675
C109  C     C_R   0.743313 0.500785 0.821778 -0.157429
C110  C     C_R   0.811974 0.494380 0.810908 -0.002925
C111  C     C_R   0.815657 0.488092 0.736307 -0.037428
C112  C     C_R   0.748921 0.485907 0.672864 -0.161904
C113  C     C_R   0.681217 0.494058 0.684395 0.000155
C114  C     C_R   0.783797 0.764798 0.664345 0.001708
C115  C     C_R   0.678513 0.502056 0.759762 -0.028472
C116  C     C_R   0.229753 0.371650 0.957730 0.032365
C117  C     C_R   0.944251 0.553072 0.718947 -0.072840
C118  C     C_R   0.011858 0.549768 0.703372 0.015302
C119  C     C_R   0.022896 0.477547 0.691026 -0.080656
C120  C     C_R   0.967024 0.409435 0.694110 -0.112968
C121  C     C_R   0.900247 0.413168 0.710424 -0.074550
C122  C     C_R   0.888494 0.485046 0.722890 0.036146
C123  C     C_R   0.998584 0.879489 0.381593 0.528057
C124  C     C_R   0.880423 0.879578 0.497727 0.525892
C125  C     C_R   0.001490 0.120375 0.618673 0.596312
C126  C     C_R   0.789324 0.699747 0.681042 -0.083725
Cu1   Cu    Cu3+1 0.499980 0.561800 0.561790 0.968682
Cu2   Cu    Cu3+1 0.500020 0.438200 0.438210 1.027956
Cu3   Cu    Cu3+1 0.061810 0.999960 0.561770 1.010712
Cu4   Cu    Cu3+1 0.938190 0.999990 0.438190 1.038328
Cu5   Cu    Cu3+1 0.061800 0.561770 0.999960 1.026169
Cu6   Cu    Cu3+1 0.938200 0.438190 0.000000 0.920897
H1    H     H_    0.837630 0.791501 0.890383 0.152839
H2    H     H_    0.882775 0.215918 0.072682 0.140796
H3    H     H_    0.857981 0.140718 0.924356 0.173290
H4    H     H_    0.979128 0.193402 0.894968 0.117559
H5    H     H_    0.122864 0.324205 0.013408 0.093614
H6    H     H_    0.148422 0.545250 0.442444 0.131535
H7    H     H_    0.275641 0.594860 0.580799 0.127440
H8    H     H_    0.312087 0.489319 0.606246 0.141608
H9    H     H_    0.055823 0.389846 0.330656 0.131582
H10   H     H_    0.796989 0.892250 0.718770 0.121507
H11   H     H_    0.118484 0.255560 0.498012 0.184648
H12   H     H_    0.648961 0.739305 0.118203 0.195650
H13   H     H_    0.383487 0.245913 0.506898 0.120718
H14   H     H_    0.381723 0.059051 0.650795 0.151342
H15   H     H_    0.214704 0.902001 0.373906 0.163910
H16   H     H_    0.194982 0.023110 0.370913 0.114077
H17   H     H_    0.422911 0.543107 0.803558 0.163159
H18   H     H_    0.696456 0.646902 0.876689 0.135423
H19   H     H_    0.779268 0.641462 0.631342 0.103190
H20   H     H_    0.505122 0.381293 0.672652 0.101092
H21   H     H_    0.387628 0.400526 0.694003 0.127045
H22   H     H_    0.741403 0.506905 0.879776 0.123734
H23   H     H_    0.778226 0.727755 0.189515 0.131396
H24   H     H_    0.751683 0.481174 0.615536 0.125970
H25   H     H_    0.934826 0.608372 0.728039 0.094772
H26   H     H_    0.074447 0.473801 0.678506 0.131989
H27   H     H_    0.975276 0.353459 0.683147 0.129941
H28   H     H_    0.857024 0.359714 0.712149 0.100249
H29   H     H_    0.979814 0.684218 0.573320 0.104031
H30   H     H_    0.813366 0.660247 0.775061 0.113514
H31   H     H_    0.120125 0.791101 0.599988 0.128065
H32   H     H_    0.128249 0.815486 0.483019 0.186024
H33   H     H_    0.854399 0.619593 0.307574 0.103091
H34   H     H_    0.817114 0.730972 0.327880 0.103973
H35   H     H_    0.988557 0.616083 0.252049 0.139065
H36   H     H_    0.008753 0.882643 0.248272 0.135422
H37   H     H_    0.132481 0.906616 0.206444 0.102460
H38   H     H_    0.147488 0.934668 0.093370 0.128033
H39   H     H_    0.039810 0.824094 0.938045 0.119920
H40   H     H_    0.916135 0.686020 0.896692 0.103899
H41   H     H_    0.888387 0.868766 0.634072 0.133969
H42   H     H_    0.895592 0.659748 0.008109 0.089577
H43   H     H_    0.401512 0.576156 0.116089 0.124188
H44   H     H_    0.315880 0.614334 0.020537 0.124728
H45   H     H_    0.421507 0.792784 0.601632 0.156297
H46   H     H_    0.176750 0.499366 0.885421 0.134771
H47   H     H_    0.350341 0.422859 0.074391 0.127577
H48   H     H_    0.868124 0.237254 0.749769 0.143164
H49   H     H_    0.796241 0.192289 0.578620 0.104846
H50   H     H_    0.649036 0.071906 0.455718 0.114639
H51   H     H_    0.608995 0.629160 0.363502 0.119802
H52   H     H_    0.605455 0.918842 0.416539 0.121135
H53   H     H_    0.709349 0.887033 0.501312 0.105732
H54   H     H_    0.855554 0.006263 0.626556 0.091813
H55   H     H_    0.593800 0.753134 0.323254 0.099403
H56   H     H_    0.304438 0.664831 0.458485 0.125105
H57   H     H_    0.572158 0.905107 0.701500 0.169321
H58   H     H_    0.645924 0.866963 0.688444 0.162069
H59   H     H_    0.631604 0.939533 0.650799 0.148899
H60   H     H_    0.378071 0.822561 0.348102 0.359043
H61   H     H_    0.130281 0.177392 0.152130 0.393152
H62   H     H_    0.771290 0.888068 0.950929 0.380803
H63   H     H_    0.072600 0.121644 0.270603 0.369835
H64   H     H_    0.409285 0.200816 0.729998 0.133424
H65   H     H_    0.422084 0.258947 0.673829 0.117999
H66   H     H_    0.323563 0.220852 0.680866 0.201817
H67   H     H_    0.495039 0.672990 0.376756 0.081618
H68   H     H_    0.429448 0.940258 0.498773 0.332038
H69   H     H_    0.533342 0.755709 0.000143 0.364451
H70   H     H_    0.055589 0.674946 0.710778 0.120518
H71   H     H_    0.141043 0.650387 0.748960 0.145191
H72   H     H_    0.065361 0.596195 0.634063 0.138342
H73   H     H_    0.826879 0.577282 0.480096 0.128501
H74   H     H_    0.769976 0.595228 0.397050 0.148466
H75   H     H_    0.800866 0.512956 0.370577 0.137468
H76   H     H_    0.135396 0.230998 0.882208 0.133830
H77   H     H_    0.248801 0.262041 0.914299 0.193515
H78   H     H_    0.612329 0.800525 0.520787 0.097594
H79   H     H_    0.213359 0.272055 0.991989 0.144259
H80   H     H_    0.312694 0.397269 0.801184 0.358895
H81   H     H_    0.498141 0.757993 0.207872 0.150673
H82   H     H_    0.558711 0.816969 0.170871 0.146813
H83   H     H_    0.489598 0.699803 0.105282 0.156669
H84   H     H_    0.027840 0.345077 0.190777 0.117257
O1    O     O_R   0.409800 0.552190 0.462000 -0.529204
O2    O     O_R   0.947810 0.357610 0.909840 -0.516984
O3    O     O_R   0.142370 0.552160 0.090140 -0.426454
O4    O     O_R   0.409840 0.447810 0.357640 -0.433452
O5    O     O_R   0.037990 0.447800 0.090170 -0.536926
O6    O     O_R   0.052190 0.642350 0.090120 -0.461968
O7    O     O_R   0.947800 0.537990 0.090150 -0.528227
O8    O     O_R   0.962010 0.552150 0.909780 -0.509119
O9    O     O_R   0.857630 0.447800 0.909820 -0.513377
O10   O     O_R   0.590160 0.642370 0.552180 -0.504815
O11   O     O_R   0.590190 0.537990 0.447820 -0.525659
O12   O     O_R   0.947810 0.909820 0.357620 -0.513022
O13   O     O_R   0.590160 0.552190 0.642360 -0.492542
O14   O     O_R   0.590200 0.447810 0.538000 -0.528493
O15   O     O_R   0.409810 0.462010 0.552180 -0.530329
O16   O     O_R   0.409840 0.357630 0.447820 -0.467106
O17   O     O_R   0.052200 0.909800 0.461980 -0.520464
O18   O     O_2   0.303844 0.685851 0.193876 -0.314117
O19   O     O_2   0.203347 0.691943 0.249079 -0.246806
O20   O     O_3   0.369318 0.773249 0.358296 -0.495659
O21   O     O_2   0.289929 0.302025 0.199122 -0.288517
O22   O     O_2   0.250054 0.317737 0.311345 -0.243726
O23   O     O_R   0.962020 0.909790 0.552160 -0.523705
O24   O     O_3   0.125551 0.228011 0.152311 -0.465358
O25   O     O_2   0.928473 0.018800 0.929778 -0.250742
O26   O     O_2   0.771316 0.970175 0.859544 -0.328680
O27   O     O_3   0.833569 0.931986 0.976296 -0.461675
O28   O     O_2   0.998814 0.197059 0.344190 -0.299184
O29   O     O_2   0.011311 0.227374 0.233235 -0.257115
O30   O     O_3   0.118356 0.184216 0.308611 -0.489754
O31   O     O_2   0.309861 0.878203 0.588047 -0.305599
O32   O     O_2   0.253862 0.803913 0.431667 -0.248012
O33   O     O_3   0.421624 0.916377 0.536160 -0.501247
O34   O     O_R   0.857630 0.909810 0.447800 -0.505046
O35   O     O_2   0.680246 0.757505 0.995822 -0.316764
O36   O     O_2   0.575404 0.756757 0.876403 -0.275992
O37   O     O_3   0.517432 0.695538 0.961325 -0.557593
O38   O     O_2   0.217380 0.232310 0.759625 -0.302449
O39   O     O_2   0.155826 0.269723 0.652420 -0.335623
O40   O     O_3   0.262917 0.394057 0.810705 -0.534714
O41   O     O_R   0.052190 0.090130 0.642340 -0.465499
O42   O     O_R   0.947800 0.090160 0.537980 -0.498205
O43   O     O_R   0.142370 0.090140 0.552150 -0.476675
O44   O     O_R   0.037980 0.090170 0.447800 -0.483423
O45   O     O_R   0.052200 0.461970 0.909800 -0.526429
S1    S     S_3+6 0.284092 0.684466 0.263900 0.027128
S2    S     S_3+6 0.226572 0.315179 0.226858 0.040997
S3    S     S_3+6 0.838234 0.946108 0.895143 0.007226
S4    S     S_3+6 0.062614 0.237352 0.318955 0.033040
S5    S     S_3+6 0.318463 0.888620 0.516059 -0.025020
S6    S     S_3+6 0.586770 0.707554 0.922520 -0.026995
S7    S     S_3+6 0.182166 0.289180 0.743199 -0.021168

loop_
_geom_bond_atom_site_label_1
_geom_bond_atom_site_label_2
_ccdc_geom_bond_type
C8    C9    A    
C81   H8    S    
C5    O5    A    
C87   C88   A    
C4    C36   S    
C94   C105  A    
O20   S1    S    
C16   C21   A    
C66   C113  S    
C12   C29   S    
O21   S2    D    
Cu6   O7    S    
C41   C42   A    
C118  C119  A    
C105  C116  A    
C27   C95   S    
C35   C36   A    
C27   H65   S    
C117  C122  A    
C91   H13   S    
C31   C52   S    
C99   H16   S    
C30   H77   S    
C104  C106  A    
C97   C98   A    
C26   H58   S    
C69   S2    S    
C31   H82   S    
C30   C116  S    
C85   C86   A    
O37   S6    S    
C48   C54   S    
C66   O13   A    
O38   S7    D    
C13   C83   A    
C6    O6    A    
C38   H49   S    
C35   H48   S    
C60   C62   A    
C36   C37   A    
C77   H5    S    
C62   H67   S    
O28   S4    D    
Cu3   O41   S    
C119  H26   S    
C114  C126  A    
C75   H3    S    
C31   H83   S    
C98   H15   S    
C16   H35   S    
C78   O16   A    
C3    O44   A    
C125  O41   A    
Cu1   O13   S    
C29   H73   S    
C56   C57   A    
Cu5   O3    S    
C34   C35   A    
C94   H46   S    
C2    C13   A    
C26   C64   S    
C110  C111  A    
C54   O10   A    
C38   C45   A    
C124  O34   A    
C103  C104  A    
C103  H18   S    
C14   C39   A    
C123  O17   A    
O31   S5    D    
C2    C116  A    
C90   C102  A    
C65   S1    S    
C1    O1    A    
C16   C17   A    
C65   C67   A    
O25   S3    D    
C18   C72   S    
Cu1   O10   S    
C80   C86   A    
C107  C108  A    
C73   H84   S    
C70   C71   A    
C51   C57   A    
Cu5   O6    S    
O30   S4    S    
C90   S3    S    
C9    C10   A    
Cu2   O4    S    
C39   C90   A    
C5    C67   S    
C29   H75   S    
H80   O40   S    
C25   H39   S    
C101  C108  A    
C77   C79   A    
C49   C114  S    
C101  S6    S    
Cu4   O12   S    
C59   C60   A    
Cu2   O16   S    
C82   C93   S    
C83   H44   S    
Cu3   O23   S    
C111  C122  S    
C58   C64   A    
O22   S2    D    
C27   H66   S    
C22   C72   A    
C112  C113  A    
Cu4   O42   S    
C26   H57   S    
C44   C46   A    
H60   O20   S    
C33   C125  S    
C40   H50   S    
C53   C55   A    
C10   C21   S    
C76   H4    S    
C32   C49   A    
H63   O30   S    
C106  H20   S    
H62   O27   S    
C89   C100  S    
C117  H25   S    
Cu6   O5    S    
C28   H72   S    
C108  H17   S    
C84   C85   A    
C47   H51   S    
C19   H36   S    
C74   C75   A    
C85   H9    S    
C30   H79   S    
C124  O23   A    
C86   H6    S    
C95   C100  A    
C68   C69   A    
C123  O12   A    
C7    O9    A    
C60   C71   S    
C78   C92   S    
C78   O15   A    
C65   C71   A    
C83   C94   A    
Cu6   O9    S    
C125  O42   A    
C44   C124  S    
C81   C82   A    
C29   H74   S    
C67   C68   A    
Cu3   O17   S    
O33   S5    S    
C14   H30   S    
C9    H32   S    
C55   H23   S    
C75   C76   A    
H61   O24   S    
C37   C105  S    
C62   C63   A    
C102  C114  A    
H68   O33   S    
C120  H27   S    
C104  C115  S    
C126  H19   S    
O36   S6    D    
C47   C48   A    
C12   C15   A    
C119  C120  A    
C30   H76   S    
C96   C97   A    
C20   C21   A    
C55   C56   A    
Cu1   O15   S    
C17   C18   A    
C32   C44   A    
C59   H56   S    
C41   H52   S    
C34   C45   S    
C73   C79   A    
C106  C107  A    
C76   C77   A    
C109  H22   S    
C43   C45   A    
C121  C122  A    
C107  H21   S    
C20   C123  S    
Cu5   O8    S    
C61   C72   A    
C48   C49   A    
C8    C15   A    
C82   C84   A    
C46   C57   S    
C112  H24   S    
C102  H10   S    
Cu1   O1    S    
C89   C91   A    
C42   C43   A    
C5    O3    A    
Cu4   O34   S    
Cu5   Cu6   S    
C73   C74   A    
O35   S6    D    
C91   C92   A    
O39   S7    D    
C120  C121  A    
C42   H53   S    
C11   H33   S    
Cu3   Cu4   S    
C39   H1    S    
C24   C37   A    
C13   H43   S    
C6    C17   S    
C4    O45   A    
C46   C47   A    
C40   C41   A    
Cu2   O14   S    
C63   H78   S    
C121  H28   S    
C111  C112  A    
C3    C88   S    
C113  C115  A    
C28   H71   S    
C25   C50   A    
C15   H29   S    
O29   S4    D    
C61   H42   S    
C24   C33   A    
C80   C81   A    
Cu3   O43   S    
C8    H31   S    
C14   C126  A    
C58   H45   S    
C74   H2    S    
Cu4   O44   S    
C11   C12   A    
C7    C110  S    
O27   S3    S    
C31   H81   S    
C26   H59   S    
O19   S1    D    
C80   H7    S    
C96   H14   S    
C32   H41   S    
C66   O14   A    
C4    O2    A    
C1    C70   S    
C43   H54   S    
C99   C100  A    
C53   H12   S    
C28   H70   S    
C19   C20   A    
C58   C59   A    
C51   C52   A    
C28   C118  S    
C109  C110  A    
C50   C61   A    
C38   C40   A    
C7    O8    A    
C6    O7    A    
C23   H38   S    
C68   C79   S    
Cu2   O11   S    
C3    O43   A    
C87   C93   A    
C92   C93   A    
C33   C34   A    
C84   S4    S    
C1    O4    A    
Cu6   O2    S    
C23   C25   A    
O40   S7    S    
C69   C70   A    
C54   O11   A    
C22   H37   S    
C51   H55   S    
C10   C11   A    
C109  C115  A    
C63   C64   A    
C97   S5    S    
O18   S1    D    
O32   S5    D    
C88   C89   A    
C101  C103  A    
C98   C99   A    
C2    H47   S    
C56   H34   S    
C95   C96   A    
H69   O37   S    
C18   C19   A    
O26   S3    D    
C22   C23   A    
C50   H40   S    
C27   H64   S    
O24   S2    S    
C87   H11   S    
C117  C118  A    
C24   S7    S    
Cu1   Cu2   S    
C52   C53   A    
Cu5   O45   S    
