data_mof_unit_32824.cif
_audit_creation_date              2012-12-11T20:57:49-0500
_audit_creation_method            fapswitch 2.2
_symmetry_space_group_name_H-M    P1
_symmetry_Int_Tables_number       1
_space_group_crystal_system       triclinic
_cell_length_a                    8.300543
_cell_length_b                    18.939677
_cell_length_c                    22.876915
_cell_angle_alpha                 101.073396
_cell_angle_beta                  89.966469
_cell_angle_gamma                 91.960684
_cell_volume                      3527.37937886

loop_
_atom_site_label
_atom_site_type_symbol
_atom_type_description
_atom_site_fract_x
_atom_site_fract_y
_atom_site_fract_z
_atom_type_partial_charge
Ba1   Ba    Ba6+2 0.157800 0.534120 0.474430 1.657149
Ba2   Ba    Ba6+2 0.652390 0.465870 0.525520 1.666529
C1    C     C_3   0.357995 0.709512 0.263999 -0.272104
C2    C     C_R   0.073021 0.905145 0.563043 -0.082325
C3    C     C_R   0.201562 0.051249 0.557359 -0.094105
C4    C     C_3   0.917982 0.725434 0.358666 0.359418
C5    C     C_R   0.050266 0.024726 0.533032 0.029378
C6    C     C_R   0.256912 0.121222 0.556587 -0.095317
C7    C     C_R   0.164325 0.168888 0.531873 -0.014264
C8    C     C_R   0.016728 0.143103 0.503302 0.052495
C9    C     C_R   0.959175 0.070899 0.504497 0.045796
C10   C     C_R   0.215127 0.241510 0.534916 -0.036555
C11   C     C_R   0.112600 0.288718 0.514284 -0.230084
C12   C     C_3   0.395792 0.689700 0.323703 0.300861
C13   C     C_R   0.977753 0.263865 0.478634 0.088159
C14   C     C_R   0.931365 0.188002 0.470960 0.010713
C15   C     C_R   0.842946 0.927509 0.505036 0.030802
C16   C     C_3   0.924881 0.799998 0.342836 0.246614
C17   C     C_R   0.787999 0.854233 0.501633 -0.007565
C18   C     C_R   0.881286 0.805726 0.526573 -0.025714
C19   C     C_R   0.018154 0.834052 0.560213 0.027242
C20   C     C_R   0.808710 0.152789 0.431632 0.064549
C21   C     C_R   0.741970 0.086202 0.438741 -0.047791
C22   C     C_R   0.812184 0.044903 0.476020 0.007853
C23   C     C_3   0.495479 0.688453 0.613499 0.292596
C24   C     C_R   0.749298 0.974853 0.479236 0.026457
C25   C     C_R   0.594000 0.950623 0.457530 -0.079692
C26   C     C_R   0.638073 0.829949 0.474103 -0.026361
C27   C     C_R   0.540453 0.879820 0.454591 -0.058719
C28   C     C_3   0.870178 0.370474 0.335951 0.286820
C29   C     C_R   0.588649 0.756786 0.467806 -0.008425
C30   C     C_R   0.689552 0.708098 0.487178 -0.315415
C31   C     C_R   0.832702 0.731165 0.518031 0.077427
C32   C     C_R   0.645347 0.522092 0.335507 -0.304180
C33   C     C_R   0.390054 0.573291 0.950395 -0.025762
C34   C     C_3   0.490936 0.770549 0.628253 0.247431
C35   C     C_R   0.343047 0.572493 0.890939 0.596041
C36   C     C_R   0.208447 0.457403 0.885792 0.573003
C37   C     C_R   0.255977 0.456200 0.944961 -0.036860
C38   C     C_R   0.348168 0.514162 0.977287 -0.050502
C39   C     C_R   0.478739 0.631926 0.983447 -0.071688
C40   C     C_3   0.943154 0.342759 0.274015 0.246043
C41   C     C_R   0.525236 0.632020 0.041949 -0.060551
C42   C     C_R   0.486676 0.572998 0.069106 -0.017204
C43   C     C_R   0.398526 0.513288 0.036657 -0.064487
C44   C     C_R   0.213315 0.397914 0.972184 -0.058843
C45   C     C_3   0.969277 0.298586 0.668424 0.721055
C46   C     C_R   0.263780 0.395234 0.030353 0.043292
C47   C     C_R   0.361402 0.453029 0.063203 -0.023391
C48   C     C_R   0.423553 0.453127 0.121378 0.623199
C49   C     C_R   0.533474 0.573319 0.128297 0.574495
C50   C     C_2   0.067357 0.497789 0.773853 -0.071829
C51   C     C_3   0.033478 0.496124 0.708217 -0.071252
C52   C     C_3   0.962833 0.653199 0.669667 0.321109
C53   C     C_1   0.315497 0.521582 0.696585 0.020314
C54   C     C_2   0.351576 0.524730 0.753447 -0.107417
C55   C     C_2   0.219654 0.512173 0.795951 0.203343
C56   C     C_3   0.056103 0.255264 0.707432 -0.307876
C57   C     C_R   0.705645 0.543633 0.236831 -0.000812
C58   C     C_R   0.750549 0.548188 0.296401 0.018056
C59   C     C_R   0.497424 0.488999 0.315520 0.030885
C60   C     C_R   0.448889 0.487174 0.256316 -0.099319
C61   C     C_R   0.552009 0.515043 0.215983 0.185098
C62   C     C_2   0.185715 0.485955 0.672673 -0.264820
C63   C     C_3   0.848019 0.658361 0.722591 -0.243350
C64   C     C_3   0.431590 0.299542 0.357228 0.316042
C65   C     C_3   0.435747 0.230907 0.308930 -0.355822
C66   C     C_3   0.843258 0.279980 0.238013 -0.347898
C67   C     C_3   0.454752 0.314848 0.676865 0.395769
C68   C     C_3   0.125250 0.682742 0.693655 -0.305951
C69   C     C_3   0.342039 0.282948 0.411300 -0.281685
C70   C     C_3   0.483595 0.355615 0.787956 -0.481505
C71   C     C_3   0.775129 0.172968 0.373022 -0.390463
C72   C     C_3   0.205262 0.331244 0.056083 -0.302956
C73   C     C_3   0.498189 0.293153 0.735756 -0.197861
C74   C     C_R   0.991237 0.952729 0.533631 0.009919
Cl1   Cl    Cl    0.961471 0.410645 0.230366 -0.736034
Cl2   Cl    Cl    0.642280 0.808232 0.681323 -0.640461
Cl3   Cl    Cl    0.795912 0.802302 0.281094 -0.650351
Cl4   Cl    Cl    0.837293 0.239038 0.619439 -0.681576
H1    H     H_    0.334070 0.637111 0.325023 0.076413
H2    H     H_    0.460181 0.182413 0.327927 0.071482
H3    H     H_    0.530272 0.236860 0.275588 0.103660
H4    H     H_    0.528280 0.684644 0.327305 0.001193
H5    H     H_    0.376874 0.662631 0.227880 0.112207
H6    H     H_    0.615472 0.671664 0.596791 0.026190
H7    H     H_    0.405098 0.669648 0.577626 -0.001419
H8    H     H_    0.510603 0.792809 0.587346 -0.016458
H9    H     H_    0.371186 0.787401 0.646365 0.048925
H10   H     H_    0.436923 0.755627 0.256957 0.178249
H11   H     H_    0.061319 0.322557 0.642051 -0.112678
H12   H     H_    0.066010 0.324003 0.280117 0.121369
H13   H     H_    0.968087 0.225494 0.730981 0.143669
H14   H     H_    0.135586 0.216235 0.679782 0.086617
H15   H     H_    0.130002 0.292088 0.741305 0.101877
H16   H     H_    0.330584 0.335133 0.679006 -0.101080
H17   H     H_    0.539942 0.357866 0.668958 0.128348
H18   H     H_    0.416682 0.248016 0.742927 0.120205
H19   H     H_    0.991636 0.727658 0.399580 0.019869
H20   H     H_    0.623387 0.274369 0.733986 0.184063
H21   H     H_    0.146909 0.345365 0.521497 0.054632
H22   H     H_    0.374119 0.136999 0.575947 0.138788
H23   H     H_    0.968515 0.596426 0.645992 0.001650
H24   H     H_    0.086805 0.801775 0.584562 0.095680
H25   H     H_    0.421267 0.865069 0.436463 0.111155
H26   H     H_    0.650346 0.652159 0.481980 0.073016
H27   H     H_    0.282525 0.018789 0.576752 0.083210
H28   H     H_    0.180110 0.921307 0.589442 0.071797
H29   H     H_    0.645486 0.063355 0.408663 0.066775
H30   H     H_    0.790543 0.711133 0.367482 -0.064715
H31   H     H_    0.509184 0.986004 0.443371 0.067158
H32   H     H_    0.140036 0.353578 0.947725 0.125284
H33   H     H_    0.593021 0.678549 0.065778 0.142050
H34   H     H_    0.846997 0.714217 0.748417 0.164916
H35   H     H_    0.791390 0.561964 0.206881 0.140392
H36   H     H_    0.512521 0.678193 0.964197 0.134045
H37   H     H_    0.475629 0.533656 0.768681 0.114520
H38   H     H_    0.967544 0.491416 0.803321 0.112913
H39   H     H_    0.331873 0.463449 0.241800 0.178577
H40   H     H_    0.682612 0.524177 0.381142 0.077199
H41   H     H_    0.885232 0.840445 0.381289 -0.007685
H42   H     H_    0.190396 0.448357 0.630422 0.060168
H43   H     H_    0.050264 0.814600 0.331647 0.082205
H44   H     H_    0.745471 0.387022 0.330397 -0.047571
H45   H     H_    0.884098 0.622629 0.752959 0.031953
H46   H     H_    0.941195 0.417483 0.359717 0.094255
H47   H     H_    0.829838 0.234900 0.262443 0.100490
H48   H     H_    0.722441 0.298201 0.227914 0.145912
H49   H     H_    0.904644 0.259427 0.195262 0.144835
H50   H     H_    0.118953 0.739175 0.717850 0.142729
H51   H     H_    0.176384 0.649808 0.723655 0.075607
H52   H     H_    0.198503 0.683166 0.654174 0.100406
H53   H     H_    0.213745 0.268475 0.398374 0.044062
H54   H     H_    0.397116 0.237220 0.427347 0.077385
H55   H     H_    0.347689 0.331522 0.447676 0.102866
H56   H     H_    0.724714 0.643041 0.707308 0.170795
H57   H     H_    0.361997 0.377305 0.787713 0.163238
H58   H     H_    0.502259 0.336803 0.830444 0.156539
H59   H     H_    0.574558 0.398892 0.784862 0.168671
H60   H     H_    0.890487 0.186667 0.352710 0.127703
H61   H     H_    0.719771 0.127670 0.340259 0.100528
H62   H     H_    0.688981 0.216225 0.379673 0.155060
H63   H     H_    0.119495 0.295511 0.025769 0.087936
H64   H     H_    0.308471 0.298345 0.063681 0.156872
H65   H     H_    0.140659 0.349888 0.098431 0.187048
H66   H     H_    0.556365 0.319912 0.368740 0.059772
H67   H     H_    0.230497 0.724609 0.262179 0.156374
H68   H     H_    0.317227 0.220849 0.285258 0.139417
N1    N     N_R   0.255798 0.514296 0.858726 -0.426918
N2    N     N_R   0.502056 0.513848 0.154321 -0.424135
O1    O     O_2   0.110690 0.676100 0.539200 -0.489879
O2    O     O_2   0.710353 0.459228 0.702063 -0.509791
O3    O     O_3   0.877856 0.350079 0.705333 -0.603282
O4    O     O_3   0.863220 0.586720 0.534720 -0.487361
O5    O     O_3   0.450900 0.461390 0.429220 -0.495901
O6    O     O_2   0.599830 0.538970 0.641850 -0.456238
O7    O     O_3   0.461167 0.660392 0.664919 -0.627903
O8    O     O_2   0.549550 0.241964 0.520654 -0.433948
O9    O     O_3   0.467719 0.254603 0.631134 -0.576527
O10   O     O_2   0.378659 0.624044 0.867991 -0.581729
O11   O     O_2   0.127142 0.407069 0.858055 -0.605950
O12   O     O_3   0.342320 0.348959 0.333221 -0.619199
O13   O     O_2   0.412108 0.398534 0.142135 -0.589958
O14   O     O_2   0.601612 0.627200 0.156829 -0.583267
O15   O     O_3   0.368310 0.629070 0.432760 -0.486470
O16   O     O_2   0.255960 0.756319 0.480177 -0.503116
O17   O     O_3   0.911361 0.698419 0.632508 -0.599170
O18   O     O_3   0.339191 0.743364 0.369337 -0.603701
O19   O     O_2   0.210480 0.460990 0.358130 -0.439605
O20   O     O_3   0.959520 0.592090 0.401630 -0.498448
O21   O     O_2   0.091128 0.546500 0.296432 -0.437086
O22   O     O_3   0.981271 0.675665 0.311474 -0.586573
O23   O     O_2   0.699610 0.323860 0.460780 -0.459541
O24   O     O_3   0.947090 0.413280 0.465240 -0.492175
O25   O     O_3   0.442000 0.370930 0.567190 -0.487812
O26   O     O_3   0.867123 0.312586 0.366050 -0.694858
O27   O     O_3   0.359410 0.538600 0.570730 -0.475867
O28   O     O_3   0.850780 0.407910 0.598320 -0.443354
P1    P     P_3+3 0.935930 0.665430 0.555670 0.991706
P2    P     P_3+3 0.382700 0.439650 0.365620 1.001489
P3    P     P_3+3 0.946216 0.588807 0.325278 1.010486
P4    P     P_3+3 0.874370 0.334570 0.444280 0.976127
P5    P     P_3+3 0.871834 0.429339 0.676630 0.980297
P6    P     P_3+3 0.388764 0.721791 0.437974 0.930194
P7    P     P_3+3 0.424971 0.567178 0.644962 0.940779
P8    P     P_3+3 0.417570 0.277813 0.563090 0.980563

loop_
_geom_bond_atom_site_label_1
_geom_bond_atom_site_label_2
_ccdc_geom_bond_type
C34   H9    S    
O17   P1    S    
C53   C54   D    
C28   H46   S    
C65   H3    S    
Ba2   O5    S    
C44   H32   S    
C29   P6    S    
C1    H5    S    
C39   C41   A    
C54   H37   S    
Ba1   O20   S    
C72   H65   S    
C17   C18   A    
C12   H4    S    
C52   O17   S    
C72   H63   S    
C67   H16   S    
O24   P4    S    
C69   H54   S    
C73   H18   S    
C52   C63   S    
C4    O22   S    
O6    P7    D    
C34   H8    S    
O26   P4    S    
C2    H28   S    
C24   C25   A    
C1    H10   S    
C15   C24   A    
C35   O10   D    
C26   C27   A    
C33   C35   A    
C56   H13   S    
O7    P7    S    
C51   P5    S    
Ba2   O23   S    
C69   H55   S    
C36   C37   A    
C51   C62   S    
C25   C27   A    
C13   C14   A    
C13   P4    S    
C9    C22   A    
C68   H50   S    
O27   P7    S    
C54   C55   S    
C64   O12   S    
Ba1   Ba2   S    
Ba2   P4    S    
Ba1   O5    S    
C41   H33   S    
C23   H6    S    
C31   P1    S    
C15   C17   A    
C19   H24   S    
Ba1   O27   S    
O22   P3    S    
C70   H59   S    
O3    P5    S    
C49   N2    Am   
C6    C7    A    
O18   P6    S    
C55   N1    S    
C15   C74   A    
Ba2   O6    S    
C21   C22   A    
C67   C73   S    
Ba2   O27   S    
Ba1   O15   S    
C7    C8    A    
C66   H48   S    
O19   P2    D    
O12   P2    S    
O28   P5    S    
C16   H43   S    
C59   C60   A    
C70   H58   S    
C64   C65   S    
C25   H31   S    
C57   C58   A    
Ba2   O4    S    
C30   H26   S    
O4    P1    S    
C32   C58   A    
C4    H30   S    
C27   H25   S    
Ba1   O4    S    
C45   Cl4   S    
C70   C73   S    
C21   H29   S    
O8    P8    D    
C28   O26   S    
C71   H62   S    
C36   O11   D    
C32   H40   S    
C38   C43   A    
C4    C16   S    
C44   C46   A    
Ba1   O24   S    
C64   H66   S    
C46   C72   S    
C52   H23   S    
O16   P6    D    
C8    C9    A    
C37   C38   A    
C3    C5    A    
C16   Cl3   S    
C71   H61   S    
C45   O3    S    
C32   C59   A    
C63   H45   S    
C5    C9    A    
C56   H15   S    
C61   N2    S    
C60   C61   A    
C73   H20   S    
Ba2   O25   S    
C48   N2    Am   
O1    P1    D    
C29   C30   A    
C52   C68   S    
C63   H34   S    
C43   C47   A    
O5    P2    S    
C10   P8    S    
C53   C62   D    
C68   H52   S    
C49   O14   D    
C10   C11   A    
O2    P5    D    
C17   C26   A    
C66   H47   S    
C60   H39   S    
C1    C12   S    
C23   C34   S    
C64   C69   S    
C40   Cl1   S    
C37   C44   A    
C18   C31   A    
C42   C49   A    
C70   H57   S    
C28   H44   S    
O23   P4    D    
C11   C13   A    
O20   P3    S    
C23   O7    S    
C39   H36   S    
C12   O18   S    
C65   H2    S    
C50   C51   S    
O9    P8    S    
C3    H27   S    
C58   P3    S    
C72   H64   S    
C46   C47   A    
C14   C20   A    
C36   N1    Am   
C48   O13   D    
O15   P6    S    
C45   H11   S    
O21   P3    D    
C26   C29   A    
C42   C43   A    
C22   C24   A    
C35   N1    Am   
C69   H53   S    
C3    C6    A    
C5    C74   A    
C71   H60   S    
C57   C61   A    
Ba1   P2    S    
C20   C71   S    
C4    H19   S    
C33   C38   A    
C56   H14   S    
C8    C14   A    
C1    H67   S    
C30   C31   A    
C45   C56   S    
C2    C19   A    
Ba1   P1    S    
C6    H22   S    
C41   C42   A    
C62   H42   S    
Ba1   O19   S    
C68   H51   S    
C67   O9    S    
Ba1   O1    S    
C40   H12   S    
C53   P7    S    
C40   C66   S    
C66   H49   S    
C33   C39   A    
C7    C10   A    
C2    C74   A    
C63   H56   S    
C50   C55   D    
C16   H41   S    
C23   H7    S    
C18   C19   A    
C59   P2    S    
C57   H35   S    
C47   C48   A    
C65   H68   S    
C20   C21   A    
C28   C40   S    
C34   Cl2   S    
Ba2   O28   S    
C12   H1    S    
C11   H21   S    
Ba2   O24   S    
C67   H17   S    
O25   P8    S    
C50   H38   S    
