data_mof_unit_31322.cif
_audit_creation_date              2012-10-26T20:18:15-0400
_audit_creation_method            fapswitch 2.2
_symmetry_space_group_name_H-M    P1
_symmetry_Int_Tables_number       1
_space_group_crystal_system       triclinic
_cell_length_a                    23.492213
_cell_length_b                    8.670181
_cell_length_c                    7.436182
_cell_angle_alpha                 103.155876
_cell_angle_beta                  94.201351
_cell_angle_gamma                 92.290029
_cell_volume                      1468.39612577

loop_
_atom_site_label
_atom_site_type_symbol
_atom_type_description
_atom_site_fract_x
_atom_site_fract_y
_atom_site_fract_z
_atom_type_partial_charge
C1    C     C_R   0.498276 0.199571 0.453048 0.554374
C2    C     C_R   0.696673 0.486661 0.324356 -0.140150
C3    C     C_R   0.243771 0.516876 0.677460 -0.058129
C4    C     C_R   0.755963 0.486587 0.321208 -0.058390
C5    C     C_R   0.209281 0.499810 0.511555 0.243273
C6    C     C_R   0.790651 0.499782 0.485996 0.239721
C7    C     C_2   0.497453 0.031539 0.426661 -0.148512
C8    C     C_2   0.502547 0.968461 0.573339 -0.148418
C9    C     C_R   0.390951 0.499793 0.502391 0.552271
C10   C     C_R   0.609046 0.500166 0.497562 0.552872
C11   C     C_R   0.883587 0.637097 0.560322 0.376973
C12   C     C_R   0.501723 0.800429 0.546952 0.554464
C13   C     C_R   0.116474 0.361500 0.439481 0.382075
C14   C     C_R   0.876121 0.362233 0.407828 0.426372
C15   C     C_R   0.123516 0.639141 0.578551 0.418445
C16   C     C_R   0.936206 0.357884 0.408501 0.050914
C17   C     C_R   0.063485 0.643389 0.573841 0.045138
C18   C     C_R   0.969833 0.498808 0.492410 -0.088880
C19   C     C_R   0.030002 0.500344 0.499736 -0.089807
C20   C     C_R   0.943278 0.639581 0.565719 -0.021766
C21   C     C_R   0.056649 0.359578 0.428380 -0.018785
C22   C     C_R   0.963108 0.217801 0.328355 0.265677
C23   C     C_R   0.234251 0.482727 0.343589 -0.054999
C24   C     C_R   0.036242 0.785956 0.638063 0.240834
C25   C     C_R   0.023445 0.221015 0.341924 -0.127014
C26   C     C_R   0.976453 0.781384 0.636314 -0.144494
C27   C     C_3   0.952915 0.940010 0.220116 0.001267
C28   C     C_3   0.905709 0.808718 0.164798 -0.328304
C29   C     C_3   0.063715 0.017368 0.854438 0.008088
C30   C     C_3   0.103269 0.166344 0.889109 -0.316353
C31   C     C_R   0.765883 0.513143 0.653914 -0.050250
C32   C     C_R   0.293403 0.482850 0.340961 -0.137171
C33   C     C_R   0.706731 0.513184 0.657482 -0.135666
C34   C     C_R   0.328432 0.499875 0.506744 0.006579
C35   C     C_R   0.671544 0.499925 0.492712 0.006414
C36   C     C_R   0.303115 0.516784 0.675236 -0.141833
Cu1   Cu    Cu3+1 0.506340 0.517380 0.684380 0.963014
Cu2   Cu    Cu3+1 0.493660 0.482620 0.315620 0.962578
H1    H     H_    0.045000 0.116951 0.279310 0.146117
H2    H     H_    0.775016 0.476813 0.191076 0.121879
H3    H     H_    0.492659 0.959464 0.285517 0.135770
H4    H     H_    0.507340 0.040536 0.714483 0.135891
H5    H     H_    0.454878 0.379213 0.948584 0.238952
H6    H     H_    0.545123 0.620785 0.051416 0.239190
H7    H     H_    0.973321 0.935357 0.358198 0.153851
H8    H     H_    0.984621 0.916774 0.114903 0.106403
H9    H     H_    0.885651 0.806693 0.024262 0.194928
H10   H     H_    0.923813 0.692086 0.163394 0.092658
H11   H     H_    0.872535 0.828790 0.265272 0.207454
H12   H     H_    0.955628 0.891227 0.679724 0.168562
H13   H     H_    0.077480 0.946117 0.955451 0.147431
H14   H     H_    0.019757 0.055759 0.877709 0.120792
H15   H     H_    0.091161 0.238033 0.787563 0.163421
H16   H     H_    0.099790 0.239371 0.030659 0.117517
H17   H     H_    0.148244 0.133781 0.875111 0.201571
H18   H     H_    0.207686 0.469723 0.215067 0.115858
H19   H     H_    0.792582 0.523150 0.781600 0.122602
H20   H     H_    0.311601 0.469618 0.208994 0.129031
H21   H     H_    0.688651 0.523480 0.789277 0.129714
H22   H     H_    0.329055 0.529902 0.804944 0.129321
H23   H     H_    0.670627 0.476568 0.195411 0.129995
H24   H     H_    0.224544 0.529672 0.807669 0.118099
N1    N     N_R   0.851556 0.499883 0.483569 -0.411670
N2    N     N_R   0.148356 0.499774 0.512474 -0.411270
N3    N     N_2   0.484110 0.456420 0.038520 -0.258043
N4    N     N_2   0.515890 0.543580 0.961480 -0.257904
O1    O     O_R   0.504120 0.286130 0.619770 -0.504170
O2    O     O_2   0.142784 0.226128 0.378177 -0.490079
O3    O     O_2   0.842263 0.229896 0.335995 -0.417685
O4    O     O_2   0.157048 0.772398 0.648708 -0.434390
O5    O     O_3   0.929143 0.087673 0.223298 -0.504506
O6    O     O_3   0.067069 0.930902 0.670557 -0.510403
O7    O     O_R   0.495880 0.713870 0.380230 -0.504222
O8    O     O_R   0.493410 0.256770 0.308360 -0.494440
O9    O     O_R   0.506590 0.743230 0.691640 -0.494322
O10   O     O_R   0.423230 0.514630 0.655730 -0.507097
O11   O     O_R   0.576770 0.485370 0.344270 -0.506903
O12   O     O_R   0.412530 0.485280 0.344320 -0.502811
O13   O     O_R   0.587470 0.514720 0.655680 -0.502239
O14   O     O_2   0.857534 0.771073 0.630277 -0.497273

loop_
_geom_bond_atom_site_label_1
_geom_bond_atom_site_label_2
_ccdc_geom_bond_type
C2    C35   A    
C28   H9    S    
H6    N4    S    
C32   H20   S    
C7    C8    D    
C30   H16   S    
Cu1   Cu2   S    
C1    O8    A    
C19   C21   A    
C8    H4    S    
C11   N1    A    
C26   H12   S    
C29   H13   S    
C13   O2    S    
C18   C19   A    
C33   C35   A    
C4    H2    S    
C22   C25   A    
C15   N2    A    
C31   C33   A    
C10   C35   S    
C9    O10   A    
C18   C20   A    
C2    H23   S    
H5    N3    S    
C29   O6    S    
C27   H7    S    
C6    C31   A    
Cu1   O9    S    
C33   H21   S    
C12   O7    A    
C10   O11   A    
C30   H15   S    
C11   C20   A    
C17   C24   A    
C23   H18   S    
C4    C6    A    
C17   C19   A    
Cu2   O12   S    
C3    C5    A    
C5    N2    S    
C32   C34   A    
C6    N1    S    
C2    C4    A    
C29   C30   S    
Cu1   O13   S    
C28   H11   S    
C5    C23   A    
Cu2   N3    S    
C8    C12   S    
Cu1   N4    S    
C13   C21   A    
C27   H8    S    
Cu1   O10   S    
C9    C34   S    
C14   O3    S    
C14   C16   A    
C22   O5    S    
C27   O5    S    
C24   O6    S    
Cu2   O8    S    
C3    H24   S    
C15   C17   A    
C15   O4    S    
C21   C25   A    
C28   H10   S    
C16   C22   A    
C1    C7    S    
C24   C26   A    
C36   H22   S    
C10   O13   A    
Cu2   O11   S    
C30   H17   S    
C23   C32   A    
C31   H19   S    
C25   H1    S    
C13   N2    A    
C20   C26   A    
C3    C36   A    
C14   N1    A    
Cu1   O1    S    
C1    O1    A    
C34   C36   A    
C9    O12   A    
C7    H3    S    
C11   O14   S    
C16   C18   A    
N3    N4    D    
C12   O9    A    
C27   C28   S    
Cu2   O7    S    
C29   H14   S    
