data_mof_unit_14531.cif
_audit_creation_date              2012-12-11T15:47:59-0500
_audit_creation_method            fapswitch 2.2
_symmetry_space_group_name_H-M    P1
_symmetry_Int_Tables_number       1
_space_group_crystal_system       triclinic
_cell_length_a                    6.933183
_cell_length_b                    17.594782
_cell_length_c                    19.426517
_cell_angle_alpha                 108.578602
_cell_angle_beta                  89.70478
_cell_angle_gamma                 90.444685
_cell_volume                      2246.22605228

loop_
_atom_site_label
_atom_site_type_symbol
_atom_type_description
_atom_site_fract_x
_atom_site_fract_y
_atom_site_fract_z
_atom_type_partial_charge
O1    O     O_R   0.494330 0.415710 0.413720 -0.541882
O2    O     O_R   0.819360 0.430070 0.560210 -0.541160
O3    O     O_R   0.994320 0.584290 0.586280 -0.543083
C1    C     C_R   0.650357 0.414844 0.581602 0.711714
O4    O     O_R   0.823740 0.406290 0.412670 -0.540382
O5    O     O_R   0.998730 0.560340 0.437690 -0.544836
C2    C     C_R   0.654787 0.383178 0.384777 0.693476
O6    O     O_R   0.489920 0.439660 0.562310 -0.538797
O7    O     O_3   0.662330 0.550570 0.508380 -0.365692
V1    V     V_3+5 0.935370 0.490620 0.498440 1.409342
O8    O     O_R   0.328720 0.569930 0.439790 -0.532850
C3    C     C_R   0.160509 0.586580 0.419533 0.709704
O9    O     O_R   0.324340 0.593710 0.587330 -0.540141
C4    C     C_R   0.155192 0.617113 0.615103 0.683903
V2    V     V_3+5 0.435940 0.509380 0.501560 1.422848
O10   O     O_3   0.159110 0.449430 0.491620 -0.367140
C5    C     C_R   0.312412 0.722635 0.719408 -0.166341
H1    H     H_    0.453410 0.702221 0.697253 0.120232
C6    C     C_R   0.301122 0.786493 0.784394 -0.161195
H2    H     H_    0.434051 0.813412 0.810239 0.118419
C7    C     C_R   0.121117 0.815036 0.815553 -0.038963
C8    C     C_R   0.952721 0.778273 0.779665 -0.162757
H3    H     H_    0.811702 0.798754 0.801734 0.115446
C9    C     C_R   0.964033 0.714497 0.714622 -0.165709
H4    H     H_    0.831112 0.687668 0.688684 0.120017
C10   C     C_R   0.144033 0.685743 0.683648 -0.042597
C11   C     C_R   0.012949 0.622708 0.317606 -0.257288
C12   C     C_R   0.153602 0.638482 0.372216 -0.127113
C13   C     C_R   0.286520 0.702658 0.380406 -0.051347
C14   C     C_R   0.284472 0.746486 0.330289 0.056282
C15   C     C_R   0.139748 0.729966 0.276198 0.038766
C16   C     C_R   0.001840 0.669027 0.270982 0.097920
C17   C     C_R   0.421419 0.807291 0.333256 -0.176755
C18   C     C_R   0.416398 0.849831 0.283628 -0.172357
C19   C     C_R   0.271373 0.834728 0.231020 0.088700
C20   C     C_R   0.130912 0.775272 0.227676 0.054557
C21   C     C_R   0.980924 0.761398 0.176065 0.099631
C22   C     C_R   0.843170 0.701429 0.172418 -0.180607
C23   C     C_R   0.854617 0.655170 0.218952 -0.194536
C24   C     C_R   0.263578 0.878711 0.182190 -0.186419
C25   C     C_R   0.113154 0.866152 0.131398 -0.086290
C26   C     C_R   0.971293 0.807749 0.129076 -0.223293
H5    H     H_    0.910639 0.574087 0.311587 0.122219
H6    H     H_    0.534727 0.822236 0.373482 0.141529
H7    H     H_    0.525151 0.895459 0.287048 0.138947
H8    H     H_    0.372358 0.924175 0.184848 0.143479
H9    H     H_    0.855333 0.797463 0.089863 0.124063
H10   H     H_    0.727036 0.689947 0.133241 0.126011
H11   H     H_    0.747058 0.608862 0.214633 0.119543
C27   C     C_R   0.503596 0.211836 0.891528 -0.054344
C28   C     C_R   0.623813 0.143148 0.876529 -0.115562
C29   C     C_R   0.752250 0.125330 0.818059 -0.244300
C30   C     C_R   0.757822 0.171361 0.771404 0.098807
C31   C     C_R   0.630229 0.236538 0.782100 0.016587
C32   C     C_R   0.501636 0.258742 0.842881 0.008343
C33   C     C_R   0.890100 0.152412 0.713543 -0.188538
C34   C     C_R   0.896601 0.196819 0.665560 -0.181385
C35   C     C_R   0.768881 0.260318 0.673786 0.099024
C36   C     C_R   0.635066 0.280209 0.731942 0.055009
C37   C     C_R   0.507075 0.343958 0.739747 0.084530
C38   C     C_R   0.381892 0.366421 0.798836 -0.218861
C39   C     C_R   0.379512 0.326821 0.851104 -0.019593
C40   C     C_R   0.773408 0.304487 0.624893 -0.209244
C41   C     C_R   0.641843 0.366846 0.631767 -0.082819
C42   C     C_R   0.508020 0.385750 0.688993 -0.206832
H12   H     H_    0.846712 0.074036 0.808065 0.121480
H13   H     H_    0.989425 0.103030 0.705430 0.127140
H14   H     H_    0.000697 0.180994 0.621549 0.132717
H15   H     H_    0.877737 0.289746 0.580901 0.127184
H16   H     H_    0.408731 0.434878 0.695361 0.118450
H17   H     H_    0.285709 0.416625 0.805087 0.132636
C43   C     C_R   0.796946 0.295955 0.267099 -0.144036
H18   H     H_    0.927149 0.332204 0.277637 0.122067
C44   C     C_R   0.782972 0.231580 0.202547 -0.163568
H19   H     H_    0.902712 0.219578 0.164999 0.143152
C45   C     C_R   0.617038 0.182823 0.186224 -0.075687
C46   C     C_R   0.464083 0.199596 0.237515 0.145842
C47   C     C_R   0.477061 0.265564 0.301089 -0.169787
H20   H     H_    0.358664 0.277390 0.339578 0.147551
C48   C     C_R   0.643128 0.314161 0.316743 -0.080958
O11   O     O_R   0.774940 0.060470 0.937800 -0.546450
O12   O     O_R   0.440880 0.093730 0.087350 -0.519222
O13   O     O_R   0.266130 0.939630 0.062280 -0.535566
C49   C     C_R   0.608744 0.115391 0.116513 0.735407
O14   O     O_R   0.445480 0.069960 0.939820 -0.539060
O15   O     O_R   0.270770 0.915690 0.913690 -0.543913
C50   C     C_R   0.614927 0.088200 0.921062 0.706616
O16   O     O_R   0.770300 0.084410 0.086380 -0.535714
O17   O     O_3   0.602600 0.949510 0.991670 -0.375245
V3    V     V_3+5 0.329470 0.009370 0.001550 1.451070
O18   O     O_R   0.940760 0.906160 0.912560 -0.547999
C51   C     C_R   0.109911 0.883205 0.884508 0.669173
O19   O     O_R   0.936150 0.929930 0.060100 -0.539225
C52   C     C_R   0.104432 0.914779 0.081619 0.750605
V4    V     V_3+5 0.828930 0.990450 0.998310 1.417769
O20   O     O_3   0.105670 0.050490 0.008320 -0.360545
C53   C     C_R   0.400951 0.237098 0.962222 0.089322
C54   C     C_R   0.206434 0.216588 0.967444 -0.042449
C55   C     C_R   0.113036 0.240942 0.034884 -0.063478
C56   C     C_R   0.214123 0.284449 0.097352 -0.087743
C57   C     C_R   0.409343 0.302259 0.092799 -0.123291
C58   C     C_R   0.503116 0.278075 0.025621 -0.180178
H21   H     H_    0.127204 0.182973 0.919326 0.095082
H22   H     H_    0.962343 0.226279 0.038580 0.086676
H23   H     H_    0.142111 0.304547 0.149441 0.097287
H24   H     H_    0.487898 0.335015 0.141323 0.115550
H25   H     H_    0.654592 0.291989 0.022886 0.101946
C59   C     C_R   0.241545 0.360231 0.911122 0.106234
C60   C     C_R   0.043738 0.344378 0.899159 -0.133768
C61   C     C_R   0.909955 0.381172 0.953280 -0.132719
C62   C     C_R   0.972266 0.434674 0.019431 -0.104166
C63   C     C_R   0.168622 0.452544 0.030982 -0.097869
C64   C     C_R   0.302872 0.416387 0.976614 -0.106617
H26   H     H_    0.993950 0.303977 0.847768 0.128006
H27   H     H_    0.758062 0.368645 0.943611 0.116085
H28   H     H_    0.868301 0.462948 0.061359 0.101908
H29   H     H_    0.216618 0.494866 0.081820 0.108578
H30   H     H_    0.453971 0.432023 0.985578 0.095684
I1    I     I_    0.217111 0.124818 0.229194 -0.455499
C65   C     C_R   0.415229 0.727793 0.444630 0.087360
C66   C     C_R   0.339949 0.770392 0.513221 -0.135059
C67   C     C_R   0.460091 0.793213 0.574068 -0.121509
C68   C     C_R   0.655700 0.773576 0.566819 -0.118426
C69   C     C_R   0.731376 0.731314 0.498661 -0.066755
C70   C     C_R   0.611563 0.708271 0.437702 -0.097445
H31   H     H_    0.188841 0.786126 0.519478 0.093530
H32   H     H_    0.401584 0.826209 0.626798 0.117414
H33   H     H_    0.748644 0.791247 0.613934 0.102366
H34   H     H_    0.882569 0.716214 0.493214 0.097107
H35   H     H_    0.670297 0.675166 0.385194 0.106910

loop_
_geom_bond_atom_site_label_1
_geom_bond_atom_site_label_2
_ccdc_geom_bond_type
C57   C58   A    
V4    O20   S    
C25   C26   A    
C62   C63   A    
C1    O6    A    
C45   C49   S    
C53   C54   A    
C68   H33   S    
C68   C69   A    
C30   C31   A    
C33   C34   A    
C24   H8    S    
C56   H23   S    
O19   C52   A    
C44   C45   A    
C3    C12   S    
C5    C10   A    
C12   C13   A    
C6    C7    A    
C21   C22   A    
C9    C10   A    
O5    C3    A    
C14   C15   A    
O11   V4    S    
C47   C48   A    
C39   C59   S    
C54   H21   S    
C32   C39   A    
C67   H32   S    
C59   C60   A    
C18   C19   A    
C16   C23   A    
C21   C26   A    
C61   C62   A    
O8    V2    S    
C70   H35   S    
C55   C56   A    
C62   H28   S    
O1    V2    S    
O7    V1    S    
C22   H10   S    
C53   C58   A    
C38   H17   S    
C55   H22   S    
O16   V4    S    
C36   C37   A    
O19   V4    S    
O9    C4    A    
C42   H16   S    
C8    H3    S    
C63   C64   A    
C17   C18   A    
C31   C36   A    
O14   C50   A    
C22   C23   A    
C13   C65   S    
C44   H19   S    
C28   C29   A    
C40   H15   S    
C9    H4    S    
C43   C44   A    
O15   V3    S    
C28   C50   S    
O18   C51   A    
O4    C2    A    
C47   H20   S    
C27   C28   A    
C35   C36   A    
C46   C47   A    
O13   C52   A    
C64   H30   S    
C37   C38   A    
C19   C20   A    
C49   O16   A    
C59   C64   A    
O17   V4    S    
O2    C1    A    
C13   C14   A    
C25   C52   S    
O14   V3    S    
C5    H1    S    
C65   C66   A    
C58   H25   S    
C18   H7    S    
C4    C10   S    
C66   C67   A    
O11   C50   A    
O3    C4    A    
C60   H26   S    
C24   C25   A    
C23   H11   S    
C37   C42   A    
O6    V2    S    
O12   C49   A    
O9    V2    S    
C8    C9    A    
C34   H14   S    
O2    V1    S    
C29   H12   S    
C29   C30   A    
C30   C33   A    
C57   H24   S    
O13   V3    S    
O17   V3    S    
C31   C32   A    
C20   C21   A    
C27   C53   S    
C14   C17   A    
C11   C16   A    
O1    C2    A    
C17   H6    S    
C15   C16   A    
C35   C40   A    
C43   H18   S    
C46   I1    S    
O5    V1    S    
O8    C3    A    
V3    O20   S    
C33   H13   S    
C1    C41   S    
C27   C32   A    
O12   V3    S    
C41   C42   A    
C6    H2    S    
C19   C24   A    
O7    V2    S    
O4    V1    S    
C43   C48   A    
O3    V1    S    
V1    O10   S    
C60   C61   A    
C45   C46   A    
C34   C35   A    
C63   H29   S    
C56   C57   A    
C5    C6    A    
C69   H34   S    
C26   H9    S    
C65   C70   A    
C38   C39   A    
O18   V4    S    
C40   C41   A    
C11   H5    S    
C66   H31   S    
C54   C55   A    
C11   C12   A    
C15   C20   A    
C69   C70   A    
O15   C51   A    
C67   C68   A    
C7    C8    A    
C61   H27   S    
V2    O10   S    
C2    C48   S    
C7    C51   S    
