data_mof_unit_29515.cif
_audit_creation_date              2012-12-10T18:48:42-0500
_audit_creation_method            fapswitch 2.2
_symmetry_space_group_name_H-M    P1
_symmetry_Int_Tables_number       1
_space_group_crystal_system       triclinic
_cell_length_a                    15.036494
_cell_length_b                    14.991671
_cell_length_c                    9.930671
_cell_angle_alpha                 89.931854
_cell_angle_beta                  90.077441
_cell_angle_gamma                 89.964334
_cell_volume                      2238.58935264

loop_
_atom_site_label
_atom_site_type_symbol
_atom_type_description
_atom_site_fract_x
_atom_site_fract_y
_atom_site_fract_z
_atom_type_partial_charge
C1    C     C_R   0.120000 0.380721 0.500170 0.995965
C2    C     C_R   0.995159 0.421562 0.927833 0.346496
C3    C     C_R   0.001019 0.421447 0.072497 0.342405
C4    C     C_R   0.004834 0.578439 0.927572 0.349767
C5    C     C_R   0.536717 0.069033 0.071939 0.345584
C6    C     C_R   0.456283 0.935081 0.928934 0.351016
C7    C     C_R   0.463104 0.931073 0.072039 0.348401
C8    C     C_R   0.543572 0.065031 0.928852 0.349190
C9    C     C_R   0.830658 0.234869 0.430370 0.282894
C10   C     C_R   0.264392 0.669318 0.571526 0.228393
C11   C     C_R   0.170196 0.764340 0.427485 0.272346
C12   C     C_R   0.881381 0.620579 0.499883 0.998128
C13   C     C_R   0.735058 0.331292 0.569310 0.228890
C14   C     C_R   0.272554 0.336993 0.449723 0.259153
C15   C     C_R   0.731523 0.665076 0.456078 0.295131
C16   C     C_R   0.838965 0.774464 0.545770 0.379668
C17   C     C_R   0.165489 0.231561 0.551604 0.318981
C18   C     C_R   0.237791 0.827740 0.421655 0.287950
C19   C     C_R   0.670997 0.264208 0.574206 0.277641
C20   C     C_R   0.762969 0.171538 0.423973 0.262467
C21   C     C_R   0.328516 0.736315 0.576044 0.278521
C22   C     C_R   0.773624 0.838914 0.547135 0.369111
C23   C     C_R   0.880447 0.380232 0.500031 1.113369
C24   C     C_R   0.231516 0.166244 0.555905 0.253062
C25   C     C_R   0.336440 0.269965 0.447751 0.361175
C26   C     C_R   0.666226 0.731119 0.452853 0.308033
C27   C     C_R   0.185922 0.685884 0.499991 -0.215297
C28   C     C_R   0.814143 0.314084 0.500121 -0.230113
C29   C     C_R   0.816874 0.688445 0.499340 -0.341474
C30   C     C_R   0.187672 0.315902 0.501168 -0.285823
C31   C     C_R   0.685770 0.186497 0.499429 -0.215032
C32   C     C_R   0.314303 0.813456 0.499337 -0.228351
C33   C     C_R   0.314270 0.186247 0.499798 -0.241070
C34   C     C_R   0.119565 0.619773 0.500018 0.994446
C35   C     C_R   0.687949 0.816115 0.500621 -0.321401
C36   C     C_3   0.913481 0.698866 0.125288 -0.167995
C37   C     C_3   0.904368 0.304887 0.875785 -0.184111
C38   C     C_3   0.086558 0.301102 0.126150 -0.165809
C39   C     C_3   0.095550 0.695170 0.875435 -0.197769
C40   C     C_3   0.513996 0.213663 0.128110 -0.168314
C41   C     C_3   0.316959 0.889857 0.875436 -0.193529
C42   C     C_3   0.484722 0.786367 0.129271 -0.186034
C43   C     C_3   0.682583 0.111283 0.875795 -0.194913
C44   C     C_R   0.619996 0.880683 0.500173 0.985727
C45   C     C_R   0.380094 0.119463 0.499926 1.080964
C46   C     C_R   0.380467 0.880034 0.499894 1.091253
C47   C     C_R   0.619526 0.119982 0.499904 1.037026
C48   C     C_R   0.998991 0.578551 0.072213 0.345888
H1    H     H_    0.906273 0.752243 0.201820 0.185475
H2    H     H_    0.105569 0.747932 0.798485 0.174476
H3    H     H_    0.149926 0.645365 0.862278 0.170470
H4    H     H_    0.100918 0.727436 0.975658 0.188109
H5    H     H_    0.539426 0.268645 0.192047 0.198427
H6    H     H_    0.445866 0.196618 0.163595 0.173138
H7    H     H_    0.511325 0.238998 0.022943 0.168306
H8    H     H_    0.278513 0.840412 0.816236 0.163999
H9    H     H_    0.300924 0.957191 0.834444 0.166685
H10   H     H_    0.294274 0.884419 0.981626 0.170604
H11   H     H_    0.458781 0.731686 0.193416 0.195484
H12   H     H_    0.857235 0.651439 0.139971 0.145358
H13   H     H_    0.552905 0.803005 0.165177 0.169171
H14   H     H_    0.487378 0.760870 0.024293 0.171288
H15   H     H_    0.720663 0.160989 0.816525 0.162023
H16   H     H_    0.699154 0.044051 0.835216 0.157726
H17   H     H_    0.705175 0.116970 0.982072 0.175100
H18   H     H_    0.925702 0.156395 0.369623 0.349196
H19   H     H_    0.340981 0.573436 0.635470 0.362267
H20   H     H_    0.075713 0.841971 0.361775 0.356625
H21   H     H_    0.657825 0.427366 0.630321 0.354120
H22   H     H_    0.249610 0.465303 0.426507 0.351983
H23   H     H_    0.908681 0.730943 0.024733 0.185501
H24   H     H_    0.651377 0.563540 0.443566 0.353307
H25   H     H_    0.966379 0.750554 0.572669 0.342714
H26   H     H_    0.065454 0.151102 0.578629 0.350942
H27   H     H_    0.193129 0.891437 0.264931 0.344088
H28   H     H_    0.605068 0.311135 0.726660 0.350131
H29   H     H_    0.809332 0.106576 0.269983 0.349233
H30   H     H_    0.393566 0.690256 0.730452 0.351606
H31   H     H_    0.749320 0.966711 0.572565 0.324906
H32   H     H_    0.172591 0.088224 0.684423 0.344222
H33   H     H_    0.428722 0.346195 0.368539 0.383316
H34   H     H_    0.894360 0.252023 0.799140 0.177313
H35   H     H_    0.583204 0.666852 0.338201 0.328304
H36   H     H_    0.850021 0.354701 0.862013 0.163229
H37   H     H_    0.898936 0.272758 0.976193 0.181560
H38   H     H_    0.093897 0.247827 0.203036 0.187963
H39   H     H_    0.142838 0.348541 0.140534 0.144868
H40   H     H_    0.091183 0.268891 0.025808 0.178291
N1    N     N_R   0.000000 0.500000 0.857200 -0.186656
N2    N     N_R   1.000000 0.500000 0.142800 -0.191779
N3    N     N_R   0.500000 0.000000 0.857200 -0.201947
N4    N     N_R   0.500000 0.000000 0.142800 -0.200007
O1    O     O_R   0.091610 0.408380 0.614620 -0.555248
O2    O     O_R   0.408390 0.091620 0.385380 -0.621643
O3    O     O_R   0.408390 0.091620 0.614620 -0.597691
O4    O     O_R   0.591610 0.908380 0.385380 -0.605809
O5    O     O_R   0.408390 0.908380 0.385380 -0.541928
O6    O     O_R   0.591610 0.091620 0.614620 -0.576238
O7    O     O_R   0.591610 0.091620 0.385380 -0.538191
O8    O     O_R   0.408390 0.908380 0.614620 -0.558454
O9    O     O_3   0.997073 0.657632 0.143494 -0.537569
O10   O     O_3   0.989486 0.342579 0.856644 -0.545098
O11   O     O_3   0.002991 0.342360 0.144065 -0.536877
O12   O     O_R   0.908390 0.591620 0.385380 -0.583978
O13   O     O_3   0.010455 0.657424 0.856116 -0.562673
O14   O     O_3   0.572472 0.140566 0.140204 -0.554791
O15   O     O_3   0.408479 0.870263 0.862430 -0.536520
O16   O     O_3   0.426737 0.859865 0.140413 -0.552437
O17   O     O_3   0.590924 0.130152 0.862215 -0.537220
O18   O     O_3   0.913512 0.221254 0.373469 -0.716601
O19   O     O_3   0.276566 0.587020 0.632031 -0.771826
O20   O     O_3   0.088167 0.777202 0.367186 -0.734321
O21   O     O_3   0.722327 0.414240 0.627158 -0.747436
O22   O     O_3   0.295277 0.420842 0.401959 -0.763812
O23   O     O_R   0.908390 0.591620 0.614620 -0.589754
O24   O     O_3   0.714203 0.577258 0.422197 -0.747057
O25   O     O_3   0.923098 0.798877 0.589258 -0.676110
O26   O     O_3   0.078833 0.215194 0.591469 -0.723583
O27   O     O_3   0.230814 0.904300 0.344454 -0.731115
O28   O     O_3   0.593289 0.272857 0.647397 -0.698449
O29   O     O_3   0.770435 0.094486 0.348319 -0.749240
O30   O     O_3   0.405779 0.728092 0.650770 -0.694609
O31   O     O_3   0.797138 0.923263 0.591617 -0.692782
O32   O     O_3   0.217942 0.083036 0.612637 -0.762435
O33   O     O_3   0.422276 0.284388 0.402167 -0.763463
O34   O     O_R   0.091610 0.408380 0.385380 -0.618541
O35   O     O_3   0.581056 0.715180 0.405974 -0.754289
O36   O     O_R   0.908390 0.408380 0.385380 -0.560578
O37   O     O_R   0.091610 0.591620 0.614620 -0.594233
O38   O     O_R   0.091610 0.591620 0.385380 -0.573123
O39   O     O_R   0.908390 0.408380 0.614620 -0.581948
O40   O     O_R   0.591610 0.908380 0.614620 -0.621790
Zn1   Zn    Zn3+2 1.000000 0.500000 0.653120 1.068329
Zn2   Zn    Zn3+2 0.000000 0.500000 0.346880 1.061348
Zn3   Zn    Zn3+2 0.500000 0.000000 0.653120 1.049564
Zn4   Zn    Zn3+2 0.500000 0.000000 0.346880 1.057080

loop_
_geom_bond_atom_site_label_1
_geom_bond_atom_site_label_2
_ccdc_geom_bond_type
C10   C27   A    
C39   H3    S    
C11   C18   A    
C12   C29   S    
C33   C45   S    
C19   C31   A    
C43   H15   S    
C22   O31   S    
O4    Zn4   S    
N4    Zn4   S    
H22   O22   S    
C22   C35   A    
H21   O21   S    
H28   O28   S    
C47   O6    A    
O12   Zn2   S    
C38   H38   S    
C3    N2    A    
C37   H37   S    
C41   H10   S    
C12   O12   A    
O1    Zn1   S    
C4    C48   A    
C37   O10   S    
N2    Zn2   S    
C7    N4    A    
C6    N3    A    
C24   O32   S    
C47   O7    A    
H20   O20   S    
C21   O30   S    
C25   O33   S    
C34   O37   A    
O2    Zn4   S    
C6    O15   S    
C37   H36   S    
C42   H14   S    
O8    Zn3   S    
C12   O23   A    
C39   H4    S    
C10   C21   A    
C31   C47   S    
C17   C30   A    
O38   Zn2   S    
C14   C30   A    
C45   O2    A    
C43   H16   S    
C15   C29   A    
C5    O14   S    
C27   C34   S    
H26   O26   S    
C21   C32   A    
C17   C24   A    
N1    Zn1   S    
C13   C19   A    
H25   O25   S    
C1    O34   A    
C15   C26   A    
O23   Zn1   S    
C36   H12   S    
C16   C29   A    
C14   O22   S    
H31   O31   S    
O6    Zn3   S    
C38   H40   S    
C36   O9    S    
C2    N1    A    
C41   H8    S    
C38   O11   S    
C44   O4    A    
O36   Zn2   S    
C9    C20   A    
C11   C27   A    
C43   H17   S    
C40   H7    S    
O3    Zn3   S    
C23   O39   A    
C10   O19   S    
C13   C28   A    
C8    N3    A    
C23   C28   S    
H18   O18   S    
C35   C44   S    
C42   H13   S    
C34   O38   A    
C20   O29   S    
C17   O26   S    
O37   Zn1   S    
H19   O19   S    
C46   O5    A    
C19   O28   S    
C40   H6    S    
C37   H34   S    
C18   C32   A    
C45   O3    A    
C40   O14   S    
C4    N1    A    
H32   O32   S    
C3    O11   S    
C9    O18   S    
C39   O13   S    
C46   O8    A    
C16   C22   A    
C41   O15   S    
H33   O33   S    
C11   O20   S    
C15   O24   S    
C32   C46   S    
H35   O35   S    
O39   Zn1   S    
C42   H11   S    
C5    C8    A    
C36   H23   S    
C6    C7    A    
C44   O40   A    
C4    O13   S    
H24   O24   S    
C24   C33   A    
C38   H39   S    
C2    C3    A    
C41   H9    S    
H27   O27   S    
C16   O25   S    
O40   Zn3   S    
C48   O9    S    
C1    C30   S    
O7    Zn4   S    
C26   O35   S    
C14   C25   A    
H30   O30   S    
C5    N4    A    
H29   O29   S    
C26   C35   A    
C39   H2    S    
N3    Zn3   S    
O34   Zn2   S    
C1    O1    A    
C40   H5    S    
C2    O10   S    
C7    O16   S    
C48   N2    A    
C43   O17   S    
O5    Zn4   S    
C8    O17   S    
C42   O16   S    
C18   O27   S    
C13   O21   S    
C36   H1    S    
C9    C28   A    
C25   C33   A    
C23   O36   A    
C20   C31   A    
