data_mof_unit_46156.cif
_audit_creation_date              2013-03-05T15:40:11-0500
_audit_creation_method            fapswitch 2.2
_symmetry_space_group_name_H-M    P1
_symmetry_Int_Tables_number       1
_space_group_crystal_system       triclinic
_cell_length_a                    7.774874
_cell_length_b                    8.585999
_cell_length_c                    10.551095
_cell_angle_alpha                 88.653023
_cell_angle_beta                  97.692784
_cell_angle_gamma                 93.533811
_cell_volume                      696.589927863

loop_
_atom_site_label
_atom_site_type_symbol
_atom_site_description
_atom_site_fract_x
_atom_site_fract_y
_atom_site_fract_z
_atom_type_partial_charge
O1    O     O_R   0.391630 0.738350 0.508060 -0.616759
O2    O     O_R   0.608370 0.261650 0.491940 -0.597015
O3    O     O_R   0.674540 0.711990 0.487010 -0.628486
O4    O     O_R   0.325460 0.288010 0.512990 -0.604398
C1    C     C_R   0.544859 0.794851 0.497013 0.948457
C2    C     C_R   0.455253 0.205125 0.503349 1.045399
O5    O     O_R   0.411370 0.508250 0.688780 -0.584723
O6    O     O_R   0.588630 0.491750 0.311220 -0.582949
O7    O     O_R   0.694270 0.481880 0.667740 -0.606755
O8    O     O_R   0.305730 0.518120 0.332260 -0.613795
C3    C     C_R   0.568547 0.484911 0.737170 0.957206
C4    C     C_R   0.428342 0.497914 0.262879 0.968092
Zn1   Zn    Zn3+2 0.311100 0.517600 0.514050 1.016225
Zn2   Zn    Zn3+2 0.688900 0.482400 0.485950 1.021601
C5    C     C_2   0.596637 0.450578 0.873668 -0.410869
C6    C     C_2   0.389002 0.470204 0.126439 -0.422454
C7    C     C_2   0.469668 0.374756 0.930957 0.256738
C8    C     C_2   0.484497 0.373333 0.069363 0.261976
H1    H     H_    0.291890 0.538339 0.070295 0.167346
H2    H     H_    0.714945 0.498135 0.929687 0.170030
C9    C     C_2   0.568616 0.958249 0.495723 -0.307601
C10   C     C_2   0.431731 0.041686 0.505459 -0.277199
H3    H     H_    0.697922 0.009411 0.486402 0.194537
H4    H     H_    0.302415 0.990570 0.514785 0.182723
N1    N     N_2   0.940600 0.458860 0.467170 -0.154112
N2    N     N_2   0.059400 0.541140 0.532830 -0.157996
H5    H     H_    0.985528 0.383054 0.406730 0.215903
H6    H     H_    0.014447 0.616893 0.593291 0.201213
N3    N     N_R   0.596389 0.264538 0.139635 0.229351
O9    O     O_R   0.739174 0.230542 0.097472 -0.357866
O10   O     O_R   0.537845 0.175464 0.227584 -0.400021
N4    N     N_R   0.322348 0.290767 0.860953 0.234269
O11   O     O_R   0.172160 0.285414 0.902981 -0.356115
O12   O     O_R   0.346810 0.192781 0.773925 -0.391955

loop_
_geom_bond_atom_site_label_1
_geom_bond_atom_site_label_2
_geom_bond_distance
_ccdc_geom_bond_type
O7    Zn2   1.912847 S    
N3    O9    1.301447 A    
N1    H5    1.029314 S    
N2    H6    1.029256 S    
O6    C4    1.285574 A    
N4    O11   1.301277 A    
C7    C8    1.449235 S    
N3    O10   1.300003 A    
C8    N3    1.440150 S    
C9    C10   1.335339 D    
O5    C3    1.285510 A    
O7    C3    1.299434 A    
O2    C2    1.277356 A    
O3    Zn2   1.981654 S    
O8    C4    1.299212 A    
C6    H1    1.087021 S    
O1    C1    1.277293 A    
C6    C8    1.350953 D    
C9    H3    1.087813 S    
Zn2   N1    2.015978 S    
C5    H2    1.087040 S    
O2    Zn2   1.961394 S    
C10   H4    1.087758 S    
Zn1   N2    2.015977 S    
O1    Zn1   1.961395 S    
C2    C10   1.403976 S    
O5    Zn1   1.904996 S    
C1    C9    1.403697 S    
O4    C2    1.286286 A    
O4    Zn1   1.981655 S    
C5    C7    1.351188 D    
C7    N4    1.440225 S    
O6    Zn2   1.904996 S    
N1    N2    1.266265 D    
C3    C5    1.453463 S    
C4    C6    1.453217 S    
O3    C1    1.286202 A    
O8    Zn1   1.912849 S    
N4    O12   1.299975 A    
