data_mof_unit_11897.cif
_audit_creation_date              2013-03-05T15:52:12-0500
_audit_creation_method            fapswitch 2.2
_symmetry_space_group_name_H-M    P1
_symmetry_Int_Tables_number       1
_space_group_crystal_system       triclinic
_cell_length_a                    8.306514
_cell_length_b                    17.430181
_cell_length_c                    26.966121
_cell_angle_alpha                 95.470256
_cell_angle_beta                  92.68925
_cell_angle_gamma                 83.569954
_cell_volume                      3859.44153772

loop_
_atom_site_label
_atom_site_type_symbol
_atom_site_description
_atom_site_fract_x
_atom_site_fract_y
_atom_site_fract_z
_atom_type_partial_charge
P1    P     P_3+3 0.078810 0.562990 0.610370 0.499810
O1    O     O_2   0.910880 0.540430 0.617910 -0.353629
O2    O     O_3   0.142880 0.540370 0.557740 -0.406922
O3    O     O_3   0.675650 0.402220 0.588450 -0.384682
O4    O     O_2   0.838379 0.435456 0.672849 -0.453689
O5    O     O_3   0.058018 0.663908 0.623452 -0.535911
O6    O     O_3   0.669900 0.317397 0.671995 -0.488969
H1    H     H_    0.826806 0.271889 0.616954 0.048376
C1    C     C_3   0.715449 0.179797 0.645181 0.123541
H2    H     H_    0.785072 0.141418 0.616329 0.069733
H3    H     H_    0.779724 0.174825 0.682019 0.116743
P2    P     P_3+3 0.645380 0.325580 0.462150 0.496154
P3    P     P_3+3 0.122534 0.261349 0.563884 0.470582
O7    O     O_2   0.823810 0.314230 0.476690 -0.327687
O8    O     O_3   0.086630 0.363340 0.564170 -0.377443
O9    O     O_2   0.986341 0.225121 0.531806 -0.413331
O10   O     O_3   0.642822 0.306272 0.397232 -0.547142
O11   O     O_3   0.105959 0.229107 0.623421 -0.578983
C2    C     C_3   0.132547 0.287841 0.661762 0.676123
H4    H     H_    0.065123 0.343691 0.653446 0.001653
C3    C     C_3   0.070537 0.267210 0.711106 0.097591
H5    H     H_    0.936844 0.271800 0.708951 0.071678
C4    C     C_3   0.198715 0.299675 0.416974 0.326612
H6    H     H_    0.328068 0.309093 0.421263 0.009114
H7    H     H_    0.135106 0.321096 0.451790 0.108833
C5    C     C_3   0.184679 0.213215 0.407018 0.161296
H8    H     H_    0.247318 0.191244 0.372016 0.112987
H9    H     H_    0.246129 0.183201 0.438379 0.015356
Ba1   Ba    Ba6+2 0.856110 0.463800 0.523550 1.590187
C6    C     C_3   0.003229 0.700784 0.581036 0.239742
H10   H     H_    0.874751 0.692264 0.572885 0.099018
H11   H     H_    0.075071 0.678190 0.548099 0.100471
C7    C     C_3   0.022100 0.787430 0.591148 -0.097317
H12   H     H_    0.993972 0.816026 0.556408 0.066187
H13   H     H_    0.150462 0.794583 0.602363 0.136482
C8    C     C_3   0.683352 0.370924 0.375531 0.432845
H14   H     H_    0.804367 0.385167 0.389637 0.099478
H15   H     H_    0.592213 0.421608 0.383630 0.131293
C9    C     C_3   0.686996 0.351657 0.319368 -0.866088
H16   H     H_    0.782564 0.303178 0.310195 0.279252
H17   H     H_    0.713085 0.402811 0.300978 0.220503
H18   H     H_    0.567566 0.334634 0.304793 0.262695
P4    P     P_3+3 0.110900 0.436950 0.389630 0.490389
O12   O     O_2   0.278810 0.459550 0.382060 -0.356340
O13   O     O_3   0.046820 0.459570 0.442260 -0.407667
O14   O     O_3   0.514050 0.597710 0.411540 -0.368737
O15   O     O_3   0.130266 0.336330 0.375935 -0.548579
P5    P     P_3+3 0.076113 0.738081 0.435671 0.511407
O16   O     O_3   0.627090 0.591350 0.524530 -0.386954
O17   O     O_3   0.103080 0.636600 0.435820 -0.381143
O18   O     O_2   0.223354 0.772419 0.462972 -0.341227
O19   O     O_3   0.087099 0.759804 0.374065 -0.519459
Ba2   Ba    Ba6+2 0.333710 0.536130 0.476450 1.586966
P6    P     P_3+3 0.671798 0.411412 0.653450 0.508011
C10   C     C_3   0.709008 0.262904 0.630942 0.420756
H19   H     H_    0.619497 0.269340 0.599576 0.116799
O20   O     O_3   0.562610 0.408580 0.475460 -0.406217
C11   C     C_3   0.498116 0.655160 0.627366 0.409513
H20   H     H_    0.378249 0.641502 0.611252 0.088337
H21   H     H_    0.586320 0.602248 0.624663 0.091474
C12   C     C_3   0.477461 0.684033 0.682001 -0.877575
H22   H     H_    0.396790 0.739452 0.685089 0.275071
H23   H     H_    0.421936 0.641164 0.701685 0.204251
H24   H     H_    0.597202 0.693508 0.700218 0.279197
P7    P     P_3+3 0.549648 0.688243 0.538794 0.457271
O21   O     O_2   0.365880 0.685750 0.523280 -0.381633
O22   O     O_3   0.556433 0.713360 0.603136 -0.530964
H25   H     H_    0.105651 0.310826 0.741525 0.084678
C13   C     C_3   0.991041 0.711436 0.343755 0.203565
H26   H     H_    0.064654 0.655889 0.332265 0.152327
H27   H     H_    0.883870 0.698430 0.363249 -0.007775
C14   C     C_3   0.924976 0.751011 0.297806 -0.095112
H28   H     H_    0.838924 0.714611 0.277233 0.167963
H29   H     H_    0.855528 0.807545 0.309158 0.140214
P8    P     P_3+3 0.524876 0.591412 0.346487 0.501138
C15   C     C_3   0.484884 0.739651 0.348837 0.208260
H30   H     H_    0.618443 0.732615 0.345781 -0.026699
O23   O     O_2   0.431578 0.523723 0.323850 -0.376990
O24   O     O_3   0.414035 0.674700 0.326053 -0.462265
H31   H     H_    0.456002 0.748014 0.388982 0.125613
C16   C     C_3   0.418686 0.812977 0.323725 0.330268
H32   H     H_    0.285202 0.821242 0.326596 0.126939
C17   C     C_R   0.004482 0.439150 0.178030 0.558295
O25   O     O_2   0.021354 0.380388 0.199914 -0.570599
N1    N     N_R   0.943895 0.509104 0.202914 -0.167596
C18   C     C_R   0.921323 0.575097 0.177124 0.585155
C19   C     C_2   0.760042 0.552119 0.271278 -0.180005
C20   C     C_3   0.738998 0.577816 0.325962 0.121014
C21   C     C_1   0.983315 0.489335 0.342943 0.280136
C22   C     C_2   0.022202 0.483303 0.295033 -0.176362
C23   C     C_2   0.903154 0.514224 0.255732 0.098799
C24   C     C_R   0.023429 0.502117 0.101239 -0.074034
C25   C     C_R   0.044835 0.434849 0.127021 -0.074074
C26   C     C_R   0.101402 0.364385 0.100683 -0.054429
C27   C     C_R   0.959781 0.572365 0.126521 -0.066687
C28   C     C_2   0.851393 0.531314 0.360101 -0.480476
H33   H     H_    0.141656 0.457212 0.284180 0.182551
H34   H     H_    0.112184 0.310766 0.118447 0.181524
C29   C     C_2   0.361328 0.488921 0.641077 -0.353381
C30   C     C_R   0.191869 0.428433 0.975559 -0.117515
C31   C     C_R   0.057180 0.561371 0.971552 0.073878
C32   C     C_R   0.141106 0.493122 0.947847 0.071245
C33   C     C_R   0.297576 0.366525 0.952173 0.305624
C34   C     C_R   0.326096 0.363994 0.901090 -0.187231
C35   C     C_R   0.266471 0.424944 0.872609 -0.118849
C36   C     C_R   0.176851 0.490355 0.896206 -0.057857
C37   C     C_R   0.124520 0.553555 0.868293 -0.050107
C38   C     C_R   0.163914 0.550928 0.817597 0.522799
N2    N     N_R   0.251962 0.486179 0.794460 -0.170041
C39   C     C_R   0.302217 0.423321 0.821528 0.538667
C40   C     C_2   0.454823 0.472764 0.729943 -0.092770
C41   C     C_3   0.504301 0.484295 0.677852 0.157099
C42   C     C_1   0.214644 0.514192 0.656428 0.266619
C43   C     C_2   0.171537 0.507527 0.702580 -0.213294
C44   C     C_2   0.297027 0.486242 0.742553 0.097832
O26   O     O_2   0.378322 0.365775 0.801235 -0.546045
C45   C     C_R   0.136547 0.429069 0.025354 0.057105
C46   C     C_R   0.064173 0.499180 0.049975 0.102246
C47   C     C_R   0.030185 0.566262 0.023669 0.043781
C48   C     C_R   0.143232 0.361362 0.050817 -0.092195
H35   H     H_    0.549138 0.461042 0.758309 0.143367
H36   H     H_    0.404969 0.315727 0.884274 0.209196
H37   H     H_    0.175432 0.304504 0.032242 0.166985
O27   O     O_2   0.867984 0.637018 0.198279 -0.563106
C49   C     C_R   0.936024 0.639197 0.100821 -0.008526
H38   H     H_    0.668919 0.574142 0.244506 0.200825
H39   H     H_    0.889906 0.694581 0.119478 0.192560
C50   C     C_R   0.002070 0.622661 0.942069 -0.201450
C51   C     C_R   0.035288 0.618790 0.891744 -0.074981
O28   O     O_2   0.122539 0.607215 0.794378 -0.578457
C52   C     C_R   0.969724 0.636283 0.050603 -0.206089
H40   H     H_    0.929150 0.674201 0.956615 0.138006
H41   H     H_    0.990662 0.667776 0.871175 0.176724
H42   H     H_    0.045866 0.521106 0.712379 0.190659
H43   H     H_    0.950820 0.690707 0.034169 0.143399
H44   H     H_    0.837853 0.545428 0.399860 0.175050
H45   H     H_    0.383401 0.476599 0.601604 0.174673
H46   H     H_    0.487082 0.857297 0.531387 0.166632
H47   H     H_    0.309308 0.104864 0.548004 0.155786
C53   C     C_R   0.408656 0.279073 0.519176 -0.495450
C54   C     C_R   0.551741 0.254775 0.494627 0.266923
C55   C     C_R   0.611234 0.175865 0.490362 -0.267168
C56   C     C_R   0.526076 0.121433 0.510447 0.036268
C57   C     C_R   0.378543 0.146419 0.533624 -0.218003
C58   C     C_R   0.319224 0.225359 0.537275 0.333538
C59   C     C_R   0.594495 0.836287 0.510747 -0.244610
C60   C     C_R   0.643021 0.756517 0.504309 0.312571
C61   C     C_R   0.881873 0.780342 0.462513 0.096753
C62   C     C_R   0.834497 0.861015 0.468558 0.474446
C63   C     C_R   0.688364 0.889029 0.492559 -0.058322
C64   C     C_1   0.634428 0.971376 0.499681 0.124235
C65   C     C_1   0.585933 0.039789 0.504958 -0.004852
C66   C     C_R   0.782063 0.729080 0.478472 -0.603187
H48   H     H_    0.721397 0.156851 0.470706 0.169699
H49   H     H_    0.362213 0.339795 0.521875 0.181192
H50   H     H_    0.819797 0.667397 0.474395 0.189524
O29   O     O_3   0.019005 0.201539 0.402272 -0.544527
C67   C     C_3   0.003910 0.121536 0.398134 -0.081276
H51   H     H_    0.044472 0.095955 0.433482 0.135285
H52   H     H_    0.071965 0.090512 0.366261 0.137567
H53   H     H_    0.874106 0.113286 0.391046 0.147065
N3    N     N_R   0.916769 0.826582 0.629970 0.276323
O30   O     O_R   0.916184 0.900961 0.640653 -0.394600
O31   O     O_R   0.824860 0.788801 0.654434 -0.326457
O32   O     O_3   0.556302 0.159164 0.646579 -0.552722
C68   C     C_3   0.562251 0.080329 0.655019 0.015437
H54   H     H_    0.627303 0.068470 0.690967 0.133390
H55   H     H_    0.619161 0.042325 0.623651 0.110630
H56   H     H_    0.436330 0.065734 0.657243 0.168448
N4    N     N_R   0.053929 0.761989 0.265170 0.290816
O33   O     O_R   0.148416 0.702709 0.246522 -0.314166
O34   O     O_R   0.062596 0.829949 0.249947 -0.310084
N5    N     N_R   0.483875 0.880773 0.350257 0.187295
O35   O     O_R   0.578454 0.920908 0.328531 -0.390662
O36   O     O_R   0.440295 0.903783 0.395446 -0.440601
N6    N     N_R   0.455648 0.806874 0.270590 0.274100
O37   O     O_R   0.536355 0.745251 0.249132 -0.353091
O38   O     O_R   0.399667 0.862646 0.243601 -0.261249
N7    N     N_R   0.396559 0.312071 0.980452 0.227039
O39   O     O_R   0.478600 0.336855 0.019927 -0.375554
O40   O     O_R   0.426816 0.240213 0.962390 -0.378843
N8    N     N_R   0.304119 0.297852 0.666894 0.236307
O41   O     O_R   0.390771 0.281219 0.706705 -0.283381
O42   O     O_R   0.368165 0.329459 0.632203 -0.468101
O43   O     O_3   0.938263 0.911723 0.455397 -0.618497
C69   C     C_3   0.889817 0.934415 0.407719 -0.043416
H57   H     H_    0.786756 0.980884 0.410282 0.136752
H58   H     H_    0.856936 0.885204 0.381395 0.142141
H59   H     H_    0.993060 0.957606 0.391825 0.154397
O44   O     O_3   0.135150 0.191261 0.720513 -0.544607
C70   C     C_3   0.089739 0.175773 0.767975 -0.037598
H60   H     H_    0.955441 0.181953 0.770793 0.108222
H61   H     H_    0.145525 0.213979 0.797891 0.143654
H62   H     H_    0.135279 0.114912 0.773937 0.161319

loop_
_geom_bond_atom_site_label_1
_geom_bond_atom_site_label_2
_geom_bond_distance
_ccdc_geom_bond_type
C67   H52   1.113196 S    
C10   H19   1.105090 S    
C20   C28   1.506052 S    
C62   O43   1.381743 S    
O32   C68   1.409181 S    
C19   C23   1.357680 D    
P2    Ba1   3.394365 S    
C40   H35   1.085512 S    
C2    H4    1.104237 S    
C15   O24   1.410030 S    
P3    C58   1.836391 S    
C19   C20   1.512086 S    
C50   C51   1.391322 A    
C70   H61   1.113814 S    
C43   C44   1.506765 S    
N1    C23   1.471505 S    
C62   C63   1.418265 A    
C28   H44   1.085134 S    
Ba1   O16   2.758367 S    
N1    C18   1.390652 Am   
C38   N2    1.386206 Am   
C5    H8    1.113917 S    
P4    C21   1.849084 S    
O16   P7    1.752160 S    
P3    O11   1.767055 S    
O1    Ba1   2.800913 S    
C8    H14   1.103984 S    
C2    C3    1.536956 S    
C35   C39   1.419671 A    
H46   C59   1.083745 S    
O11   C2    1.411810 S    
C52   H43   1.077573 S    
C6    H10   1.102977 S    
C34   H36   1.083664 S    
N4    O33   1.301090 A    
C26   H34   1.083297 S    
C11   H21   1.110647 S    
C56   C57   1.408025 A    
C17   C25   1.424078 A    
C31   C50   1.414616 A    
P2    C54   1.838513 S    
C2    N8    1.453716 S    
C5    O29   1.411696 S    
C13   H27   1.109977 S    
P1    O1    1.518705 D    
C4    C5    1.521871 S    
C12   H23   1.108432 S    
C24   C46   1.433426 A    
C46   C47   1.419665 A    
O14   P8    1.753088 S    
O19   C13   1.404823 S    
C67   H53   1.109013 S    
C59   C63   1.405726 A    
C26   C48   1.399277 A    
O12   Ba2   2.801432 S    
P4    Ba2   3.381338 S    
P5    O18   1.546457 D    
O43   C69   1.408593 S    
C40   C41   1.519534 S    
O7    Ba1   2.821725 S    
P7    O22   1.748370 S    
P2    O10   1.750448 S    
C47   C52   1.413239 A    
C4    H6    1.104099 S    
C1    C10   1.528201 S    
O10   C8    1.398158 S    
O6    C10   1.413301 S    
P7    C60   1.835181 S    
P4    O15   1.748449 S    
C1    H2    1.115175 S    
C22   H33   1.085280 S    
C38   O28   1.222336 D    
O3    Ba1   2.725182 S    
C48   H37   1.078497 S    
C37   C51   1.400118 A    
C11   C12   1.521931 S    
N6    O38   1.301070 A    
O13   Ba2   2.929384 S    
C3    H5    1.103613 S    
C68   H55   1.112795 S    
C13   H26   1.111430 S    
P1    C42   1.842304 S    
C50   H40   1.077509 S    
H1    C10   1.097481 S    
P1    Ba1   3.380903 S    
C34   C35   1.402069 A    
O8    Ba1   2.711154 S    
C9    H18   1.110758 S    
N3    O31   1.301694 A    
N5    O36   1.300987 A    
C53   C54   1.392072 A    
O17   Ba2   2.711938 S    
C4    O15   1.396637 S    
C70   H60   1.114143 S    
C31   C47   1.426592 A    
C31   C32   1.421543 A    
O4    P6    1.544042 D    
C15   H30   1.108512 S    
C14   H29   1.108712 S    
C45   C48   1.415466 A    
C9    H16   1.110724 S    
Ba2   O20   2.757762 S    
C57   C58   1.404489 A    
C11   H20   1.108893 S    
N5    O35   1.301630 A    
O5    C6    1.397973 S    
C24   C27   1.404720 A    
C16   H32   1.107387 S    
P1    O5    1.751505 S    
O29   C67   1.407449 S    
Ba1   O13   2.754814 S    
P1    O2    1.539508 S    
C16   N5    1.465342 S    
C53   C58   1.394094 A    
C12   H24   1.110565 S    
P4    O12   1.518971 D    
C16   N6    1.470906 S    
O44   C70   1.409694 S    
C1    H3    1.111611 S    
H47   C57   1.083283 S    
C27   C49   1.402079 A    
C17   O25   1.221597 D    
C64   C65   1.212394 T    
C30   C32   1.425539 A    
C7    H12   1.105919 S    
C43   H42   1.083595 S    
P6    C41   1.874361 S    
C25   C26   1.403365 A    
C61   C62   1.413169 A    
C66   H50   1.082349 S    
Ba2   O21   2.822023 S    
P4    O13   1.539537 S    
C42   C43   1.330134 D    
C51   H41   1.083606 S    
P2    O20   1.547851 S    
N6    O37   1.301756 A    
C17   N1    1.388718 Am   
P2    O7    1.511346 D    
P3    O8    1.768656 S    
C3    H25   1.115430 S    
C18   O27   1.218956 D    
C68   H54   1.112849 S    
C61   C66   1.394144 A    
C37   C38   1.415906 A    
C69   H58   1.110152 S    
C8    H15   1.109137 S    
C39   O26   1.221045 D    
C13   C14   1.525345 S    
C59   C60   1.400300 A    
C3    O44   1.413134 S    
C56   C65   1.450013 S    
C49   C52   1.390706 A    
C6    C7    1.533063 S    
O3    P6    1.746311 S    
C55   C56   1.406445 A    
C8    C9    1.520694 S    
C15   H31   1.112291 S    
Ba1   O20   2.922785 S    
C14   H28   1.103854 S    
C15   C16   1.538535 S    
C29   C42   1.319969 D    
N3    O30   1.300494 A    
C35   C36   1.405334 A    
C5    H9    1.110602 S    
C21   C28   1.324278 D    
C1    O32   1.411408 S    
C7    N3    1.463960 S    
C21   C22   1.337956 D    
C70   H62   1.109592 S    
C11   O22   1.398867 S    
C54   C55   1.404332 A    
C6    H11   1.109291 S    
O2    Ba2   2.755402 S    
O2    Ba1   2.928627 S    
C22   C23   1.510866 S    
C67   H51   1.112739 S    
N4    O34   1.300549 A    
C69   H59   1.108028 S    
O16   Ba2   2.921837 S    
C29   C41   1.511168 S    
P5    C61   1.847017 S    
O14   Ba2   2.724745 S    
P5    O17   1.758269 S    
C24   C25   1.409537 A    
C7    H13   1.111843 S    
C32   C36   1.432673 A    
C33   N7    1.436239 S    
C30   C33   1.429371 A    
C12   H22   1.110829 S    
C60   C66   1.391524 A    
P8    O23   1.545423 D    
N8    O42   1.293145 A    
C18   C27   1.411180 A    
N2    C44   1.465916 S    
C53   H49   1.082042 S    
N7    O39   1.301677 A    
P8    C20   1.870530 S    
P5    O19   1.747421 S    
C4    H7    1.111554 S    
C9    H17   1.107035 S    
C68   H56   1.109393 S    
P7    O21   1.567960 D    
C36   C37   1.410368 A    
P3    O9    1.546233 D    
N2    C39   1.388829 Am   
C33   C34   1.404384 A    
C49   H39   1.083702 S    
C63   C64   1.452316 S    
C29   H45   1.085656 S    
C40   C44   1.358855 D    
C30   C45   1.438142 A    
C55   H48   1.082694 S    
O6    P6    1.760237 S    
C69   H57   1.110519 S    
C45   C46   1.419097 A    
P8    O24   1.750531 S    
C19   H38   1.085332 S    
N8    O41   1.301810 A    
Ba1   Ba2   4.565038 S    
C14   N4    1.457728 S    
N7    O40   1.301459 A    
