data_mof_unit_24072.cif
_audit_creation_date              2012-12-10T17:22:06-0500
_audit_creation_method            fapswitch 2.2
_symmetry_space_group_name_H-M    P1
_symmetry_Int_Tables_number       1
_space_group_crystal_system       triclinic
_cell_length_a                    10.206748
_cell_length_b                    10.776781
_cell_length_c                    15.715901
_cell_angle_alpha                 92.182355
_cell_angle_beta                  79.625726
_cell_angle_gamma                 95.005032
_cell_volume                      1693.49959291

loop_
_atom_site_label
_atom_site_type_symbol
_atom_type_description
_atom_site_fract_x
_atom_site_fract_y
_atom_site_fract_z
_atom_type_partial_charge
C1    C     C_R   0.555126 0.733172 0.491021 0.856006
C2    C     C_3   0.388968 0.548853 0.068105 0.931284
C3    C     C_3   0.492656 0.457958 0.082950 -0.502494
C4    C     C_3   0.453335 0.320206 0.050018 0.679961
C5    C     C_3   0.472558 0.324656 0.945206 0.705462
C6    C     C_1   0.500640 0.465755 0.174116 0.254722
C7    C     C_1   0.484892 0.481156 0.827328 0.181199
C8    C     C_1   0.489464 0.491667 0.751795 -0.244138
C9    C     C_2   0.583900 0.865604 0.474828 0.279460
C10   C     C_2   0.491589 0.929418 0.447976 0.414230
C11   C     C_2   0.417701 0.132510 0.490368 0.379754
C12   C     C_R   0.497711 0.500179 0.662129 0.870963
C13   C     C_2   0.510437 0.064778 0.441887 0.293700
C14   C     C_2   0.930844 0.524025 0.495081 0.548811
C15   C     C_2   0.073688 0.491032 0.490801 0.619059
C16   C     C_R   0.445222 0.266529 0.501111 0.817421
C17   C     C_R   0.501334 0.496566 0.338067 0.867944
C18   C     C_3   0.364090 0.537155 0.972753 0.686032
C19   C     C_3   0.621551 0.535092 0.937698 0.761822
C20   C     C_3   0.633565 0.506754 0.031735 1.020221
C21   C     C_1   0.502594 0.479973 0.249141 -0.125004
C22   C     C_3   0.485934 0.468461 0.918890 -0.405795
H1    H     H_    0.873774 0.364918 0.439530 0.184202
N1    N     N_2   0.842720 0.448890 0.465540 -0.230778
N2    N     N_2   0.157250 0.551040 0.534500 0.021558
O1    O     O_R   0.431050 0.692470 0.506940 -0.588508
O2    O     O_R   0.651130 0.659650 0.484820 -0.510008
O3    O     O_R   0.389910 0.516410 0.633920 -0.670687
O4    O     O_R   0.609990 0.483590 0.611800 -0.593582
O5    O     O_R   0.348870 0.340350 0.515180 -0.551638
O6    O     O_R   0.568950 0.307530 0.493060 -0.588109
O7    O     O_R   0.390010 0.516410 0.388200 -0.551187
O8    O     O_R   0.610090 0.483590 0.366080 -0.603405
Zn1   Zn    Zn3+2 0.353060 0.521920 0.514770 1.070430
Zn2   Zn    Zn3+2 0.646940 0.478080 0.485230 1.056498
F1    F     F_    0.438026 0.668893 0.086754 -0.614371
O9    O     O_3   0.239837 0.463717 0.974065 -0.566011
C23   C     C_3   0.181290 0.466957 0.898890 0.068606
H2    H     H_    0.207710 0.386508 0.855320 0.201544
H3    H     H_    0.211455 0.550628 0.858917 0.132392
C24   C     C_3   0.030508 0.455710 0.927620 -0.675696
H4    H     H_    0.996020 0.545578 0.956160 0.259158
H5    H     H_    0.981599 0.428775 0.871899 0.220602
H6    H     H_    0.000399 0.382123 0.976561 0.304972
F2    F     F_    0.269121 0.526795 0.124894 -0.640408
O10   O     O_3   0.549687 0.244712 0.074720 -0.568626
C25   C     C_3   0.515663 0.115904 0.088861 0.109152
H7    H     H_    0.410440 0.082901 0.090213 0.139069
H8    H     H_    0.534228 0.097305 0.154245 0.148107
C26   C     C_3   0.607656 0.037949 0.025332 -0.719462
H9    H     H_    0.712900 0.077769 0.019631 0.276328
H10   H     H_    0.600730 0.941146 0.048548 0.260455
H11   H     H_    0.578057 0.034303 0.960890 0.238910
O11   O     O_3   0.628308 0.123213 0.396330 -0.598452
C27   C     C_3   0.666977 0.064072 0.314953 0.102444
H12   H     H_    0.579424 0.031420 0.284297 0.120068
H13   H     H_    0.724511 0.983347 0.322143 0.202980
C28   C     C_3   0.756403 0.156317 0.254879 -0.731082
H14   H     H_    0.845621 0.189926 0.283145 0.265215
H15   H     H_    0.789716 0.110549 0.191062 0.212544
H16   H     H_    0.700558 0.237210 0.245357 0.264266
F3    F     F_    0.374284 0.872447 0.430792 -0.596296
F4    F     F_    0.300047 0.077122 0.532461 -0.621621
F5    F     F_    0.702141 0.923455 0.489265 -0.618801
F6    F     F_    0.115156 0.390818 0.441333 -0.688110
F7    F     F_    0.891643 0.634505 0.530866 -0.586851
O12   O     O_3   0.117271 0.659961 0.571315 -0.488880
C29   C     C_3   0.165748 0.678368 0.649540 0.255701
H17   H     H_    0.274147 0.705473 0.637481 0.186962
H18   H     H_    0.143711 0.593487 0.689590 0.088606
C30   C     C_3   0.099017 0.785665 0.700707 -0.806086
H19   H     H_    0.988707 0.767892 0.710939 0.260658
H20   H     H_    0.131106 0.796638 0.764658 0.181347
H21   H     H_    0.128078 0.873607 0.664913 0.307853
O13   O     O_3   0.361263 0.658736 0.939529 -0.590521
C31   C     C_3   0.249788 0.722843 0.980489 0.236535
H22   H     H_    0.191156 0.678687 0.039716 0.213511
H23   H     H_    0.180443 0.729374 0.934245 0.103137
C32   C     C_3   0.297378 0.854731 0.003285 -0.804377
H24   H     H_    0.354029 0.898941 0.943766 0.234552
H25   H     H_    0.210274 0.907023 0.030922 0.191569
H26   H     H_    0.362869 0.856600 0.052228 0.309884
O14   O     O_3   0.732521 0.490178 0.879309 -0.590647
C33   C     C_3   0.789111 0.574402 0.812790 0.190987
H27   H     H_    0.868475 0.637750 0.835194 0.162468
H28   H     H_    0.715058 0.631717 0.792501 0.195393
C34   C     C_3   0.849530 0.502298 0.732215 -0.902942
H29   H     H_    0.774612 0.430732 0.713435 0.277466
H30   H     H_    0.881127 0.567409 0.678481 0.279419
H31   H     H_    0.938209 0.456468 0.742170 0.224337
F8    F     F_    0.618718 0.664190 0.933258 -0.637249
F9    F     F_    0.682924 0.614470 0.070888 -0.586633
F10   F     F_    0.726125 0.419887 0.031988 -0.604619
O15   O     O_3   0.360989 0.271580 0.907911 -0.638989
C35   C     C_3   0.311968 0.147206 0.924025 0.140383
H32   H     H_    0.356337 0.105430 0.972503 0.151531
H33   H     H_    0.333087 0.091361 0.863163 0.124713
C36   C     C_3   0.159954 0.140278 0.949106 -0.745405
H34   H     H_    0.116470 0.179584 0.897176 0.238919
H35   H     H_    0.118291 0.042167 0.956995 0.190930
H36   H     H_    0.128781 0.193111 0.010161 0.303398
O16   O     O_3   0.594425 0.268361 0.911773 -0.569997
C37   C     C_3   0.606988 0.213985 0.827606 0.191652
H37   H     H_    0.581253 0.275881 0.779892 0.146181
H38   H     H_    0.545680 0.124549 0.827601 0.115440
C38   C     C_3   0.750944 0.182468 0.798312 -0.776907
H39   H     H_    0.773437 0.106663 0.838061 0.247511
H40   H     H_    0.766618 0.151113 0.729355 0.223956
H41   H     H_    0.821084 0.264792 0.805945 0.283431
O17   O     O_3   0.316925 0.279222 0.084582 -0.613843
C39   C     C_3   0.284550 0.265253 0.175885 0.153236
H42   H     H_    0.251777 0.352937 0.208337 0.238183
H43   H     H_    0.367970 0.237828 0.205595 0.114881
C40   C     C_3   0.166905 0.167743 0.197060 -0.804238
H44   H     H_    0.140696 0.156496 0.268211 0.257115
H45   H     H_    0.078740 0.197715 0.173376 0.262325
H46   H     H_    0.192054 0.076493 0.166231 0.240727

loop_
_geom_bond_atom_site_label_1
_geom_bond_atom_site_label_2
_ccdc_geom_bond_type
C34   H29   S    
C18   O13   S    
C12   O4    A    
C2    C18   S    
C9    F5    S    
C24   H4    S    
O11   C27   S    
C19   C20   S    
N2    O12   S    
C33   C34   S    
C27   H12   S    
C3    C6    S    
C40   H44   S    
C35   C36   S    
C7    C8    T    
C25   H8    S    
C4    O10   S    
C16   O6    A    
C20   F9    S    
C12   O3    A    
C18   O9    S    
C33   H28   S    
C11   F4    S    
C23   H2    S    
C15   N2    D    
C38   H39   S    
C28   H15   S    
C15   F6    S    
C14   N1    D    
O17   C39   S    
O16   C37   S    
O10   C25   S    
O1    Zn1   S    
C5    C22   S    
C25   H7    S    
C29   H17   S    
C26   H10   S    
H1    N1    S    
C31   C32   S    
C39   C40   S    
C9    C10   D    
N2    Zn1   S    
C28   H16   S    
O3    Zn1   S    
C24   H5    S    
C10   F3    S    
C17   O8    A    
C19   O14   S    
C5    O15   S    
C25   C26   S    
C2    F2    S    
C26   H11   S    
O5    Zn1   S    
O12   C29   S    
N1    Zn2   S    
C19   C22   S    
C1    C9    S    
C33   H27   S    
C23   C24   S    
C39   H43   S    
C32   H25   S    
C20   F10   S    
O2    Zn2   S    
C28   H14   S    
C6    C21   T    
C17   C21   S    
O7    Zn1   S    
O13   C31   S    
O9    C23   S    
C30   H21   S    
C11   C16   S    
O14   C33   S    
C8    C12   S    
C26   H9    S    
C14   F7    S    
C3    C20   S    
C37   H38   S    
C31   H22   S    
C36   H35   S    
C34   H30   S    
C1    O1    A    
C24   H6    S    
O6    Zn2   S    
C34   H31   S    
C3    C4    S    
C36   H36   S    
C37   H37   S    
C30   H20   S    
C13   O11   S    
C2    F1    S    
C4    O17   S    
C5    O16   S    
C39   H42   S    
C18   C22   S    
C31   H23   S    
C4    C5    S    
C10   C13   S    
C32   H26   S    
C40   H45   S    
C35   H33   S    
C7    C22   S    
O4    Zn2   S    
C27   H13   S    
C2    C3    S    
C30   H19   S    
C23   H3    S    
C11   C13   D    
C38   H40   S    
C29   C30   S    
O8    Zn2   S    
C37   C38   S    
O15   C35   S    
C40   H46   S    
C19   F8    S    
C32   H24   S    
C29   H18   S    
C36   H34   S    
C27   C28   S    
C35   H32   S    
C1    O2    A    
C17   O7    A    
C14   C15   S    
C16   O5    A    
C38   H41   S    
