data_mof_unit_11829.cif
_audit_creation_date              2012-10-26T20:44:07-0400
_audit_creation_method            fapswitch 2.2
_symmetry_space_group_name_H-M    P1
_symmetry_Int_Tables_number       1
_space_group_crystal_system       triclinic
_cell_length_a                    10.92168
_cell_length_b                    9.545447
_cell_length_c                    19.554278
_cell_angle_alpha                 91.854839
_cell_angle_beta                  93.992316
_cell_angle_gamma                 90.050952
_cell_volume                      2032.5563357

loop_
_atom_site_label
_atom_site_type_symbol
_atom_type_description
_atom_site_fract_x
_atom_site_fract_y
_atom_site_fract_z
_atom_type_partial_charge
C1    C     C_R   0.871288 0.498518 0.490945 -0.078226
C2    C     C_R   0.737188 0.499489 0.495033 0.585480
C3    C     C_R   0.503254 0.497709 0.367503 0.574301
C4    C     C_R   0.496745 0.502291 0.632497 0.574305
C5    C     C_R   0.063696 0.373760 0.510441 0.227166
C6    C     C_R   0.936303 0.626240 0.489558 0.227164
C7    C     C_R   0.937237 0.371223 0.495758 0.226595
C8    C     C_R   0.062762 0.628777 0.504240 0.226594
C9    C     C_R   0.441449 0.388036 0.740460 0.103817
C10   C     C_R   0.558548 0.611966 0.259541 0.103823
C11   C     C_R   0.472245 0.374091 0.250005 0.114388
C12   C     C_R   0.128712 0.501482 0.509054 -0.078225
C13   C     C_R   0.527752 0.625911 0.749994 0.114388
C14   C     C_R   0.442165 0.386050 0.812131 -0.113655
C15   C     C_R   0.557831 0.613954 0.187869 -0.113650
C16   C     C_R   0.471476 0.381337 0.178396 -0.105258
C17   C     C_R   0.528520 0.618666 0.821604 -0.105258
C18   C     C_R   0.489288 0.499135 0.852694 -0.024614
C19   C     C_R   0.510708 0.500869 0.147307 -0.024616
C20   C     C_R   0.417806 0.071356 0.457800 0.331908
C21   C     C_R   0.582194 0.928644 0.542200 0.331907
C22   C     C_R   0.581168 0.077098 0.542970 0.342555
C23   C     C_R   0.601257 0.544735 0.966664 -0.111501
C24   C     C_R   0.418833 0.922902 0.457029 0.342561
C25   C     C_R   0.488347 0.506462 0.708412 0.056918
C26   C     C_R   0.511652 0.493539 0.291588 0.056914
C27   C     C_3   0.434359 0.137465 0.712628 -0.254122
C28   C     C_3   0.565654 0.862541 0.287367 -0.254120
C29   C     C_3   0.361659 0.145983 0.239528 -0.266097
C30   C     C_3   0.638340 0.854018 0.760471 -0.266095
C31   C     C_R   0.398738 0.455270 0.033336 -0.111501
C32   C     C_R   0.605858 0.548631 0.038047 -0.111531
C33   C     C_R   0.394137 0.451375 0.961953 -0.111531
C34   C     C_R   0.504706 0.503650 0.071896 0.030420
C35   C     C_R   0.495289 0.496356 0.928104 0.030420
C36   C     C_R   0.262811 0.500511 0.504967 0.585481
Cl1   Cl    Cl    0.305810 0.156136 0.405350 -0.445646
Cl2   Cl    Cl    0.694191 0.843863 0.594649 -0.445648
Cl3   Cl    Cl    0.684311 0.168905 0.601708 -0.466983
Cl4   Cl    Cl    0.315693 0.831095 0.398289 -0.466975
Cl5   Cl    Cl    0.134255 0.216525 0.539015 -0.378040
Cl6   Cl    Cl    0.865744 0.783475 0.460983 -0.378048
Cl7   Cl    Cl    0.868638 0.205146 0.475161 -0.359691
Cl8   Cl    Cl    0.131362 0.794854 0.524835 -0.359689
Cu1   Cu    Cu3+1 0.500000 0.640660 0.500000 1.162043
Cu2   Cu    Cu3+1 0.500000 0.359340 0.500000 1.162043
H1    H     H_    0.406629 0.295532 0.836316 0.116899
H2    H     H_    0.401119 0.096081 0.760448 0.114709
H3    H     H_    0.536155 0.140935 0.716830 0.188914
H4    H     H_    0.403884 0.065190 0.669123 0.176665
H5    H     H_    0.709710 0.721860 0.301206 0.275848
H6    H     H_    0.598912 0.903919 0.239551 0.114716
H7    H     H_    0.596123 0.934815 0.330874 0.176667
H8    H     H_    0.463857 0.859082 0.283157 0.188899
H9    H     H_    0.509949 0.200203 0.308219 0.270346
H10   H     H_    0.415322 0.091870 0.200384 0.098990
H11   H     H_    0.280378 0.198924 0.214770 0.171715
H12   H     H_    0.593367 0.704472 0.163685 0.116899
H13   H     H_    0.328313 0.064442 0.272772 0.212101
H14   H     H_    0.490048 0.799800 0.691780 0.270345
H15   H     H_    0.584678 0.908134 0.799614 0.098990
H16   H     H_    0.671689 0.935557 0.727226 0.212100
H17   H     H_    0.719621 0.801074 0.785230 0.171714
H18   H     H_    0.443063 0.292198 0.145619 0.114990
H19   H     H_    0.556931 0.707807 0.854381 0.114990
H20   H     H_    0.680839 0.578723 0.941444 0.109993
H21   H     H_    0.319156 0.421283 0.058556 0.109993
H22   H     H_    0.689120 0.584116 0.066763 0.110111
H23   H     H_    0.310875 0.415890 0.933237 0.110111
H24   H     H_    0.290288 0.278127 0.698806 0.275846
N1    N     N_R   0.500000 0.852070 0.500000 -0.276518
N2    N     N_R   0.500000 0.147930 0.500000 -0.276518
N3    N     N_2   0.384813 0.275569 0.700284 -0.474022
N4    N     N_2   0.615184 0.724432 0.299717 -0.474020
N5    N     N_2   0.438333 0.246412 0.280190 -0.459682
N6    N     N_2   0.561665 0.753590 0.719809 -0.459682
O1    O     O_R   0.319640 0.618740 0.500000 -0.436181
O2    O     O_R   0.680360 0.381260 0.500000 -0.436178
O3    O     O_R   0.680360 0.618740 0.500000 -0.421742
O4    O     O_R   0.319640 0.381260 0.500000 -0.421741
O5    O     O_R   0.500020 0.618830 0.400190 -0.442775
O6    O     O_R   0.499980 0.381170 0.599810 -0.442777
O7    O     O_R   0.499980 0.618830 0.599810 -0.490591
O8    O     O_R   0.500020 0.381170 0.400190 -0.490592

loop_
_geom_bond_atom_site_label_1
_geom_bond_atom_site_label_2
_ccdc_geom_bond_type
C27   H2    S    
Cu1   N1    S    
C28   H6    S    
C14   C18   A    
H5    N4    S    
C28   N4    S    
C4    C25   S    
C9    C25   A    
Cu1   Cu2   S    
C15   C19   A    
C21   N1    A    
C23   H20   S    
C36   O1    A    
C1    C2    S    
C2    O3    A    
C33   C35   A    
Cu2   O6    S    
C21   Cl2   S    
C29   H13   S    
C3    O5    A    
C31   C33   A    
C7    Cl7   S    
C12   C36   S    
C18   C35   S    
Cu2   N2    S    
C27   H4    S    
C33   H23   S    
C32   H22   S    
H9    N5    S    
C10   C26   A    
C30   H17   S    
C13   C25   A    
Cu1   O7    S    
C9    N3    S    
C22   N2    A    
C1    C6    A    
C20   C24   A    
C5    C12   A    
C36   O4    A    
Cu2   O2    S    
C28   H8    S    
C6    C8    A    
C11   C26   A    
H14   N6    S    
C32   C34   A    
C31   H21   S    
C9    C14   A    
C2    O2    A    
C30   N6    S    
C11   C16   A    
C13   N6    S    
C8    C12   A    
H24   N3    S    
C17   C18   A    
C31   C34   A    
Cu1   O3    S    
Cu2   O8    S    
C29   H11   S    
C23   C35   A    
C30   H16   S    
C15   H12   S    
C5    C7    A    
C5    Cl5   S    
C1    C7    A    
C3    C26   S    
Cu1   O5    S    
C8    Cl8   S    
C19   C34   S    
C27   N3    S    
C28   H7    S    
C14   H1    S    
C29   N5    S    
C29   H10   S    
C17   H19   S    
C13   C17   A    
C10   C15   A    
C23   C32   A    
C11   N5    S    
Cu2   O4    S    
C20   Cl1   S    
C10   N4    S    
C4    O7    A    
C16   C19   A    
C22   Cl3   S    
C24   Cl4   S    
C4    O6    A    
C6    Cl6   S    
C30   H15   S    
C3    O8    A    
C20   N2    A    
Cu1   O1    S    
C16   H18   S    
C21   C22   A    
C27   H3    S    
C24   N1    A    
