data_mof_unit_55635.cif
_audit_creation_date              2012-12-11T15:13:52-0500
_audit_creation_method            fapswitch 2.2
_symmetry_space_group_name_H-M    P1
_symmetry_Int_Tables_number       1
_space_group_crystal_system       triclinic
_cell_length_a                    6.949245
_cell_length_b                    13.650043
_cell_length_c                    20.096025
_cell_angle_alpha                 104.045629
_cell_angle_beta                  90.087574
_cell_angle_gamma                 90.465257
_cell_volume                      1849.19367914

loop_
_atom_site_label
_atom_site_type_symbol
_atom_type_description
_atom_site_fract_x
_atom_site_fract_y
_atom_site_fract_z
_atom_type_partial_charge
O1    O     O_R   0.506780 0.600060 0.449950 -0.551581
O2    O     O_R   0.179840 0.597110 0.589410 -0.505504
O3    O     O_R   0.004570 0.399940 0.550050 -0.537564
C1    C     C_R   0.348172 0.614881 0.617745 0.841001
O4    O     O_R   0.177380 0.612160 0.452890 -0.537311
O5    O     O_R   0.002100 0.415100 0.412560 -0.555486
C2    C     C_R   0.345986 0.638568 0.436207 0.787636
O6    O     O_R   0.509250 0.584900 0.587440 -0.548064
O7    O     O_3   0.337570 0.435330 0.486930 -0.386888
V1    V     V_3+5 0.064650 0.512000 0.502430 1.579342
O8    O     O_R   0.672090 0.402890 0.410590 -0.537196
C3    C     C_R   0.840666 0.382048 0.382896 0.731367
O9    O     O_R   0.674540 0.387840 0.547110 -0.551079
C4    C     C_R   0.842984 0.364457 0.565896 0.737441
V2    V     V_3+5 0.564040 0.488000 0.497570 1.520042
O10   O     O_3   0.840990 0.564670 0.513070 -0.365321
C5    C     C_R   0.017731 0.135293 0.612912 -0.036979
H1    H     H_    0.007482 0.187583 0.521432 0.170280
H2    H     H_    0.094289 0.067985 0.587078 0.235939
C6    C     C_R   0.858021 0.287535 0.604662 -0.168511
C7    C     C_R   0.807529 0.313266 0.932207 -0.287399
C8    C     C_R   0.805107 0.391004 0.898815 -0.166530
C9    C     C_R   0.840262 0.371470 0.828692 0.727161
C10   C     C_R   0.868835 0.271242 0.789422 -0.091932
C11   C     C_R   0.896773 0.193857 0.825149 -0.086601
C12   C     C_R   0.882555 0.246403 0.716281 -0.001208
C13   C     C_R   0.977043 0.156072 0.683273 -0.034540
C14   C     C_R   0.031398 0.087110 0.720557 0.309052
C15   C     C_R   0.967220 0.098780 0.788479 0.220592
C16   C     C_R   0.803898 0.306897 0.674671 0.425672
C17   C     C_R   0.964372 0.202142 0.574758 -0.200146
C18   C     C_R   0.858440 0.215694 0.896859 -0.061787
H3    H     H_    0.778868 0.330281 0.986808 0.167465
H4    H     H_    0.780458 0.467673 0.927911 0.182716
C19   C     C_3   0.675129 0.223606 0.228191 -0.218816
C20   C     C_3   0.772026 0.204832 0.293173 0.705871
H5    H     H_    0.525935 0.200854 0.211008 0.153221
C21   C     C_3   0.850643 0.313176 0.312163 -0.151349
C22   C     C_3   0.755159 0.333877 0.247333 -0.291250
C23   C     C_3   0.940319 0.296284 0.207474 0.414791
C24   C     C_3   0.037877 0.277541 0.272102 -0.251778
C25   C     C_3   0.956913 0.167601 0.252858 -0.257764
C26   C     C_3   0.862170 0.187972 0.187825 -0.087998
H6    H     H_    0.675131 0.402918 0.244715 0.143212
H7    H     H_    0.187150 0.300491 0.289145 0.147715
H8    H     H_    0.030669 0.097719 0.256857 0.130567
C27   C     C_3   0.534276 0.734564 0.726773 0.317800
C28   C     C_3   0.425850 0.836009 0.747537 -0.400238
H9    H     H_    0.491669 0.908845 0.743984 0.174979
C29   C     C_3   0.359021 0.807292 0.814524 -0.293693
C30   C     C_3   0.470350 0.706986 0.793059 0.346890
C31   C     C_3   0.290956 0.653618 0.755695 0.164442
C32   C     C_3   0.180021 0.753024 0.776885 0.272828
C33   C     C_3   0.243796 0.780809 0.710391 0.642794
C34   C     C_3   0.355562 0.680840 0.688913 -0.314207
C35   C     C_R   0.289831 0.891555 0.396455 0.356439
C36   C     C_R   0.351074 0.718213 0.398886 -0.237493
C37   C     C_R   0.355919 0.684575 0.070075 0.474809
C38   C     C_R   0.346342 0.608837 0.106136 0.333990
C39   C     C_R   0.342834 0.635679 0.177548 -0.222497
C40   C     C_R   0.351775 0.737847 0.215365 0.000026
C41   C     C_R   0.358636 0.814936 0.178679 -0.091165
C42   C     C_R   0.348121 0.764798 0.288562 0.024670
C43   C     C_R   0.322682 0.867579 0.324170 -0.140944
C44   C     C_R   0.340181 0.944043 0.288081 0.342791
C45   C     C_R   0.362726 0.917724 0.215897 0.226151
C46   C     C_R   0.369832 0.692124 0.327712 -0.299756
C47   C     C_R   0.307879 0.817150 0.432835 0.602204
C48   C     C_R   0.360050 0.786523 0.105365 -0.217782
H10   H     H_    0.402431 0.614235 0.304540 0.130382
H11   H     H_    0.326508 0.573956 0.201885 0.149225
O11   O     O_R   0.203580 0.914920 0.912610 -0.529273
O12   O     O_R   0.535710 0.887810 0.047120 -0.530669
O13   O     O_R   0.710730 0.084950 0.087430 -0.538353
C49   C     C_R   0.366970 0.861119 0.063648 0.894718
O14   O     O_R   0.533010 0.902850 0.910600 -0.520041
O15   O     O_R   0.708010 0.100090 0.949930 -0.552269
C50   C     C_R   0.364401 0.879444 0.883918 0.822019
O16   O     O_R   0.206300 0.899780 0.050100 -0.556409
O17   O     O_3   0.375170 0.064580 0.013100 -0.385054
V3    V     V_3+5 0.648200 0.988020 0.997570 1.578809
O18   O     O_R   0.038030 0.112330 0.952840 -0.527571
C51   C     C_R   0.868951 0.139183 0.936722 0.825238
O19   O     O_R   0.040730 0.097300 0.089360 -0.546108
C52   C     C_R   0.872141 0.118472 0.117061 0.726392
V4    V     V_3+5 0.148780 0.012220 0.002360 1.539474
O20   O     O_3   0.871930 0.935430 0.986900 -0.368288
O21   O     O_3   0.029479 0.343633 0.161175 -0.630524
H12   H     H_    0.064852 0.412189 0.188362 0.292797
O22   O     O_3   0.721074 0.722918 0.700630 -0.558794
H13   H     H_    0.721870 0.755954 0.661827 0.343308
O23   O     O_3   0.589513 0.668386 0.836466 -0.587071
H14   H     H_    0.639132 0.604155 0.807727 0.373648
O24   O     O_3   0.221713 0.558827 0.759726 -0.582954
H15   H     H_    0.205627 0.563340 0.809373 0.354763
O25   O     O_3   0.993242 0.762728 0.803112 -0.566825
H16   H     H_    0.997349 0.735275 0.844441 0.330085
O26   O     O_3   0.149983 0.009129 0.689987 -0.584659
H17   H     H_    0.232544 0.995163 0.726576 0.309946
F1    F     F_    0.120724 0.813508 0.666431 -0.602094
F2    F     F_    0.276342 0.841022 0.501606 -0.622896
O27   O     O_3   0.351014 0.043608 0.325384 -0.595459
H18   H     H_    0.368424 0.090001 0.295056 0.334680
O28   O     O_3   0.231376 0.985418 0.432976 -0.582034
H19   H     H_    0.129983 0.008218 0.405539 0.326927
F3    F     F_    0.358785 0.659432 0.000299 -0.697341
O29   O     O_3   0.337957 0.507422 0.073485 -0.628075
H20   H     H_    0.341735 0.499409 0.023173 0.345718
O30   O     O_3   0.398811 0.992336 0.182093 -0.653487
H21   H     H_    0.285077 0.036766 0.188944 0.259753
O31   O     O_3   0.667881 0.378701 0.702355 -0.602944
H22   H     H_    0.610650 0.407500 0.666432 0.302438
F4    F     F_    0.869224 0.452450 0.801895 -0.655338
O32   O     O_3   0.978258 0.018943 0.819327 -0.641991
H23   H     H_    0.979808 0.954759 0.783437 0.347405
F5    F     F_    0.689442 0.158175 0.339957 -0.664742

loop_
_geom_bond_atom_site_label_1
_geom_bond_atom_site_label_2
_ccdc_geom_bond_type
C15   O32   S    
C24   C25   S    
C20   C25   S    
C19   C20   S    
C1    O6    A    
O32   H23   S    
C6    C16   A    
C32   C33   S    
C28   C33   S    
C12   C13   A    
C14   C15   A    
C19   H5    S    
C10   C12   A    
O5    C3    A    
C21   C22   S    
C7    H3    S    
O15   C51   A    
V2    O10   S    
C25   H8    S    
C40   C42   A    
O11   C50   A    
O27   H18   S    
O8    V2    S    
O19   C52   A    
C23   C26   S    
O31   H22   S    
O17   V4    S    
O29   H20   S    
C35   C43   A    
C31   O24   S    
O1    V2    S    
C19   C26   S    
O7    V1    S    
C31   C34   S    
C11   C18   A    
C28   C29   S    
C38   C39   A    
O13   C52   A    
O9    C4    A    
C32   O25   S    
O12   C49   A    
C33   F1    S    
O24   H15   S    
C44   O27   S    
C36   C46   A    
C29   C50   S    
O12   V3    S    
O28   H19   S    
C11   C15   A    
C8    H4    S    
C7    C18   A    
C42   C46   A    
C29   C32   S    
C41   C45   A    
C30   C31   S    
C26   C52   S    
C4    C6    S    
C10   C11   A    
C35   O28   S    
C21   C24   S    
C22   C23   S    
O4    C2    A    
V4    O20   S    
C27   C30   S    
C39   H11   S    
C37   C38   A    
C35   C47   A    
O18   C51   A    
C38   O29   S    
C41   C48   A    
C39   C40   A    
C37   F3    S    
C5    C13   A    
O2    C1    A    
C30   O23   S    
C9    F4    S    
C27   C28   S    
O15   V3    S    
C9    C10   A    
O25   H16   S    
C29   C30   S    
C47   F2    S    
V3    O20   S    
O3    C4    A    
C23   C24   S    
C12   C16   A    
O6    V2    S    
O9    V2    S    
C1    C34   S    
C5    C17   A    
C27   O22   S    
C25   C26   S    
C36   C47   A    
C20   F5    S    
C31   C32   S    
C27   C34   S    
C14   O26   S    
C18   C51   S    
C33   C34   S    
C28   H9    S    
O1    C2    A    
O14   C50   A    
O17   V3    S    
O14   V3    S    
O5    V1    S    
O11   V4    S    
O8    C3    A    
C37   C48   A    
C22   H6    S    
C16   O31   S    
C46   H10   S    
C43   C44   A    
C23   O21   S    
C20   C21   S    
O7    V2    S    
O4    V1    S    
O3    V1    S    
V1    O10   S    
O30   H21   S    
O18   V4    S    
O22   H13   S    
C19   C22   S    
O23   H14   S    
C5    H2    S    
C48   C49   S    
C44   C45   A    
C45   O30   S    
C3    C21   S    
C40   C41   A    
C42   C43   A    
O21   H12   S    
O26   H17   S    
C13   C14   A    
C24   H7    S    
C8    C9    A    
O19   V4    S    
H1    C17   S    
O13   V3    S    
C7    C8    A    
C49   O16   A    
C2    C36   S    
O16   V4    S    
C6    C17   A    
O2    V1    S    
