data_mof_unit_61712.cif
_audit_creation_date              2012-12-11T18:55:30-0500
_audit_creation_method            fapswitch 2.2
_symmetry_space_group_name_H-M    P1
_symmetry_Int_Tables_number       1
_space_group_crystal_system       triclinic
_cell_length_a                    8.245389
_cell_length_b                    14.984204
_cell_length_c                    16.370171
_cell_angle_alpha                 111.341917
_cell_angle_beta                  96.60465
_cell_angle_gamma                 82.271886
_cell_volume                      1861.94809087

loop_
_atom_site_label
_atom_site_type_symbol
_atom_type_description
_atom_site_fract_x
_atom_site_fract_y
_atom_site_fract_z
_atom_type_partial_charge
Ba1   Ba    Ba6+2 0.364200 0.465260 0.540910 1.673532
Ba2   Ba    Ba6+2 0.825640 0.534660 0.459080 1.718785
C1    C     C_3   0.206705 0.179598 0.756953 -0.330808
C2    C     C_R   0.887959 0.528040 0.752499 -0.307665
C3    C     C_2   0.478815 0.375475 0.129697 -0.175060
C4    C     C_3   0.665157 0.305163 0.769073 0.312329
C5    C     C_2   0.456647 0.418638 0.215924 0.035441
C6    C     C_2   0.186343 0.499848 0.188095 -0.006884
C7    C     C_3   0.231472 0.479377 0.094470 -0.157358
C8    C     C_3   0.352160 0.389068 0.060022 0.080979
C9    C     C_2   0.094250 0.481134 0.025736 0.391674
C10   C     C_2   0.106276 0.528973 0.971280 -0.080874
C11   C     C_R   0.822664 0.583681 0.928585 0.053546
C12   C     C_3   0.187641 0.266666 0.728485 0.334009
C13   C     C_R   0.977283 0.536949 0.902356 0.002988
C14   C     C_R   0.703325 0.604038 0.868107 -0.145924
C15   C     C_R   0.736749 0.577705 0.779963 0.065789
C16   C     C_3   0.643482 0.288635 0.853475 0.271904
C17   C     C_R   0.010164 0.509708 0.813025 0.003782
C18   C     C_R   0.855268 0.187706 0.557068 -0.008209
C19   C     C_R   0.072191 0.204285 0.477458 0.055177
C20   C     C_R   0.270780 0.772294 0.489095 -0.256450
C21   C     C_R   0.351405 0.821642 0.451624 0.019859
C22   C     C_R   0.287943 0.914458 0.455732 -0.152855
C23   C     C_3   0.018948 0.724307 0.731934 0.301822
C24   C     C_R   0.141438 0.959101 0.498218 0.014109
C25   C     C_R   0.062450 0.906761 0.537075 -0.023683
C26   C     C_R   0.071575 0.054098 0.504660 0.003875
C27   C     C_R   0.924778 0.093740 0.549105 -0.030582
C28   C     C_3   0.704350 0.233085 0.341460 0.308009
C29   C     C_R   0.851453 0.039395 0.585553 -0.081416
C30   C     C_R   0.920609 0.949164 0.581438 -0.036492
C31   C     C_R   0.140412 0.110624 0.467183 -0.135018
C32   C     C_R   0.933938 0.243290 0.524606 -0.291332
C33   C     C_R   0.127676 0.812878 0.531177 0.003907
C34   C     C_3   0.014828 0.771356 0.831237 -0.365994
C35   C     C_3   0.734345 0.124053 0.314803 -0.380183
C36   C     C_3   0.492622 0.771502 0.664423 0.298199
C37   C     C_3   0.479627 0.880780 0.692584 -0.371875
C38   C     C_3   0.164036 0.292586 0.272396 0.279872
C39   C     C_3   0.153096 0.246867 0.172637 -0.367010
C40   C     C_3   0.497922 0.681670 0.230256 0.343295
C41   C     C_3   0.489068 0.688928 0.139562 -0.367324
C42   C     C_3   0.980669 0.741261 0.277808 0.328429
C43   C     C_3   0.940303 0.832106 0.255393 -0.374166
C44   C     C_2   0.307954 0.484807 0.245757 0.062379
Cl1   Cl    Cl    0.787949 0.193391 0.865198 -0.644320
Cl2   Cl    Cl    0.297155 0.543367 0.359184 -0.695374
Cl3   Cl    Cl    0.941132 0.403449 0.005424 -0.681696
H1    H     H_    0.247756 0.245987 0.665866 0.074047
H2    H     H_    0.284298 0.321335 0.295293 0.027810
H3    H     H_    0.064453 0.352272 0.291372 0.091938
H4    H     H_    0.338230 0.152608 0.761876 0.129701
H5    H     H_    0.258221 0.191221 0.150973 0.123788
H6    H     H_    0.155369 0.302314 0.142984 0.098184
H7    H     H_    0.036517 0.212978 0.149096 0.156431
H8    H     H_    0.054441 0.286654 0.717434 -0.040531
H9    H     H_    0.140322 0.120976 0.707949 0.084571
H10   H     H_    0.899610 0.695429 0.704511 0.013811
H11   H     H_    0.119248 0.664542 0.717203 0.052133
H12   H     H_    0.818939 0.094530 0.260965 0.125864
H13   H     H_    0.912278 0.829668 0.847882 0.143652
H14   H     H_    0.996879 0.717405 0.860225 0.043203
H15   H     H_    0.132473 0.802191 0.860078 0.128034
H16   H     H_    0.155299 0.199398 0.821750 0.191695
H17   H     H_    0.588178 0.619787 0.230797 0.097218
H18   H     H_    0.374876 0.668513 0.241919 -0.034420
H19   H     H_    0.609641 0.704363 0.126571 0.156457
H20   H     H_    0.456824 0.619796 0.088724 0.077308
H21   H     H_    0.394054 0.747405 0.135324 0.106054
H22   H     H_    0.116204 0.728066 0.286724 -0.034676
H23   H     H_    0.789702 0.103909 0.371381 0.060889
H24   H     H_    0.926308 0.753811 0.340533 0.091514
H25   H     H_    0.991013 0.893908 0.309153 0.074771
H26   H     H_    0.805235 0.848222 0.247242 0.151690
H27   H     H_    0.587665 0.371718 0.769120 0.045068
H28   H     H_    0.994935 0.822367 0.193408 0.113324
H29   H     H_    0.584028 0.323031 0.108469 0.133844
H30   H     H_    0.587171 0.643089 0.890785 0.096088
H31   H     H_    0.913572 0.507910 0.684389 0.071263
H32   H     H_    0.215150 0.565422 0.978300 0.038403
H33   H     H_    0.880796 0.315319 0.530795 0.065974
H34   H     H_    0.616356 0.091615 0.291924 0.130711
H35   H     H_    0.740208 0.065732 0.619086 0.132560
H36   H     H_    0.245954 0.083984 0.428940 0.089121
H37   H     H_    0.795799 0.314787 0.767364 -0.006679
H38   H     H_    0.325816 0.703569 0.490533 0.120858
H39   H     H_    0.356302 0.949567 0.426062 0.083003
H40   H     H_    0.859131 0.913315 0.613629 0.105156
H41   H     H_    0.658024 0.355835 0.910574 0.087051
H42   H     H_    0.518763 0.268702 0.852727 0.088223
H43   H     H_    0.823277 0.264007 0.361107 -0.002815
H44   H     H_    0.625563 0.261031 0.397806 0.066819
H45   H     H_    0.368175 0.747535 0.648531 0.003704
H46   H     H_    0.565474 0.740009 0.605751 0.061808
H47   H     H_    0.402996 0.914287 0.749670 0.139999
H48   H     H_    0.422878 0.904294 0.638097 0.056565
H49   H     H_    0.603825 0.906100 0.711348 0.138789
O1    O     O_2   0.428380 0.595290 0.716080 -0.463544
O2    O     O_2   0.691267 0.813118 0.451055 -0.495898
O3    O     O_3   0.547331 0.767584 0.293768 -0.605017
O4    O     O_3   0.649320 0.571640 0.606850 -0.487781
O5    O     O_3   0.067570 0.379360 0.450830 -0.484582
O6    O     O_2   0.850910 0.734710 0.551660 -0.471223
O7    O     O_3   0.046627 0.793669 0.697694 -0.641754
O8    O     O_2   0.845474 0.490941 0.188731 -0.431283
O9    O     O_3   0.914475 0.663704 0.209730 -0.606596
O10   O     O_3   0.202060 0.415890 0.655600 -0.487305
O11   O     O_2   0.350450 0.510340 0.811963 -0.498854
O12   O     O_3   0.147689 0.222125 0.307511 -0.637852
O13   O     O_3   0.568321 0.745323 0.734300 -0.634685
O14   O     O_3   0.262501 0.342710 0.794035 -0.606803
O15   O     O_2   0.338780 0.265250 0.448290 -0.453071
O16   O     O_3   0.612600 0.359160 0.609560 -0.492269
O17   O     O_2   0.520218 0.182554 0.533109 -0.481168
O18   O     O_3   0.615184 0.225745 0.697552 -0.600980
O19   O     O_2   0.761310 0.404670 0.283870 -0.469145
O20   O     O_3   0.540390 0.428280 0.393140 -0.426802
O21   O     O_3   0.987650 0.584030 0.344390 -0.419336
O22   O     O_3   0.627633 0.255064 0.269343 -0.636856
O23   O     O_3   0.122140 0.620560 0.549160 -0.443312
O24   O     O_3   0.577110 0.640760 0.390430 -0.441100
P1    P     P_3+3 0.592580 0.619730 0.703530 0.989968
P2    P     P_3+3 0.156500 0.273340 0.422460 0.994957
P3    P     P_3+3 0.652234 0.238615 0.599567 0.939993
P4    P     P_3+3 0.597130 0.380190 0.296460 1.036764
P5    P     P_3+3 0.541826 0.761622 0.398304 0.969853
P6    P     P_3+3 0.207251 0.447647 0.769782 0.950092
P7    P     P_3+3 0.038711 0.741756 0.582932 0.953035
P8    P     P_3+3 0.983176 0.557870 0.230680 1.037436

loop_
_geom_bond_atom_site_label_1
_geom_bond_atom_site_label_2
_ccdc_geom_bond_type
O2    P5    D    
O18   P3    S    
C16   Cl1   S    
Ba1   O1    S    
Ba2   O20   S    
C23   O7    S    
C12   O14   S    
C20   C33   A    
C24   C25   A    
C16   H42   S    
C21   P5    S    
C26   C27   A    
C22   C24   A    
C2    H31   S    
C28   H44   S    
C36   C37   S    
O22   P4    S    
C42   O9    S    
C19   C31   A    
Ba2   O4    S    
C17   P6    S    
O21   P8    S    
C42   H22   S    
Ba1   Ba2   S    
O24   P5    S    
C31   H36   S    
C39   H6    S    
O12   P2    S    
C2    C17   A    
C15   P1    S    
C29   C30   A    
C14   C15   A    
C36   H46   S    
C21   C22   A    
C23   H11   S    
C34   H14   S    
O19   P4    D    
C33   P7    S    
C18   C32   A    
C41   H20   S    
C1    H16   S    
Ba1   O15   S    
O9    P8    S    
C34   H13   S    
O5    P2    S    
Ba2   O19   S    
C6    C44   D    
C18   C27   A    
Ba2   O24   S    
C4    C16   S    
C44   Cl2   S    
O13   P1    S    
C16   H41   S    
C5    C44   S    
C28   H43   S    
C3    C5    D    
O16   P3    S    
C6    C7    S    
C37   H49   S    
O7    P7    S    
C19   C32   A    
Ba1   O10   S    
C25   C33   A    
C38   H3    S    
C29   H35   S    
C28   C35   S    
C43   H25   S    
C13   C17   A    
Ba1   P1    S    
C39   H7    S    
C9    Cl3   S    
C7    C9    S    
O11   P6    D    
C35   H12   S    
C30   H40   S    
C10   C13   S    
Ba2   O6    S    
C9    C10   D    
C36   H45   S    
C20   H38   S    
O10   P6    S    
C39   H5    S    
C22   H39   S    
C4    O18   S    
C1    C12   S    
C2    C15   A    
Ba2   P4    S    
C38   C39   S    
C26   C31   A    
C41   H21   S    
O6    P7    D    
C11   C13   A    
C6    P8    S    
C40   H18   S    
C35   H23   S    
C40   C41   S    
O4    P1    S    
C40   O3    S    
C42   C43   S    
O1    P1    D    
C7    C8    S    
Ba2   O23   S    
O8    P8    D    
C12   H8    S    
Ba1   O5    S    
C25   C30   A    
O23   P7    S    
O17   P3    D    
C38   O12   S    
Ba2   O21   S    
C4    H27   S    
O20   P4    S    
C38   H2    S    
C32   H33   S    
C41   H19   S    
C24   C26   A    
C4    H37   S    
C43   H26   S    
C14   H30   S    
C19   P2    S    
C3    H29   S    
Ba1   P2    S    
C18   P3    S    
C27   C29   A    
C1    H4    S    
C12   H1    S    
O15   P2    D    
C28   O22   S    
Ba2   O5    S    
O3    P5    S    
C10   H32   S    
Ba1   O20   S    
C5    P4    S    
C42   H24   S    
Ba1   O23   S    
C37   H47   S    
O14   P6    S    
C37   H48   S    
C23   C34   S    
C1    H9    S    
C3    C8    S    
Ba1   O16   S    
C11   C14   A    
C40   H17   S    
C20   C21   A    
C35   H34   S    
C43   H28   S    
C23   H10   S    
C36   O13   S    
C34   H15   S    
Ba1   O4    S    
