data_mof_unit_58221.cif
_audit_creation_date              2012-12-10T16:45:49-0500
_audit_creation_method            fapswitch 2.2
_symmetry_space_group_name_H-M    P1
_symmetry_Int_Tables_number       1
_space_group_crystal_system       triclinic
_cell_length_a                    13.824969
_cell_length_b                    8.733445
_cell_length_c                    7.425171
_cell_angle_alpha                 101.90669
_cell_angle_beta                  89.469463
_cell_angle_gamma                 92.32592
_cell_volume                      876.500603419

loop_
_atom_site_label
_atom_site_type_symbol
_atom_type_description
_atom_site_fract_x
_atom_site_fract_y
_atom_site_fract_z
_atom_type_partial_charge
C1    C     C_R   0.501552 0.201176 0.455824 0.896122
C2    C     C_R   0.499846 0.798813 0.544126 0.828448
C3    C     C_R   0.318645 0.504189 0.531327 0.823111
C4    C     C_R   0.681440 0.497997 0.468877 0.815058
C5    C     C_1   0.783786 0.492563 0.447773 -0.184923
C6    C     C_1   0.216750 0.517867 0.552265 -0.178775
C7    C     C_2   0.974407 0.480119 0.421677 0.359470
C8    C     C_2   0.027421 0.551420 0.568732 0.360547
C9    C     C_1   0.130890 0.532483 0.562977 -0.050603
C10   C     C_1   0.870144 0.486990 0.433885 -0.050630
C11   C     C_2   0.522490 0.039545 0.439127 -0.034342
C12   C     C_2   0.481392 0.960780 0.562120 -0.053656
Cu1   Cu    Cu3+1 0.510540 0.517220 0.682700 0.944905
Cu2   Cu    Cu3+1 0.489460 0.482780 0.317300 0.942498
H1    H     H_    0.422451 0.385836 0.962829 0.224088
H2    H     H_    0.576256 0.616673 0.037987 0.223383
N1    N     N_2   0.473570 0.456830 0.042740 -0.214600
N2    N     N_2   0.526430 0.543170 0.957260 -0.214424
O1    O     O_R   0.506850 0.286020 0.618680 -0.595791
O2    O     O_R   0.493150 0.713980 0.381320 -0.596798
O3    O     O_R   0.489050 0.256940 0.310110 -0.587009
O4    O     O_R   0.510950 0.743060 0.689890 -0.589616
O5    O     O_R   0.372320 0.516630 0.676100 -0.584321
O6    O     O_R   0.627680 0.483370 0.323900 -0.594998
O7    O     O_R   0.354510 0.487550 0.367530 -0.566182
O8    O     O_R   0.645490 0.512450 0.632470 -0.565460
O9    O     O_3   0.981557 0.634054 0.725282 -0.636853
C13   C     C_3   0.034286 0.773798 0.805724 0.051362
H3    H     H_    0.981109 0.866048 0.850583 0.162068
H4    H     H_    0.083604 0.819316 0.707186 0.133941
C14   C     C_3   0.089633 0.751854 0.976000 -0.352071
H5    H     H_    0.037130 0.728916 0.082318 0.210455
H6    H     H_    0.136644 0.649888 0.939679 0.227418
C15   C     C_3   0.152484 0.897030 0.056843 -0.892336
H7    H     H_    0.208004 0.919353 0.955334 0.256716
H8    H     H_    0.189948 0.878346 0.181751 0.257276
H9    H     H_    0.107233 0.000973 0.095894 0.261945
O10   O     O_3   0.020443 0.391024 0.269309 -0.636008
C16   C     C_3   0.975132 0.397387 0.100616 0.073370
H10   H     H_    0.033348 0.403426 0.997861 0.176068
H11   H     H_    0.932376 0.503953 0.106836 0.140893
C17   C     C_3   0.912384 0.248650 0.031931 -0.357428
H12   H     H_    0.957673 0.144705 0.018388 0.213185
H13   H     H_    0.853978 0.238653 0.132728 0.223590
C18   C     C_3   0.866788 0.250078 0.845771 -0.873705
H14   H     H_    0.819732 0.351789 0.856946 0.275338
H15   H     H_    0.821898 0.140882 0.799573 0.247243
H16   H     H_    0.923914 0.256812 0.741138 0.258922
C19   C     C_3   0.599873 0.973939 0.297143 -0.420231
C20   C     C_3   0.690233 0.082218 0.306289 -0.864027
H17   H     H_    0.674857 0.186115 0.248914 0.268478
H18   H     H_    0.716064 0.119938 0.450516 0.251133
H19   H     H_    0.748839 0.019260 0.222169 0.240717
H20   H     H_    0.627115 0.860982 0.316272 0.215298
H21   H     H_    0.568236 0.955004 0.156863 0.223913
C21   C     C_3   0.402507 0.022835 0.701488 -0.410130
C22   C     C_3   0.308128 0.048502 0.607850 -0.850946
H22   H     H_    0.317388 0.141790 0.527396 0.246279
H23   H     H_    0.282431 0.938058 0.514958 0.247209
H24   H     H_    0.251763 0.084491 0.713939 0.239659
H25   H     H_    0.384504 0.937202 0.789916 0.211935
H26   H     H_    0.427517 0.129789 0.799447 0.223823

loop_
_geom_bond_atom_site_label_1
_geom_bond_atom_site_label_2
_ccdc_geom_bond_type
C2    O4    A    
C7    C10   S    
C20   H18   S    
C11   C12   D    
C14   H6    S    
C1    O3    A    
Cu1   O8    S    
C11   C19   S    
C15   H9    S    
C3    O5    A    
C14   H5    S    
C1    C11   S    
C3    C6    S    
C2    C12   S    
C6    C9    T    
C13   H4    S    
N1    N2    D    
C14   C15   S    
C7    C8    D    
C16   H11   S    
C19   H21   S    
Cu1   Cu2   S    
Cu2   N1    S    
C22   H22   S    
C12   C21   S    
C17   H13   S    
Cu1   N2    S    
Cu2   O3    S    
C5    C10   T    
C13   H3    S    
C7    O10   S    
Cu1   O4    S    
C19   C20   S    
C16   C17   S    
C15   H8    S    
C18   H15   S    
Cu2   O7    S    
O10   C16   S    
C4    O6    A    
C21   H26   S    
C4    O8    A    
C22   H23   S    
C20   H19   S    
C1    O1    A    
C17   H12   S    
Cu1   O1    S    
C2    O2    A    
C19   H20   S    
Cu2   O2    S    
C3    O7    A    
C21   C22   S    
Cu1   O5    S    
H2    N2    S    
C15   H7    S    
C18   H16   S    
Cu2   O6    S    
C16   H10   S    
H1    N1    S    
C8    O9    S    
C21   H25   S    
C8    C9    S    
C22   H24   S    
C20   H17   S    
C18   H14   S    
C13   C14   S    
C4    C5    S    
O9    C13   S    
C17   C18   S    
