data_mof_unit_46920.cif
_audit_creation_date              2013-03-05T15:55:18-0500
_audit_creation_method            fapswitch 2.2
_symmetry_space_group_name_H-M    P1
_symmetry_Int_Tables_number       1
_space_group_crystal_system       triclinic
_cell_length_a                    14.686692
_cell_length_b                    14.683527
_cell_length_c                    33.302777
_cell_angle_alpha                 95.652699
_cell_angle_beta                  96.086752
_cell_angle_gamma                 61.481249
_cell_volume                      6265.38777783

loop_
_atom_site_label
_atom_site_type_symbol
_atom_site_description
_atom_site_fract_x
_atom_site_fract_y
_atom_site_fract_z
_atom_type_partial_charge
O1    O     O_R   0.679450 0.499830 0.463150 -0.520785
O2    O     O_R   0.480650 0.664000 0.464630 -0.553255
C1    C     C_R   0.390714 0.700176 0.445952 0.811065
O3    O     O_R   0.323930 0.675950 0.455370 -0.516371
O4    O     O_R   0.354700 0.475360 0.451930 -0.537788
C2    C     C_R   0.406060 0.386701 0.433875 0.775373
O5    O     O_R   0.494470 0.320860 0.448390 -0.553465
O6    O     O_R   0.662580 0.357570 0.460050 -0.535593
C3    C     C_R   0.653324 0.436257 0.441703 0.851043
O7    O     O_R   0.680900 0.502040 0.551870 -0.530651
O8    O     O_R   0.481990 0.666040 0.546870 -0.526443
C4    C     C_R   0.393640 0.701365 0.561361 0.921303
O9    O     O_R   0.325370 0.678160 0.544080 -0.510609
O10   O     O_R   0.356040 0.477400 0.534170 -0.522660
C5    C     C_R   0.407677 0.388966 0.549452 0.782705
O11   O     O_R   0.495910 0.323070 0.537100 -0.548809
O12   O     O_R   0.663920 0.359620 0.542290 -0.538587
C6    C     C_R   0.701619 0.412901 0.562635 0.820681
Cr1   Cr    Cr6+3 0.576280 0.580550 0.506370 0.987173
Cr2   Cr    Cr6+3 0.346780 0.572400 0.496520 0.985931
Cr3   Cr    Cr6+3 0.576960 0.347070 0.497150 0.947095
O13   O     O_3   0.500010 0.500010 0.500010 -0.369712
H1    H     H_    0.453327 0.176017 0.107929 0.197206
H2    H     H_    0.472592 0.210143 0.180924 0.183816
H3    H     H_    0.488826 0.207386 0.387396 0.186443
C7    C     C_R   0.372190 0.368149 0.391998 -0.097215
C8    C     C_R   0.294522 0.451436 0.370679 -0.154149
C9    C     C_R   0.279586 0.441473 0.328856 -0.191432
C10   C     C_R   0.341158 0.348074 0.307700 0.000210
C11   C     C_R   0.414713 0.260693 0.328905 0.383442
C12   C     C_R   0.428926 0.272113 0.371113 -0.236542
C13   C     C_R   0.399641 0.257800 0.164423 -0.056398
C14   C     C_R   0.388488 0.238616 0.122821 -0.108408
C15   C     C_R   0.210153 0.376452 0.121733 -0.143543
C16   C     C_R   0.221509 0.395362 0.163354 -0.104615
C17   C     C_R   0.315210 0.333932 0.184830 0.086650
C18   C     C_1   0.322227 0.342273 0.228072 0.035319
C19   C     C_1   0.329550 0.345591 0.264379 0.079481
C20   C     C_R   0.292392 0.295182 0.101336 -0.075230
H4    H     H_    0.249481 0.526337 0.385947 0.161466
H5    H     H_    0.155843 0.454555 0.179012 0.132445
H6    H     H_    0.135119 0.421323 0.106069 0.144607
H7    H     H_    0.222360 0.508247 0.312785 0.141891
N1    N     N_R   0.700913 0.320943 0.205966 -0.266563
N2    N     N_R   0.678602 0.336354 0.244628 -0.230975
C21   C     C_R   0.677148 0.416190 0.398488 -0.223361
C22   C     C_R   0.692472 0.486583 0.377484 0.279802
C23   C     C_R   0.713657 0.464314 0.336085 0.161315
C24   C     C_R   0.718733 0.372285 0.316234 -0.103463
C25   C     C_R   0.700681 0.304379 0.337031 0.252482
C26   C     C_R   0.678955 0.327474 0.377617 -0.272056
N3    N     N_R   0.836228 0.337050 0.263705 -0.300758
N4    N     N_R   0.858290 0.322165 0.225240 -0.261708
C27   C     C_R   0.790662 0.315069 0.195756 0.510050
C28   C     C_R   0.745305 0.346571 0.273977 0.557722
C29   C     C_R   0.824109 0.393710 0.140302 0.303441
C30   C     C_R   0.867639 0.378791 0.103109 -0.163649
C31   C     C_R   0.879590 0.207753 0.092471 -0.125987
C32   C     C_R   0.835159 0.221884 0.129072 -0.148703
C33   C     C_R   0.811400 0.312336 0.153644 -0.031613
C34   C     C_R   0.899593 0.284621 0.079979 -0.099210
H8    H     H_    0.664384 0.274445 0.392962 0.174154
H9    H     H_    0.880859 0.438608 0.092674 0.145631
H10   H     H_    0.903026 0.134727 0.075026 0.153911
H11   H     H_    0.826009 0.159331 0.139535 0.161443
N5    N     N_R   0.366287 0.735272 0.218507 -0.222573
N6    N     N_R   0.371491 0.727075 0.258146 -0.278331
C35   C     C_R   0.371600 0.753805 0.408139 -0.146976
C36   C     C_R   0.290375 0.762095 0.379256 0.294564
C37   C     C_R   0.295390 0.779181 0.339307 -0.248410
C38   C     C_R   0.376262 0.793585 0.327784 -0.137823
C39   C     C_R   0.449812 0.799507 0.357419 0.401994
C40   C     C_R   0.446183 0.779741 0.397450 -0.255010
N7    N     N_R   0.386095 0.879470 0.269895 -0.183975
N8    N     N_R   0.380795 0.887721 0.230170 -0.196845
C41   C     C_R   0.369912 0.816228 0.203849 0.674032
C42   C     C_R   0.381013 0.799127 0.284483 0.578283
C43   C     C_R   0.266690 0.829341 0.138246 0.342730
C44   C     C_R   0.242245 0.858247 0.098016 0.145816
C45   C     C_R   0.396840 0.881808 0.100602 0.256720
C46   C     C_R   0.420726 0.853033 0.140923 0.261337
C47   C     C_R   0.353005 0.831704 0.160249 -0.328852
C48   C     C_R   0.302006 0.894351 0.080061 -0.321325
H12   H     H_    0.506706 0.777079 0.419695 0.198590
H13   H     H_    0.235990 0.779921 0.316807 0.163976
N9    N     N_R   0.294068 0.447195 0.775400 -0.299215
N10   N     N_R   0.299118 0.448444 0.735820 -0.305410
C49   C     C_R   0.376102 0.371329 0.587567 -0.116285
C50   C     C_R   0.286876 0.448845 0.606522 0.284496
C51   C     C_R   0.279298 0.442678 0.647905 -0.164976
C52   C     C_R   0.355719 0.359703 0.669620 -0.030185
C53   C     C_R   0.437029 0.278407 0.649449 -0.119524
C54   C     C_R   0.447252 0.284228 0.608948 -0.186121
N11   N     N_R   0.399916 0.267791 0.732163 -0.262593
N12   N     N_R   0.394248 0.266465 0.771642 -0.244190
C55   C     C_R   0.341479 0.356034 0.793929 0.525376
C56   C     C_R   0.351352 0.358639 0.713423 0.528934
C57   C     C_R   0.222125 0.387560 0.847435 0.293545
C58   C     C_R   0.207174 0.366651 0.885318 -0.222452
C59   C     C_R   0.393311 0.282527 0.902861 0.416513
C60   C     C_R   0.409759 0.303978 0.864670 0.170350
C61   C     C_R   0.324318 0.351626 0.836112 -0.143678
C62   C     C_R   0.291571 0.309129 0.912088 -0.247947
H14   H     H_    0.515221 0.223107 0.595163 0.161824
H15   H     H_    0.128778 0.388087 0.892311 0.170983
H16   H     H_    0.214195 0.502073 0.663619 0.142713
H17   H     H_    0.496115 0.212696 0.665501 0.164584
H18   H     H_    0.717282 0.249466 0.599454 0.153429
C63   C     C_R   0.753322 0.377253 0.602743 -0.113553
C64   C     C_R   0.793175 0.433921 0.627957 -0.124793
C65   C     C_R   0.820024 0.412895 0.668745 -0.172271
C66   C     C_R   0.807645 0.334927 0.684682 0.051662
C67   C     C_R   0.774576 0.272566 0.659125 0.300278
C68   C     C_R   0.748335 0.294040 0.618306 -0.164095
C69   C     C_R   0.847703 0.233005 0.826014 0.289212
C70   C     C_R   0.872134 0.223589 0.868199 0.244365
C71   C     C_R   0.905250 0.371577 0.870401 -0.221214
C72   C     C_R   0.879149 0.382622 0.829171 0.284064
C73   C     C_R   0.854442 0.310448 0.806584 -0.128209
C74   C     C_1   0.837362 0.315760 0.763413 0.086217
C75   C     C_1   0.824630 0.323261 0.727455 -0.035728
C76   C     C_R   0.907279 0.289965 0.890012 -0.263415
H19   H     H_    0.799144 0.497313 0.616609 0.161623
H20   H     H_    0.930247 0.424398 0.886573 0.180876
H21   H     H_    0.846459 0.460366 0.688261 0.135884
H22   H     H_    0.394391 0.936565 0.806887 0.187794
C77   C     C_R   0.377323 0.752177 0.602772 -0.342772
C78   C     C_R   0.275194 0.812879 0.615586 0.240536
C79   C     C_R   0.259844 0.834349 0.657252 0.303619
C80   C     C_R   0.345426 0.796393 0.685697 -0.176885
C81   C     C_R   0.447297 0.743938 0.673107 0.208684
C82   C     C_R   0.463514 0.725840 0.631445 0.220163
C83   C     C_R   0.355342 0.909899 0.824937 -0.219329
C84   C     C_R   0.347251 0.939650 0.865934 0.345574
C85   C     C_R   0.257588 0.837825 0.871779 0.223283
C86   C     C_R   0.266531 0.808606 0.830071 0.287863
C87   C     C_R   0.313514 0.847530 0.806801 -0.075747
C88   C     C_1   0.320528 0.825749 0.764007 0.018950
C89   C     C_1   0.329418 0.811826 0.728201 0.105099
C90   C     C_R   0.292830 0.908620 0.889516 -0.288230
O14   O     O_R   0.170070 0.978950 0.027680 -0.563009
O15   O     O_R   0.001760 0.175230 0.026640 -0.533576
C91   C     C_R   0.962699 0.264262 0.045374 0.803472
O16   O     O_R   0.984760 0.333570 0.037150 -0.552344
O17   O     O_R   0.183410 0.309240 0.041890 -0.549225
C92   C     C_R   0.272946 0.259502 0.059946 0.792973
O18   O     O_R   0.340240 0.172500 0.045430 -0.508778
O19   O     O_R   0.309670 0.000990 0.032050 -0.493949
C93   C     C_R   0.260260 0.957487 0.043592 0.844517
O20   O     O_R   0.168330 0.982130 0.939200 -0.546722
O21   O     O_R   0.000140 0.178170 0.944610 -0.503303
C94   C     C_R   0.961104 0.268652 0.930944 0.887967
O22   O     O_R   0.983010 0.336750 0.948660 -0.560238
O23   O     O_R   0.181800 0.312190 0.959860 -0.560228
C95   C     C_R   0.271608 0.265463 0.946043 0.891833
O24   O     O_R   0.338500 0.175680 0.956950 -0.470851
O25   O     O_R   0.308050 0.003930 0.950020 -0.492728
C96   C     C_R   0.257118 0.963486 0.929261 0.817071
Cr4   Cr    Cr6+3 0.087320 0.083240 0.984860 0.992027
Cr5   Cr    Cr6+3 0.087720 0.316210 0.996740 0.941653
Cr6   Cr    Cr6+3 0.317350 0.090340 0.995890 1.143105
O26   O     O_3   0.164130 0.163270 0.992500 -0.363456
N13   N     N_2   0.717694 0.539776 0.313399 -0.466947
H23   H     H_    0.674089 0.554497 0.286135 0.281006
C97   C     C_3   0.819000 0.533052 0.311491 -0.345871
H24   H     H_    0.845099 0.509454 0.280302 0.196328
H25   H     H_    0.878293 0.476916 0.332749 0.176638
H26   H     H_    0.813396 0.610683 0.319337 0.231036
N14   N     N_2   0.704271 0.212315 0.317253 -0.479593
H27   H     H_    0.653442 0.191734 0.327791 0.291879
C98   C     C_3   0.807727 0.125417 0.315558 -0.422523
H28   H     H_    0.842028 0.101806 0.346598 0.176586
H29   H     H_    0.858645 0.145668 0.300195 0.201901
H30   H     H_    0.803842 0.058708 0.298163 0.231262
N15   N     N_2   0.797097 0.486663 0.165667 -0.526274
H31   H     H_    0.731725 0.511723 0.181431 0.283447
C99   C     C_3   0.814364 0.568915 0.153554 -0.388823
H32   H     H_    0.794385 0.630716 0.178187 0.244211
H33   H     H_    0.764453 0.603262 0.125916 0.218731
H34   H     H_    0.897581 0.538869 0.148317 0.173875
N16   N     N_2   0.206399 0.747779 0.389351 -0.507104
H35   H     H_    0.176031 0.717140 0.365786 0.247405
C100  C     C_3   0.126239 0.838043 0.409439 -0.434509
H36   H     H_    0.067179 0.818650 0.418500 0.201645
H37   H     H_    0.087636 0.902860 0.388690 0.178702
H38   H     H_    0.159550 0.863221 0.437102 0.220779
N17   N     N_2   0.153789 0.854996 0.077321 -0.449341
H39   H     H_    0.090286 0.925630 0.071456 0.279805
C101  C     C_3   0.175781 0.773780 0.045679 -0.378355
H40   H     H_    0.211615 0.786294 0.020464 0.166663
H41   H     H_    0.102437 0.773448 0.033732 0.189930
H42   H     H_    0.229285 0.696897 0.057949 0.213200
N18   N     N_R   0.531944 0.818568 0.347389 0.142024
O27   O     O_R   0.568604 0.866358 0.373778 -0.330276
O28   O     O_R   0.578987 0.777764 0.314224 -0.333041
N19   N     N_R   0.198103 0.805649 0.157551 0.136274
O29   O     O_R   0.177982 0.731554 0.142409 -0.343828
O30   O     O_R   0.149189 0.863500 0.188374 -0.362938
N20   N     N_R   0.471825 0.892666 0.079985 0.148381
O31   O     O_R   0.494304 0.967559 0.090774 -0.325915
O32   O     O_R   0.510918 0.832975 0.048071 -0.356292
N21   N     N_R   0.515648 0.842221 0.161944 0.152604
O33   O     O_R   0.579840 0.755751 0.178575 -0.373263
O34   O     O_R   0.530438 0.922917 0.169715 -0.295481
N22   N     N_2   0.207525 0.531575 0.583722 -0.514688
H43   H     H_    0.183193 0.507847 0.556407 0.258412
C102  C     C_3   0.126362 0.620605 0.604002 -0.410125
H44   H     H_    0.078925 0.679924 0.581737 0.234583
H45   H     H_    0.160788 0.655846 0.627774 0.229666
H46   H     H_    0.074613 0.597613 0.617306 0.171905
N23   N     N_R   0.477116 0.161475 0.308556 0.100195
O35   O     O_R   0.516620 0.076956 0.328147 -0.314323
O36   O     O_R   0.502218 0.154963 0.271678 -0.350164
N24   N     N_2   0.133304 0.436529 0.820047 -0.496388
H47   H     H_    0.144088 0.414425 0.789864 0.276755
C103  C     C_3   0.072881 0.547385 0.827847 -0.468954
H48   H     H_    0.005277 0.579010 0.805375 0.204581
H49   H     H_    0.121059 0.586030 0.825369 0.205668
H50   H     H_    0.043396 0.564828 0.858539 0.201768
N25   N     N_R   0.479800 0.232764 0.931823 0.142657
O37   O     O_R   0.472832 0.266452 0.969592 -0.377069
O38   O     O_R   0.566654 0.155441 0.920489 -0.261059
N26   N     N_2   0.512202 0.279220 0.855794 -0.430817
H51   H     H_    0.532273 0.248984 0.826933 0.314356
C104  C     C_3   0.540554 0.359894 0.868505 -0.384168
H52   H     H_    0.623114 0.332006 0.862824 0.221844
H53   H     H_    0.531460 0.380169 0.901389 0.214653
H54   H     H_    0.491218 0.430176 0.851224 0.155533
N27   N     N_R   0.856394 0.151288 0.888961 0.134327
O39   O     O_R   0.879746 0.059058 0.872887 -0.331128
O40   O     O_R   0.810822 0.180592 0.922816 -0.342648
N28   N     N_R   0.814863 0.165064 0.802890 0.141157
O41   O     O_R   0.884056 0.074779 0.789155 -0.343023
O42   O     O_R   0.718351 0.200723 0.789242 -0.381616
N29   N     N_2   0.760168 0.193076 0.674244 -0.554748
H55   H     H_    0.747497 0.201347 0.704546 0.304968
C105  C     C_3   0.834349 0.088495 0.661751 -0.350464
H56   H     H_    0.814235 0.032446 0.673358 0.211614
H57   H     H_    0.913715 0.071665 0.674174 0.260107
H58   H     H_    0.832941 0.077869 0.628245 0.195162
N30   N     N_2   0.883689 0.463890 0.810725 -0.501308
H59   H     H_    0.901738 0.449240 0.780902 0.262943
C106  C     C_3   0.797758 0.565937 0.818421 -0.512780
H60   H     H_    0.809260 0.624625 0.804174 0.203375
H61   H     H_    0.793105 0.586045 0.851445 0.218050
H62   H     H_    0.723683 0.568639 0.805392 0.189502
N31   N     N_R   0.392710 0.003681 0.882535 0.116289
O43   O     O_R   0.375644 0.084322 0.863606 -0.381278
O44   O     O_R   0.470416 0.967185 0.909564 -0.313188
N32   N     N_2   0.533989 0.703882 0.702138 -0.481628
H63   H     H_    0.526870 0.750492 0.728140 0.264635
C107  C     C_3   0.571665 0.596201 0.710150 -0.501400
H64   H     H_    0.512457 0.587382 0.725160 0.188064
H65   H     H_    0.643780 0.569067 0.730371 0.192432
H66   H     H_    0.589955 0.546866 0.681581 0.216970
N33   N     N_R   0.566953 0.676662 0.617763 -0.239593
O45   O     O_R   0.640220 0.693407 0.636686 -0.000005
O46   O     O_R   0.640220 0.693406 0.636687 -0.000005
N34   N     N_R   0.188142 0.856371 0.586243 0.136573
O47   O     O_R   0.100300 0.859447 0.591686 -0.345802
O48   O     O_R   0.195509 0.896521 0.554376 -0.371517
N35   N     N_2   0.233446 0.735839 0.812552 -0.513001
H67   H     H_    0.290087 0.673884 0.796986 0.267771
C108  C     C_3   0.134639 0.780683 0.789115 -0.423309
H68   H     H_    0.140630 0.812646 0.761255 0.233581
H69   H     H_    0.073433 0.843545 0.807035 0.223493
H70   H     H_    0.111036 0.719744 0.780133 0.196729
N36   N     N_2   0.220541 0.789588 0.896231 -0.508205
H71   H     H_    0.254012 0.777224 0.925369 0.246937
C109  C     C_3   0.109477 0.826039 0.893214 -0.342135
H72   H     H_    0.093119 0.763774 0.878451 0.190708
H73   H     H_    0.067144 0.896751 0.875642 0.229161
H74   H     H_    0.079571 0.845576 0.923878 0.185452
N37   N     N_R   0.157375 0.895845 0.670829 0.128673
O49   O     O_R   0.101455 0.851538 0.676102 -0.380060
O50   O     O_R   0.128530 0.990584 0.685155 -0.366419
N38   N     N_R   0.677275 0.583289 0.398009 -0.230957
O51   O     O_R   0.731966 0.627842 0.391354 -0.000009
O52   O     O_R   0.731964 0.627844 0.391354 -0.000009

loop_
_geom_bond_atom_site_label_1
_geom_bond_atom_site_label_2
_geom_bond_distance
_ccdc_geom_bond_type
C37   H13   1.084705 S    
H3    C12   1.083151 S    
C58   C62   1.399594 A    
C98   H28   1.111718 S    
C83   C87   1.389391 A    
C97   H24   1.110202 S    
C59   N25   1.438910 S    
C55   C61   1.466199 S    
C70   N27   1.439237 S    
N12   C55   1.355601 A    
N14   C98   1.446594 S    
N14   H27   1.031334 S    
C84   N31   1.433222 S    
C65   C66   1.401560 A    
C15   H6    1.083101 S    
C103  H50   1.110953 S    
O15   Cr4   1.928543 S    
C100  H36   1.110327 S    
C66   C75   1.432654 S    
C78   C79   1.409934 A    
C105  H56   1.110432 S    
N25   O38   1.301329 A    
Cr6   O26   1.972865 S    
O14   C93   1.272828 A    
C85   C86   1.413542 A    
N15   C99   1.447704 S    
C4    C77   1.487507 S    
C27   C33   1.459118 S    
N4    C27   1.354009 A    
N3    N4    1.326275 A    
C71   C76   1.406926 A    
C4    O9    1.271953 A    
C98   H29   1.110341 S    
O8    Cr1   1.927497 S    
C7    C8    1.402866 A    
O25   C96   1.274285 A    
N21   O34   1.300609 A    
O19   Cr6   1.914556 S    
C13   C17   1.398068 A    
Cr3   O13   1.971463 S    
C17   C18   1.430124 S    
N13   C97   1.451222 S    
C71   H20   1.083549 S    
C103  H49   1.111066 S    
C15   C16   1.394832 A    
C100  H37   1.111727 S    
N6    C42   1.356699 A    
C84   C90   1.419335 A    
C11   C12   1.404392 A    
C45   C46   1.405337 A    
N24   C103  1.445962 S    
N32   C107  1.446964 S    
C106  H60   1.110309 S    
C57   C58   1.390511 A    
N30   H59   1.030662 S    
C104  H54   1.111644 S    
C29   C30   1.404173 A    
O6    C3    1.303165 A    
O12   C6    1.267809 A    
N37   O49   1.300724 A    
C21   C22   1.416432 A    
H18   C68   1.083461 S    
H2    C13   1.083772 S    
C101  H41   1.110132 S    
C72   C73   1.404585 A    
N28   O41   1.300798 A    
C67   C68   1.397579 A    
C90   C96   1.486519 S    
C64   C65   1.395949 A    
O14   Cr4   2.034971 S    
C50   N22   1.432675 S    
C1    C35   1.481216 S    
H22   C83   1.085120 S    
C35   C36   1.415686 A    
C99   H33   1.110960 S    
N7    C42   1.355728 A    
N33   O46   1.301453 A    
C10   C19   1.433623 S    
C65   H21   1.083833 S    
C102  H46   1.110769 S    
N29   H55   1.030473 S    
C6    C63   1.475735 S    
C30   H9    1.080372 S    
C37   C38   1.398308 A    
C103  H48   1.110022 S    
O16   Cr5   2.039251 S    
C10   C11   1.416010 A    
N10   C56   1.358413 A    
O7    Cr1   2.035894 S    
C40   H12   1.083209 S    
C52   C53   1.397559 A    
N3    C28   1.352380 A    
N34   O47   1.300627 A    
C39   C40   1.403697 A    
C106  H62   1.111519 S    
C31   C34   1.402967 A    
N16   C100  1.446559 S    
N5    N6    1.328187 A    
C57   N24   1.425440 S    
C3    C21   1.485019 S    
C97   H25   1.112553 S    
N38   O51   1.300129 A    
C23   N13   1.428012 S    
N29   C105  1.445992 S    
C109  H74   1.111382 S    
C79   N37   1.432086 S    
C101  H40   1.110104 S    
C26   H8    1.083480 S    
C45   C48   1.421131 A    
C80   C89   1.437652 S    
C54   H14   1.083159 S    
N28   O42   1.300556 A    
C66   C67   1.407912 A    
N27   O39   1.300310 A    
C34   C91   1.473270 S    
O17   C92   1.275111 A    
C2    O5    1.270657 A    
N31   O44   1.301172 A    
C31   H10   1.083067 S    
C85   C90   1.423149 A    
C58   H15   1.084136 S    
C98   H30   1.110367 S    
O1    Cr1   2.045477 S    
O15   C91   1.275338 A    
N21   O33   1.300944 A    
C29   N15   1.435527 S    
C86   N35   1.425125 S    
C15   C20   1.407916 A    
C60   C61   1.417145 A    
O10   Cr2   1.914083 S    
C48   C93   1.493838 S    
Cr1   O13   1.965572 S    
O1    C3    1.296640 A    
O19   C93   1.277712 A    
C51   H16   1.081016 S    
N26   H51   1.029008 S    
N19   O30   1.301263 A    
O20   Cr4   2.045528 S    
C100  H38   1.111214 S    
C41   C47   1.468438 S    
C11   N23   1.443581 S    
O4    Cr2   1.926271 S    
O17   Cr5   1.921265 S    
C82   N33   1.439240 S    
N24   H47   1.030132 S    
C108  H68   1.109691 S    
N35   C108  1.448180 S    
N11   C56   1.356009 A    
H1    C14   1.082673 S    
N32   H63   1.031149 S    
N16   H35   1.032004 S    
C45   N20   1.435010 S    
C21   C26   1.404729 A    
C59   C62   1.412829 A    
C46   C47   1.405149 A    
C1    O3    1.267812 A    
C102  H44   1.109979 S    
N30   C106  1.445985 S    
C16   C17   1.397144 A    
O21   Cr4   1.918075 S    
C101  H42   1.111130 S    
N8    C41   1.358349 A    
C78   N34   1.440735 S    
N23   O35   1.301590 A    
O23   Cr5   1.920639 S    
C18   C19   1.200709 T    
C64   H19   1.082201 S    
C43   C47   1.408954 A    
C53   H17   1.083269 S    
C22   C23   1.417583 A    
C22   N38   1.439410 S    
N9    C55   1.356085 A    
C8    H4    1.082651 S    
O21   C94   1.279618 A    
C99   H34   1.110827 S    
N5    C41   1.354424 A    
N33   O45   1.301452 A    
C81   N32   1.427469 S    
N18   O28   1.300922 A    
C104  H52   1.110384 S    
C2    C7    1.474478 S    
Cr4   O26   1.965782 S    
N11   N12   1.328795 A    
C25   C26   1.393386 A    
C32   C33   1.399753 A    
C14   C20   1.406140 A    
C52   C56   1.468901 S    
C73   C74   1.436293 S    
C77   C82   1.418721 A    
O23   C95   1.274584 A    
C69   N28   1.431865 S    
N35   H67   1.031627 S    
C44   N17   1.424030 S    
C63   C68   1.408964 A    
C107  H66   1.111197 S    
C62   C95   1.472547 S    
C23   C24   1.416654 A    
N23   O36   1.301009 A    
N36   C109  1.448947 S    
O24   Cr6   2.031173 S    
C99   H32   1.110255 S    
C97   H26   1.109365 S    
C69   C73   1.409812 A    
N38   O52   1.300128 A    
O18   Cr6   2.041540 S    
C83   C84   1.391538 A    
C24   C25   1.404134 A    
C109  H73   1.110477 S    
C31   C32   1.394356 A    
C77   C78   1.417952 A    
O25   Cr6   1.923923 S    
N7    N8    1.331059 A    
C38   C42   1.463144 S    
C74   C75   1.199987 T    
C107  H65   1.110249 S    
C92   O18   1.271423 A    
C70   C76   1.416137 A    
C67   N29   1.426474 S    
N22   H43   1.031558 S    
C49   C54   1.407169 A    
C9    C10   1.398393 A    
O20   C96   1.271898 A    
O9    Cr2   2.043019 S    
O2    Cr1   1.919499 S    
N9    N10   1.330453 A    
C43   N19   1.437022 S    
C7    C12   1.405088 A    
Cr5   O26   1.971579 S    
C39   N18   1.439166 S    
N1    N2    1.333264 A    
Cr2   O13   1.972946 S    
N19   O29   1.301005 A    
N34   O48   1.301555 A    
C24   C28   1.465053 S    
O6    Cr3   1.919296 S    
C102  H45   1.111032 S    
N31   O43   1.300931 A    
C72   N30   1.426474 S    
O11   Cr3   2.034698 S    
C30   C34   1.404548 A    
C46   N21   1.436085 S    
O3    Cr2   2.031802 S    
C87   C88   1.433118 S    
C9    H7    1.084101 S    
C79   C80   1.403699 A    
N36   H71   1.031796 S    
C69   C70   1.416187 A    
C13   C14   1.394525 A    
C107  H64   1.111419 S    
O22   Cr5   2.037106 S    
C105  H57   1.110723 S    
O2    C1    1.278523 A    
C35   C40   1.406895 A    
N17   H39   1.030183 S    
N27   O40   1.301452 A    
N15   H31   1.031651 S    
C57   C61   1.413458 A    
C81   C82   1.410459 A    
C32   H11   1.083490 S    
O5    Cr3   2.039030 S    
C43   C44   1.403066 A    
C60   N26   1.426212 S    
C51   C52   1.400989 A    
O4    C2    1.276539 A    
O7    C6    1.274073 A    
C108  H70   1.109865 S    
C5    O11   1.273578 A    
C20   C92   1.474193 S    
C53   C54   1.388161 A    
C104  H53   1.111130 S    
N25   O37   1.301389 A    
C80   C81   1.405884 A    
C25   N14   1.424075 S    
N37   O50   1.300624 A    
N26   C104  1.445902 S    
C36   C37   1.393744 A    
C16   H5    1.083693 S    
O12   Cr3   1.920407 S    
N17   C101  1.446953 S    
N13   H23   1.031729 S    
C88   C89   1.200110 T    
C85   N36   1.427019 S    
C44   C48   1.423712 A    
N1    C27   1.356915 A    
N20   O31   1.300430 A    
C29   C33   1.412467 A    
C49   C50   1.421559 A    
N2    C28   1.358654 A    
C108  H69   1.108645 S    
N18   O27   1.301376 A    
C105  H58   1.110751 S    
C63   C64   1.401165 A    
C95   O24   1.271625 A    
N20   O32   1.301080 A    
O10   C5    1.276038 A    
C86   C87   1.407349 A    
C59   C60   1.411366 A    
C94   O22   1.265766 A    
C106  H61   1.110900 S    
C38   C39   1.412504 A    
C50   C51   1.409511 A    
C71   C72   1.389784 A    
N22   C102  1.447333 S    
C109  H72   1.109715 S    
C91   O16   1.266603 A    
O8    C4    1.275301 A    
C36   N16   1.423995 S    
C5    C49   1.482447 S    
C8    C9    1.391112 A    
C76   C94   1.483319 S    
