data_mof_unit_39398.cif
_audit_creation_date              2012-12-10T18:57:40-0500
_audit_creation_method            fapswitch 2.2
_symmetry_space_group_name_H-M    P1
_symmetry_Int_Tables_number       1
_space_group_crystal_system       triclinic
_cell_length_a                    10.946621
_cell_length_b                    10.82382
_cell_length_c                    9.574285
_cell_angle_alpha                 90.854576
_cell_angle_beta                  90.860127
_cell_angle_gamma                 90.97362
_cell_volume                      1133.97987909

loop_
_atom_site_label
_atom_site_type_symbol
_atom_type_description
_atom_site_fract_x
_atom_site_fract_y
_atom_site_fract_z
_atom_type_partial_charge
C1    C     C_R   0.496849 0.262738 0.499010 0.856963
C2    C     C_R   0.491048 0.129641 0.498873 -0.270879
C3    C     C_R   0.427680 0.060987 0.394219 0.638547
C4    C     C_R   0.429345 0.931832 0.396017 -0.251966
C5    C     C_R   0.493965 0.870952 0.502074 -0.153712
C6    C     C_R   0.548035 0.940649 0.611128 -0.011972
C7    C     C_3   0.676098 0.941195 0.670510 -0.340692
C8    C     C_3   0.672954 0.082374 0.668626 0.512212
C9    C     C_R   0.592124 0.556850 0.076427 0.212017
C10   C     C_R   0.417568 0.431025 0.072781 -0.049657
C11   C     C_R   0.417776 0.429833 0.924200 0.047912
C12   C     C_R   0.265522 0.500061 0.498500 0.813576
C13   C     C_R   0.593705 0.555247 0.929386 0.165853
C14   C     C_3   0.635353 0.687087 0.926815 -0.445476
C15   C     C_3   0.628990 0.689509 0.085925 0.386832
C16   C     C_R   0.500174 0.737596 0.500722 0.845535
C17   C     C_R   0.734523 0.503205 0.501291 0.770176
C18   C     C_2   0.931206 0.520742 0.389616 -0.238572
C19   C     C_2   0.866216 0.516223 0.507004 0.475094
C20   C     C_2   0.064142 0.538266 0.390996 -0.010671
C21   C     C_2   0.133475 0.490606 0.494117 -0.242550
C22   C     C_R   0.546322 0.068030 0.608917 0.000129
Cu1   Cu    Cu3+1 0.499990 0.499980 0.640670 1.019553
Cu2   Cu    Cu3+1 0.500010 0.500020 0.359330 1.016906
H1    H     H_    0.885145 0.516789 0.288191 0.183664
H2    H     H_    0.350057 0.376943 0.127844 0.181072
H3    H     H_    0.568604 0.748251 0.875188 0.153191
H4    H     H_    0.556418 0.749958 0.127270 0.110686
H5    H     H_    0.093276 0.436606 0.576561 0.221647
H6    H     H_    0.382399 0.879653 0.313353 0.186935
H7    H     H_    0.680407 0.906582 0.778277 0.189573
N1    N     N_R   0.500780 0.500930 0.147930 -0.230859
N2    N     N_R   0.500780 0.500890 0.852020 -0.212940
O1    O     O_R   0.500000 0.319640 0.618810 -0.563987
O2    O     O_R   0.500010 0.319680 0.381230 -0.531645
O3    O     O_R   0.321940 0.499980 0.618760 -0.577805
O4    O     O_R   0.321950 0.500020 0.381180 -0.585174
O5    O     O_R   0.499990 0.680320 0.618770 -0.589107
O6    O     O_R   0.500000 0.680360 0.381190 -0.587324
O7    O     O_R   0.678050 0.499980 0.618820 -0.542220
O8    O     O_R   0.678060 0.500020 0.381240 -0.587076
C23   C     C_1   0.760231 0.145407 0.576037 0.247327
N3    N     N_1   0.828552 0.194739 0.503540 -0.267274
C24   C     C_1   0.330126 0.350630 0.851946 0.372706
N4    N     N_1   0.259489 0.286239 0.794849 -0.250098
C25   C     C_1   0.761111 0.698693 0.875735 0.466954
N5    N     N_1   0.860409 0.708921 0.837322 -0.151639
F1    F     F_    0.740828 0.705412 0.154363 -0.633883
F2    F     F_    0.919335 0.534314 0.635095 -0.649879
C26   C     C_1   0.115628 0.606902 0.276469 0.342236
N6    N     N_1   0.156614 0.661759 0.184956 -0.243706
F3    F     F_    0.366827 0.118131 0.289551 -0.643382
C27   C     C_1   0.764390 0.882105 0.576329 0.250710
N7    N     N_1   0.833369 0.835751 0.502538 -0.187217
F4    F     F_    0.672535 0.134960 0.801306 -0.616646

loop_
_geom_bond_atom_site_label_1
_geom_bond_atom_site_label_2
_ccdc_geom_bond_type
C2    C22   A    
C8    C22   S    
Cu1   Cu2   S    
Cu2   N1    S    
C13   N2    A    
C6    C7    S    
C13   C14   S    
C14   H3    S    
C12   O3    A    
Cu1   O5    S    
C19   F2    S    
C11   N2    A    
C3    F3    S    
Cu1   O1    S    
C10   H2    S    
C2    C3    A    
C9    C15   S    
C7    C8    S    
C14   C25   S    
C27   N7    T    
C24   N4    T    
Cu2   O8    S    
C15   H4    S    
C18   H1    S    
C15   F1    S    
C1    C2    S    
C8    F4    S    
C17   C19   S    
C8    C23   S    
C1    O1    A    
Cu2   O4    S    
C18   C20   S    
C5    C6    A    
C17   O8    A    
Cu2   O2    S    
C7    H7    S    
C10   C11   A    
C7    C27   S    
C16   O6    A    
C3    C4    A    
C6    C22   A    
C10   N1    A    
C11   C24   S    
Cu2   O6    S    
C20   C21   D    
C1    O2    A    
Cu1   O3    S    
C23   N3    T    
C12   O4    A    
C9    C13   A    
C14   C15   S    
C18   C19   D    
C5    C16   S    
C20   C26   S    
C9    N1    A    
C26   N6    T    
C25   N5    T    
C21   H5    S    
C12   C21   S    
C4    H6    S    
Cu1   O7    S    
C16   O5    A    
C4    C5    A    
Cu1   N2    S    
C17   O7    A    
