data_mof_unit_37019.cif
_audit_creation_date              2012-12-10T19:50:52-0500
_audit_creation_method            fapswitch 2.2
_symmetry_space_group_name_H-M    P1
_symmetry_Int_Tables_number       1
_space_group_crystal_system       triclinic
_cell_length_a                    23.542009
_cell_length_b                    10.811278
_cell_length_c                    22.203402
_cell_angle_alpha                 90.163369
_cell_angle_beta                  89.365184
_cell_angle_gamma                 89.273564
_cell_volume                      5650.36586708

loop_
_atom_site_label
_atom_site_type_symbol
_atom_type_description
_atom_site_fract_x
_atom_site_fract_y
_atom_site_fract_z
_atom_type_partial_charge
C1    C     C_R   0.498873 0.261981 0.499850 0.807491
C2    C     C_R   0.501087 0.738022 0.500147 0.808418
C3    C     C_R   0.239097 0.499097 0.445399 -0.020014
C4    C     C_R   0.761552 0.495141 0.442867 -0.049119
C5    C     C_R   0.298587 0.503484 0.446242 -0.248861
C6    C     C_R   0.701979 0.499444 0.444316 -0.231223
C7    C     C_R   0.328224 0.500570 0.500688 -0.063025
C8    C     C_R   0.671782 0.496070 0.499082 -0.060888
C9    C     C_R   0.297921 0.495880 0.555219 -0.235342
C10   C     C_R   0.701552 0.489115 0.553242 -0.246692
C11   C     C_R   0.238615 0.494215 0.555615 0.183634
C12   C     C_R   0.760855 0.487218 0.553021 0.210193
C13   C     C_R   0.208979 0.495603 0.501016 0.312947
C14   C     C_R   0.791090 0.489829 0.498116 0.309943
C15   C     C_R   0.350763 0.234136 0.372332 -0.160645
C16   C     C_R   0.648330 0.762611 0.627380 -0.172592
C17   C     C_R   0.379120 0.172932 0.419460 -0.007600
C18   C     C_R   0.620330 0.825013 0.580386 -0.000623
C19   C     C_R   0.434638 0.123812 0.407976 0.039383
C20   C     C_R   0.565211 0.876083 0.592059 0.038996
C21   C     C_R   0.458927 0.134454 0.350180 -0.140175
C22   C     C_R   0.541042 0.866446 0.649958 -0.143411
C23   C     C_R   0.390727 0.500491 0.500276 0.821793
C24   C     C_R   0.609274 0.499140 0.499704 0.821890
C25   C     C_R   0.430152 0.196513 0.304542 -0.121428
C26   C     C_R   0.569523 0.803499 0.695518 -0.111251
C27   C     C_R   0.376331 0.246880 0.315707 -0.097330
C28   C     C_R   0.622881 0.750994 0.684130 -0.114972
C29   C     C_R   0.471578 0.933837 0.455553 -0.179801
C30   C     C_R   0.528365 0.066165 0.544446 -0.182271
C31   C     C_R   0.501655 0.871677 0.500459 -0.040120
C32   C     C_R   0.498301 0.128332 0.499528 -0.038629
C33   C     C_R   0.530863 0.937947 0.545077 0.051795
C34   C     C_R   0.469077 0.062056 0.454919 0.052848
C35   C     C_R   0.548527 0.535699 0.871987 0.536304
C36   C     C_R   0.451381 0.464372 0.128010 0.538132
C37   C     C_R   0.454154 0.457895 0.872423 0.546369
C38   C     C_R   0.545749 0.542207 0.127571 0.548895
C39   C     C_R   0.452546 0.458828 0.936147 -0.026668
C40   C     C_R   0.547354 0.541278 0.063849 -0.028438
C41   C     C_R   0.500326 0.499116 0.967936 -0.012934
C42   C     C_R   0.499575 0.500986 0.032060 -0.012914
C43   C     C_R   0.548838 0.537609 0.935742 -0.019647
C44   C     C_R   0.451065 0.462486 0.064255 -0.020370
C45   C     C_R   0.879566 0.599612 0.493227 0.607162
C46   C     C_R   0.120530 0.386900 0.510922 0.632889
C47   C     C_R   0.404336 0.420481 0.968817 -0.155439
C48   C     C_R   0.595563 0.579630 0.031179 -0.152692
C49   C     C_R   0.403608 0.422282 0.031933 -0.154211
C50   C     C_R   0.596294 0.577820 0.968064 -0.156432
C51   C     C_R   0.537238 0.427349 0.255337 -0.284299
C52   C     C_R   0.462783 0.572858 0.744634 -0.294150
C53   C     C_R   0.537533 0.427054 0.318813 0.350493
C54   C     C_R   0.462530 0.573148 0.681156 0.349928
C55   C     C_R   0.461645 0.573077 0.321483 0.012859
C56   C     C_R   0.538253 0.426714 0.678542 0.004357
C57   C     C_R   0.460044 0.575297 0.258189 -0.223734
C58   C     C_R   0.539817 0.424505 0.741838 -0.235471
C59   C     C_R   0.498378 0.502098 0.224244 0.330915
C60   C     C_R   0.501548 0.497920 0.775754 0.340131
C61   C     C_R   0.880861 0.380855 0.507726 0.622315
C62   C     C_R   0.119088 0.605644 0.496369 0.609403
C63   C     C_R   0.941041 0.377592 0.507361 -0.092699
C64   C     C_R   0.058947 0.609187 0.498678 -0.078468
C65   C     C_R   0.969977 0.491698 0.502065 -0.003965
C66   C     C_R   0.030026 0.495092 0.503908 -0.008367
C67   C     C_R   0.938938 0.602818 0.494869 -0.021262
C68   C     C_R   0.061111 0.383985 0.510882 -0.032450
C69   C     C_R   0.973473 0.266339 0.513560 -0.031765
C70   C     C_R   0.026578 0.720727 0.493858 -0.027668
C71   C     C_R   0.032622 0.271669 0.516391 -0.165204
C72   C     C_R   0.967413 0.715383 0.490480 -0.192651
Cu1   Cu    Cu3+1 0.500000 0.499970 0.559570 0.983248
Cu2   Cu    Cu3+1 0.500000 0.500030 0.440430 0.987884
H1    H     H_    0.500746 0.095723 0.340740 0.139135
H2    H     H_    0.499493 0.906464 0.659515 0.136556
H3    H     H_    0.449680 0.205740 0.260443 0.153843
H4    H     H_    0.550081 0.795060 0.739699 0.151809
H5    H     H_    0.448735 0.882336 0.421729 0.144284
H6    H     H_    0.551198 0.117655 0.578282 0.141866
H7    H     H_    0.366899 0.388934 0.945717 0.191354
H8    H     H_    0.633000 0.611180 0.054279 0.193120
H9    H     H_    0.365662 0.391960 0.055303 0.191375
H10   H     H_    0.634240 0.608139 0.944694 0.190021
H11   H     H_    0.567037 0.369102 0.230411 0.159362
H12   H     H_    0.433036 0.631269 0.769539 0.155566
H13   H     H_    0.432101 0.630390 0.347115 0.141283
H14   H     H_    0.567744 0.369239 0.652927 0.134654
H15   H     H_    0.429491 0.634467 0.235797 0.166705
H16   H     H_    0.570293 0.365188 0.764254 0.160495
H17   H     H_    0.056658 0.186065 0.521061 0.198690
H18   H     H_    0.943346 0.801014 0.486169 0.205557
H19   H     H_    0.322158 0.506764 0.404119 0.195621
H20   H     H_    0.678883 0.504494 0.402495 0.204059
H21   H     H_    0.320072 0.493249 0.597689 0.162603
H22   H     H_    0.678951 0.486149 0.595982 0.150907
H23   H     H_    0.354064 0.295036 0.280205 0.182491
H24   H     H_    0.644878 0.702008 0.719553 0.168777
H25   H     H_    0.308410 0.272159 0.378981 0.190027
H26   H     H_    0.690317 0.722823 0.620524 0.176193
N1    N     N_R   0.852062 0.489965 0.499262 -0.442455
N2    N     N_R   0.147997 0.496066 0.502888 -0.443685
N3    N     N_R   0.501607 0.496329 0.841337 -0.447150
N4    N     N_R   0.498303 0.503741 0.158660 -0.448398
N5    N     N_R   0.500010 0.500010 0.350920 -0.159879
N6    N     N_R   0.499990 0.499990 0.649080 -0.156800
O1    O     O_R   0.500000 0.319610 0.550310 -0.587238
O2    O     O_R   0.500000 0.680390 0.449690 -0.585517
O3    O     O_R   0.499990 0.319670 0.449690 -0.558610
O4    O     O_R   0.500010 0.680330 0.550310 -0.557795
O5    O     O_R   0.417880 0.499930 0.550320 -0.554330
O6    O     O_R   0.582120 0.500070 0.449680 -0.554110
O7    O     O_R   0.417880 0.499990 0.449700 -0.599959
O8    O     O_R   0.582120 0.500010 0.550300 -0.599020
O9    O     O_2   0.849290 0.705340 0.486049 -0.511285
O10   O     O_2   0.150866 0.281181 0.517846 -0.519890
O11   O     O_2   0.850879 0.277272 0.517361 -0.498241
O12   O     O_2   0.148845 0.709225 0.485902 -0.500234
O13   O     O_2   0.594564 0.574542 0.841056 -0.560112
O14   O     O_2   0.405348 0.425499 0.158942 -0.552123
O15   O     O_2   0.408651 0.417916 0.841912 -0.534880
O16   O     O_2   0.591250 0.582212 0.158079 -0.522774
C73   C     C_2   0.948723 0.141280 0.515109 0.959792
O17   O     O_2   0.920265 0.104719 0.473051 -0.501784
O18   O     O_R   0.960725 0.062871 0.563391 -0.751039
H27   H     H_    0.941968 0.979429 0.559389 0.335735
C74   C     C_2   0.051650 0.845604 0.495641 0.938542
O19   O     O_2   0.040238 0.920723 0.456374 -0.560020
O20   O     O_R   0.085965 0.879354 0.543838 -0.701363
H28   H     H_    0.099896 0.967425 0.540421 0.353540
N7    N     N_3   0.577362 0.349975 0.349701 -0.521062
H29   H     H_    0.618187 0.375092 0.335842 0.215575
H30   H     H_    0.571304 0.258680 0.335904 0.195402
N8    N     N_3   0.422821 0.650449 0.650225 -0.521988
H31   H     H_    0.381944 0.625451 0.663963 0.198449
H32   H     H_    0.428944 0.741703 0.664061 0.194943
C75   C     C_2   0.210223 0.496596 0.385964 0.882862
O21   O     O_2   0.159899 0.471353 0.382417 -0.569077
O22   O     O_R   0.241189 0.521366 0.333304 -0.769823
H33   H     H_    0.217231 0.516035 0.295741 0.352792
C76   C     C_2   0.791235 0.495607 0.383211 0.895205
O23   O     O_2   0.841538 0.467180 0.378762 -0.565628
O24   O     O_R   0.761093 0.527069 0.331380 -0.752600
H34   H     H_    0.785601 0.523518 0.293558 0.355030
N9    N     N_3   0.207953 0.491207 0.611631 -0.564221
H35   H     H_    0.219376 0.568615 0.636874 0.232305
H36   H     H_    0.221043 0.412302 0.635082 0.236987
N10   N     N_3   0.790888 0.483495 0.608723 -0.568377
H37   H     H_    0.778378 0.404407 0.632116 0.235123
H38   H     H_    0.778322 0.560681 0.634282 0.222104
C77   C     C_2   0.348960 0.160775 0.478662 0.809619
O25   O     O_2   0.371214 0.107276 0.520870 -0.595095
O26   O     O_R   0.294059 0.210024 0.486001 -0.742513
H39   H     H_    0.278034 0.197026 0.528051 0.363765
C78   C     C_2   0.650450 0.836355 0.521120 0.810233
O27   O     O_2   0.628820 0.892278 0.479282 -0.588358
O28   O     O_R   0.704656 0.783739 0.513339 -0.740344
H40   H     H_    0.720737 0.796604 0.471302 0.370715

loop_
_geom_bond_atom_site_label_1
_geom_bond_atom_site_label_2
_ccdc_geom_bond_type
C70   C74   S    
C16   C28   A    
C66   C68   A    
C63   C65   A    
C24   O8    A    
O28   H40   S    
C8    C24   S    
C78   O28   S    
C41   C42   A    
C35   O13   S    
C24   O6    A    
C22   H2    S    
C51   H11   S    
Cu2   O3    S    
N9    H35   S    
C50   H10   S    
C73   O17   D    
C39   C41   A    
N7    H30   S    
C46   N2    A    
C26   H4    S    
C57   H15   S    
C55   N5    A    
C25   H3    S    
C59   N4    S    
C19   C21   A    
N10   H38   S    
C35   N3    A    
C76   O24   S    
Cu2   O6    S    
C72   H18   S    
C73   O18   S    
C69   C73   S    
C58   C60   A    
O24   H34   S    
C54   N8    S    
C61   C63   A    
C67   C72   A    
Cu1   Cu2   S    
C69   C71   A    
C40   C48   A    
C62   C64   A    
C52   C60   A    
C1    O3    A    
C27   H23   S    
C63   C69   A    
C56   C58   A    
C6    H20   S    
C45   C67   A    
C38   N4    A    
C77   O25   D    
C31   C33   A    
C3    C75   S    
C64   C70   A    
C60   N3    S    
C35   C43   A    
C9    H21   S    
C3    C13   A    
C30   H6    S    
C5    H19   S    
C40   C42   A    
C38   C40   A    
C4    C14   A    
C41   C43   A    
Cu1   O1    S    
C17   C77   S    
C42   C44   A    
C52   H12   S    
N9    H36   S    
C52   C54   A    
Cu1   O5    S    
C54   N6    A    
C61   O11   S    
Cu1   O4    S    
N10   H37   S    
C4    C6    A    
C15   H25   S    
C4    C76   S    
C5    C7    A    
C11   N9    S    
C14   N1    S    
C6    C8    A    
C65   C67   A    
Cu2   O7    S    
C29   C34   A    
C44   C49   A    
Cu1   O8    S    
C2    C31   S    
C51   C53   A    
C64   C66   A    
C61   N1    A    
C74   O20   S    
C46   C68   A    
C23   O7    A    
C75   O22   S    
C45   O9    S    
C15   C27   A    
C29   H5    S    
C10   H22   S    
C29   C31   A    
C48   C50   A    
C9    C11   A    
C56   N6    A    
C38   O16   S    
C10   C12   A    
C58   H16   S    
C37   O15   S    
C20   C33   S    
C16   C18   A    
C1    O1    A    
C45   N1    A    
O18   H27   S    
C36   C44   A    
C57   C59   A    
C51   C59   A    
C20   C22   A    
C74   O19   D    
C39   C47   A    
O20   H28   S    
C28   H24   S    
C7    C9    A    
C21   C25   A    
C2    O4    A    
C30   C33   A    
N8    H32   S    
C16   H26   S    
C53   N7    S    
C12   C14   A    
C3    C5    A    
C19   C34   S    
C37   N3    A    
O22   H33   S    
C43   C50   A    
C15   C17   A    
N8    H31   S    
C47   C49   A    
C23   O5    A    
C75   O21   D    
C21   H1    S    
C26   C28   A    
C46   O10   S    
C36   N4    A    
C12   N10   S    
C55   C57   A    
C13   N2    S    
C37   C39   A    
C76   O23   D    
Cu2   N5    S    
C30   C32   A    
C11   C13   A    
C49   H9    S    
Cu1   N6    S    
C47   H7    S    
C68   C71   A    
C7    C23   S    
C2    O2    A    
C17   C19   A    
C48   H8    S    
C18   C20   A    
C77   O26   S    
C55   H13   S    
C36   O14   S    
C62   O12   S    
C56   H14   S    
Cu2   O2    S    
C53   N5    A    
C1    C32   S    
C71   H17   S    
C8    C10   A    
C65   C66   A    
C22   C26   A    
C78   O27   D    
C70   C72   A    
O26   H39   S    
C18   C78   S    
N7    H29   S    
C32   C34   A    
C62   N2    A    
C25   C27   A    
