data_mof_unit_22481.cif
_audit_creation_date              2012-12-10T18:10:19-0500
_audit_creation_method            fapswitch 2.2
_symmetry_space_group_name_H-M    P1
_symmetry_Int_Tables_number       1
_space_group_crystal_system       triclinic
_cell_length_a                    10.726656
_cell_length_b                    9.576498
_cell_length_c                    15.851084
_cell_angle_alpha                 90.006963
_cell_angle_beta                  90.517909
_cell_angle_gamma                 90.0405
_cell_volume                      1628.21663724

loop_
_atom_site_label
_atom_site_type_symbol
_atom_type_description
_atom_site_fract_x
_atom_site_fract_y
_atom_site_fract_z
_atom_type_partial_charge
C1    C     C_R   0.260334 0.500154 0.499950 0.769397
C2    C     C_3   0.632902 0.543461 0.949987 -0.422907
C3    C     C_3   0.636098 0.545470 0.048697 -0.033673
C4    C     C_1   0.500905 0.500377 0.824596 -0.048011
C5    C     C_1   0.500748 0.500266 0.175868 -0.069942
C6    C     C_1   0.499793 0.499988 0.251333 -0.098535
C7    C     C_3   0.072370 0.422899 0.579949 -0.164878
C8    C     C_3   0.069744 0.422726 0.420428 -0.188571
C9    C     C_3   0.927798 0.424400 0.579804 -0.397061
C10   C     C_3   0.925318 0.425881 0.420185 -0.397519
C11   C     C_3   0.070695 0.653147 0.500133 -0.373402
C12   C     C_3   0.121733 0.500660 0.500084 0.054462
C13   C     C_3   0.877443 0.500768 0.500265 0.106532
C14   C     C_R   0.499500 0.499986 0.340770 0.849784
C15   C     C_3   0.928154 0.652812 0.500748 -0.379302
C16   C     C_3   0.617580 0.083658 0.540666 -0.088564
C17   C     C_3   0.617730 0.916552 0.540429 -0.089905
C18   C     C_3   0.394774 0.082586 0.550965 -0.243388
C19   C     C_3   0.394986 0.917325 0.551168 -0.241230
C20   C     C_3   0.491003 0.084938 0.413221 -0.026605
C21   C     C_3   0.490736 0.914978 0.413230 -0.032205
C22   C     C_R   0.739449 0.500236 0.500208 0.778359
C23   C     C_R   0.499739 0.500015 0.659397 0.841897
C24   C     C_3   0.399573 0.602219 0.047833 -0.199973
C25   C     C_3   0.465613 0.352968 0.048203 -0.204729
C26   C     C_3   0.471254 0.352751 0.950269 -0.405655
C27   C     C_3   0.405132 0.606996 0.949942 -0.407999
C28   C     C_1   0.500199 0.500116 0.749020 -0.118093
C29   C     C_3   0.503179 0.501111 0.083183 0.134559
C30   C     C_3   0.502119 0.500780 0.916811 0.238873
Cu1   Cu    Cu3+1 0.499860 0.642410 0.500040 0.943624
Cu2   Cu    Cu3+1 0.499860 0.357590 0.500040 0.939636
H1    H     H_    0.105999 0.711358 0.556247 0.174759
H2    H     H_    0.103239 0.710693 0.443514 0.197517
H3    H     H_    0.895346 0.709126 0.557866 0.175825
H4    H     H_    0.892822 0.710683 0.444479 0.188905
H5    H     H_    0.699291 0.116749 0.503088 0.104593
H6    H     H_    0.699187 0.884128 0.502453 0.102908
H7    H     H_    0.303823 0.119678 0.525646 0.152050
H8    H     H_    0.303963 0.879737 0.526223 0.152287
H9    H     H_    0.657552 0.647602 0.923410 0.176464
H10   H     H_    0.703311 0.469487 0.924348 0.173873
H11   H     H_    0.103811 0.312185 0.577842 0.123075
H12   H     H_    0.099806 0.311669 0.423370 0.152903
H13   H     H_    0.893118 0.314806 0.580644 0.163435
H14   H     H_    0.889605 0.316727 0.418170 0.179242
N1    N     N_3   0.500250 0.143650 0.501830 -0.180579
N2    N     N_3   0.500250 0.856350 0.501830 -0.181821
O1    O     O_R   0.317570 0.620260 0.500050 -0.591405
O2    O     O_R   0.317570 0.379740 0.500050 -0.602042
O3    O     O_R   0.499890 0.620310 0.379470 -0.580256
O4    O     O_R   0.499890 0.379690 0.379470 -0.581343
O5    O     O_R   0.682190 0.620260 0.500020 -0.598167
O6    O     O_R   0.682190 0.379740 0.500020 -0.597125
O7    O     O_R   0.499870 0.620210 0.620600 -0.572459
O8    O     O_R   0.499870 0.379790 0.620600 -0.575509
H15   H     H_    0.311299 0.582042 0.923331 0.181074
H16   H     H_    0.379678 0.317819 0.924182 0.172984
H17   H     H_    0.890540 0.476144 0.637305 0.172258
H18   H     H_    0.887340 0.479628 0.363115 0.179594
C31   C     C_1   0.645247 0.143544 0.624959 0.290505
N3    N     N_1   0.668567 0.188391 0.691084 -0.301981
C32   C     C_1   0.646253 0.856079 0.624413 0.291169
N4    N     N_1   0.670285 0.810755 0.690290 -0.300212
H19   H     H_    0.398046 0.121116 0.617087 0.166192
H20   H     H_    0.398825 0.879277 0.617376 0.168665
C33   C     C_1   0.377061 0.140568 0.370616 0.289002
N5    N     N_1   0.288652 0.182929 0.336957 -0.297323
C34   C     C_1   0.376366 0.859215 0.371053 0.294413
N6    N     N_1   0.287553 0.816626 0.337907 -0.274483
C35   C     C_1   0.596766 0.138428 0.361453 0.271186
N7    N     N_1   0.678991 0.178900 0.321340 -0.266218
C36   C     C_1   0.596130 0.861522 0.361165 0.274535
N8    N     N_1   0.678103 0.821095 0.320840 -0.267397
H21   H     H_    0.306675 0.559835 0.065467 0.152696
H22   H     H_    0.367477 0.331111 0.066401 0.150189
C37   C     C_1   0.538335 0.236020 0.084347 0.288216
N9    N     N_1   0.594703 0.144039 0.112712 -0.204211
C38   C     C_1   0.402736 0.744275 0.084283 0.290012
N10   N     N_1   0.404556 0.855419 0.112972 -0.239540
H23   H     H_    0.542493 0.277596 0.927107 0.185258
H24   H     H_    0.429860 0.713482 0.927137 0.181001
C39   C     C_1   0.673005 0.686069 0.078450 0.241445
N11   N     N_1   0.702593 0.795900 0.101714 -0.213503
C40   C     C_1   0.735804 0.451492 0.079720 0.237503
N12   N     N_1   0.814305 0.378578 0.104049 -0.239658
C41   C     C_1   0.122565 0.482623 0.659325 0.223357
N13   N     N_1   0.162016 0.529351 0.721393 -0.305990
C42   C     C_1   0.118658 0.480399 0.340752 0.287639
N14   N     N_1   0.157032 0.525213 0.278346 -0.260485

loop_
_geom_bond_atom_site_label_1
_geom_bond_atom_site_label_2
_ccdc_geom_bond_type
C41   N13   T    
C9    H13   S    
C3    C40   S    
C36   N8    T    
C20   C33   S    
C17   N2    S    
C18   N1    S    
C23   O8    A    
C22   O6    A    
Cu1   Cu2   S    
C37   N9    T    
C18   H19   S    
C25   C37   S    
C5    C6    T    
C2    H9    S    
C21   C36   S    
C19   H20   S    
C18   C19   S    
C15   H3    S    
C3    C29   S    
C9    C13   S    
C24   C29   S    
Cu2   O4    S    
C11   C15   S    
C7    C41   S    
C14   O3    A    
C16   C17   S    
C10   H14   S    
C24   C27   S    
C20   C35   S    
C7    H11   S    
C1    O2    A    
C16   H5    S    
C21   N2    S    
C27   C30   S    
C31   N3    T    
C1    C12   S    
Cu1   O1    S    
C16   N1    S    
Cu2   O6    S    
C4    C28   T    
C22   O5    A    
C5    C29   S    
C27   H24   S    
C25   C29   S    
C7    C12   S    
C14   O4    A    
C33   N5    T    
C11   H1    S    
C27   H15   S    
C19   N2    S    
C25   C26   S    
C40   N12   T    
C38   N10   T    
C21   C34   S    
C9    H17   S    
C10   H18   S    
C18   H7    S    
C6    C14   S    
C24   C38   S    
C39   N11   T    
C8    C12   S    
C23   C28   S    
Cu1   O5    S    
C26   H16   S    
Cu2   O2    S    
C26   C30   S    
C26   H23   S    
Cu1   N2    S    
C13   C15   S    
C3    C39   S    
Cu2   N1    S    
C16   C31   S    
C15   H4    S    
C7    C9    S    
C11   H2    S    
C8    H12   S    
Cu1   O3    S    
C10   C13   S    
C11   C12   S    
C24   H21   S    
C23   O7    A    
C2    C30   S    
C25   H22   S    
C2    C3    S    
C35   N7    T    
C17   C32   S    
C2    H10   S    
C13   C22   S    
C17   H6    S    
C34   N6    T    
C20   N1    S    
C19   H8    S    
C32   N4    T    
C20   C21   S    
C8    C10   S    
C8    C42   S    
Cu1   O7    S    
C42   N14   T    
C1    O1    A    
Cu2   O8    S    
C4    C30   S    
