data_mof_unit_35108.cif
_audit_creation_date              2012-12-10T18:46:13-0500
_audit_creation_method            fapswitch 2.2
_symmetry_space_group_name_H-M    P1
_symmetry_Int_Tables_number       1
_space_group_crystal_system       triclinic
_cell_length_a                    9.889958
_cell_length_b                    10.638831
_cell_length_c                    13.382008
_cell_angle_alpha                 90.384022
_cell_angle_beta                  71.64245
_cell_angle_gamma                 89.201721
_cell_volume                      1336.14688905

loop_
_atom_site_label
_atom_site_type_symbol
_atom_type_description
_atom_site_fract_x
_atom_site_fract_y
_atom_site_fract_z
_atom_type_partial_charge
C1    C     C_R   0.499386 0.739625 0.499826 0.880742
C2    C     C_R   0.449146 0.537356 0.980351 0.090607
C3    C     C_R   0.489299 0.544785 0.869790 0.049601
C4    C     C_R   0.557255 0.535450 0.028784 -0.018118
C5    C     C_R   0.699696 0.505351 0.967616 0.139142
C6    C     C_R   0.739408 0.519419 0.858630 0.162289
C7    C     C_R   0.636228 0.560788 0.815267 -0.197849
C8    C     C_R   0.528570 0.559313 0.135933 0.086422
C9    C     C_R   0.757560 0.464481 0.126489 -0.249765
C10   C     C_R   0.383603 0.528249 0.818254 -0.103281
C11   C     C_R   0.613077 0.934093 0.434295 -0.164306
C12   C     C_R   0.423594 0.509067 0.703102 0.850666
C13   C     C_R   0.612290 0.062818 0.436114 -0.249037
C14   C     C_R   0.497526 0.127564 0.506452 -0.026772
C15   C     C_R   0.381355 0.064788 0.576281 0.194354
C16   C     C_R   0.382234 0.935044 0.571807 -0.184629
C17   C     C_R   0.497590 0.871753 0.501329 -0.045726
C18   C     C_R   0.950175 0.401142 0.456731 0.267149
C19   C     C_R   0.092393 0.401110 0.459039 -0.068530
C20   C     C_R   0.054677 0.602023 0.536229 -0.070082
C21   C     C_R   0.911200 0.602143 0.535976 -0.144640
C22   C     C_R   0.499167 0.260285 0.502838 0.887308
C23   C     C_R   0.577432 0.504098 0.298079 0.904520
C24   C     C_R   0.798538 0.467975 0.017820 -0.186155
C25   C     C_R   0.623254 0.511308 0.185313 -0.086431
C26   C     C_R   0.240249 0.517241 0.879014 -0.209067
C27   C     C_R   0.201433 0.513933 0.988204 -0.141900
C28   C     C_R   0.304754 0.519351 0.038256 -0.125242
H1    H     H_    0.831932 0.428607 0.164419 0.162046
H2    H     H_    0.699309 0.111828 0.381146 0.156424
H3    H     H_    0.295171 0.882970 0.624119 0.137288
H4    H     H_    0.163612 0.322437 0.426557 0.143846
H5    H     H_    0.094190 0.683030 0.566904 0.143433
H6    H     H_    0.843237 0.683217 0.566514 0.147377
H7    H     H_    0.906017 0.438808 0.974444 0.147583
H8    H     H_    0.158772 0.505015 0.841902 0.158980
H9    H     H_    0.271192 0.503096 0.122090 0.161625
H10   H     H_    0.091457 0.501177 0.034590 0.142975
H11   H     H_    0.674919 0.602806 0.738813 0.185720
H12   H     H_    0.701742 0.883168 0.379578 0.160635
N1    N     N_R   0.142790 0.500030 0.500030 -0.093097
N2    N     N_R   0.857180 0.499940 0.500010 -0.081886
O1    O     O_R   0.385370 0.683250 0.500010 -0.608864
O2    O     O_R   0.614700 0.683220 0.500010 -0.631690
O3    O     O_R   0.328400 0.499990 0.653620 -0.615487
O4    O     O_R   0.557730 0.499960 0.653620 -0.621424
O5    O     O_R   0.385300 0.316780 0.499990 -0.622064
O6    O     O_R   0.614630 0.316750 0.499990 -0.621259
O7    O     O_R   0.442270 0.500040 0.346380 -0.587269
O8    O     O_R   0.671600 0.500010 0.346380 -0.628563
Zn1   Zn    Zn3+2 0.346870 0.500020 0.500000 0.961549
Zn2   Zn    Zn3+2 0.653130 0.499980 0.500000 0.942525
C29   C     C_3   0.259587 0.132999 0.656663 -0.885587
H13   H     H_    0.301703 0.199950 0.703171 0.236347
H14   H     H_    0.193248 0.184703 0.616827 0.257323
H15   H     H_    0.189145 0.066802 0.712622 0.230358
C30   C     C_3   0.907175 0.292115 0.402960 -0.875401
H16   H     H_    0.001677 0.242188 0.348837 0.203178
H17   H     H_    0.850112 0.223524 0.462884 0.252471
H18   H     H_    0.842274 0.324490 0.353877 0.265987
C31   C     C_3   0.889363 0.495274 0.787779 -0.927206
H19   H     H_    0.890844 0.483138 0.705708 0.256099
H20   H     H_    0.958354 0.574364 0.793889 0.239683
H21   H     H_    0.932425 0.404969 0.806866 0.236287
I1    I     I_    0.378977 0.707203 0.211451 -0.371211

loop_
_geom_bond_atom_site_label_1
_geom_bond_atom_site_label_2
_ccdc_geom_bond_type
C31   H21   S    
C22   O6    A    
C9    C24   A    
C6    C7    A    
O5    Zn1   S    
C20   H5    S    
C18   C30   S    
O8    Zn2   S    
C9    H1    S    
C4    C8    A    
O1    Zn1   S    
C10   C26   A    
C11   H12   S    
C18   N2    A    
C2    C3    A    
C30   H16   S    
C9    C25   A    
C8    I1    S    
C3    C10   A    
C29   H13   S    
C16   H3    S    
C8    C25   A    
C11   C13   A    
O2    Zn2   S    
C26   C27   A    
C5    C6    A    
C5    C24   A    
C10   C12   S    
C28   H9    S    
C19   H4    S    
C15   C29   S    
C6    C31   S    
C26   H8    S    
N1    Zn1   S    
C20   N1    A    
C3    C7    A    
C29   H14   S    
C31   H19   S    
C22   O5    A    
C30   H17   S    
C24   H7    S    
C23   O7    A    
O3    Zn1   S    
C27   H10   S    
C15   C16   A    
C2    C4    A    
O4    Zn2   S    
C13   H2    S    
O6    Zn2   S    
C23   C25   S    
C20   C21   A    
C14   C22   S    
C18   C19   A    
C29   H15   S    
C19   N1    A    
C27   C28   A    
C31   H20   S    
C7    H11   S    
C14   C15   A    
C16   C17   A    
C30   H18   S    
C2    C28   A    
C21   H6    S    
C1    O2    A    
O7    Zn1   S    
C13   C14   A    
C4    C5    A    
C1    C17   S    
C1    O1    A    
C11   C17   A    
C21   N2    A    
N2    Zn2   S    
C12   O3    A    
C23   O8    A    
C12   O4    A    
