data_mof_unit_51335.cif
_audit_creation_date              2012-10-26T21:18:31-0400
_audit_creation_method            fapswitch 2.2
_symmetry_space_group_name_H-M    P1
_symmetry_Int_Tables_number       1
_space_group_crystal_system       triclinic
_cell_length_a                    10.45921
_cell_length_b                    11.728091
_cell_length_c                    16.968399
_cell_angle_alpha                 90.000056
_cell_angle_beta                  85.618365
_cell_angle_gamma                 90.0
_cell_volume                      2075.37176073

loop_
_atom_site_label
_atom_site_type_symbol
_atom_type_description
_atom_site_fract_x
_atom_site_fract_y
_atom_site_fract_z
_atom_type_partial_charge
C1    C     C_R   0.500000 0.716700 0.500000 0.599017
C2    C     C_R   0.517018 0.498644 0.348530 0.580232
C3    C     C_R   0.472120 0.474080 0.736637 -0.082175
C4    C     C_R   0.527880 0.474080 0.263363 -0.082175
C5    C     C_R   0.553420 0.390366 0.762688 -0.130750
C6    C     C_R   0.446579 0.390366 0.237311 -0.130750
C7    C     C_R   0.541562 0.350179 0.839897 0.225037
C8    C     C_R   0.458438 0.350179 0.160103 0.225037
C9    C     C_R   0.444277 0.395854 0.894051 -0.041922
C10   C     C_R   0.555723 0.395854 0.105948 -0.041923
C11   C     C_R   0.350218 0.469927 0.865035 0.145065
C12   C     C_R   0.500000 0.283292 0.500000 0.536908
C13   C     C_R   0.649783 0.469926 0.134965 0.145063
C14   C     C_R   0.372809 0.518727 0.788513 0.181666
C15   C     C_R   0.627191 0.518726 0.211487 0.181667
C16   C     C_2   0.445738 0.379565 0.981295 -0.010722
C17   C     C_2   0.554263 0.379565 0.018704 -0.010724
C18   C     C_1   0.500000 0.838050 0.500000 0.060416
C19   C     C_1   0.500000 0.161929 0.500000 0.028009
C20   C     C_1   0.500000 0.940260 0.500000 0.026402
C21   C     C_1   0.500000 0.059714 0.500000 0.018159
C22   C     C_1   0.927964 0.500012 0.499993 0.170770
C23   C     C_1   0.072036 0.500012 0.500007 0.170770
C24   C     C_R   0.482982 0.498644 0.651470 0.580232
Cu1   Cu    Cu3+1 0.374700 0.500000 0.500000 1.107855
Cu2   Cu    Cu3+1 0.625300 0.500000 0.500000 1.107855
H1    H     H_    0.625964 0.353439 0.721251 0.188046
H2    H     H_    0.655709 0.104673 0.949537 0.397305
H3    H     H_    0.374036 0.353440 0.278748 0.188047
H4    H     H_    0.642468 0.388941 0.982461 0.233307
H5    H     H_    0.357532 0.388941 0.017538 0.233308
H6    H     H_    0.539462 0.743154 0.273481 0.344863
H7    H     H_    0.460540 0.743154 0.726519 0.344864
H8    H     H_    0.147380 0.313231 0.921073 0.361048
H9    H     H_    0.852613 0.313228 0.078926 0.361045
H10   H     H_    0.344291 0.104673 0.050463 0.397306
N1    N     N_1   0.813590 0.500000 0.499990 -0.167759
N2    N     N_1   0.186410 0.500000 0.500010 -0.167759
O1    O     O_R   0.394190 0.662800 0.500010 -0.467282
O2    O     O_2   0.748497 0.716495 0.169021 -0.166110
O3    O     O_3   0.614266 0.722859 0.303089 -0.509427
O4    O     O_2   0.173593 0.610070 0.719925 -0.186269
O5    O     O_2   0.251505 0.716497 0.830980 -0.166110
O6    O     O_3   0.385736 0.722859 0.696911 -0.509427
O7    O     O_2   0.218575 0.578458 0.984883 -0.171152
O8    O     O_2   0.096498 0.530732 0.871947 -0.131178
O9    O     O_3   0.151161 0.368284 0.965101 -0.436393
O10   O     O_2   0.781427 0.578457 0.015118 -0.171152
O11   O     O_2   0.903503 0.530729 0.128053 -0.131176
O12   O     O_R   0.605810 0.337200 0.499990 -0.499868
O13   O     O_3   0.848839 0.368282 0.034898 -0.436393
O14   O     O_2   0.341656 0.157566 0.210744 -0.244976
O15   O     O_2   0.226420 0.280458 0.124220 -0.218128
O16   O     O_3   0.414675 0.157153 0.061995 -0.454796
O17   O     O_2   0.658344 0.157565 0.789256 -0.244975
O18   O     O_2   0.773580 0.280458 0.875780 -0.218131
O19   O     O_3   0.585324 0.157152 0.938004 -0.454796
O20   O     O_R   0.605810 0.662800 0.499990 -0.467282
O21   O     O_R   0.394190 0.337200 0.500010 -0.499868
O22   O     O_R   0.381920 0.500000 0.613600 -0.437270
O23   O     O_R   0.618080 0.500000 0.386400 -0.437270
O24   O     O_R   0.593540 0.500000 0.613600 -0.506739
O25   O     O_R   0.406460 0.500000 0.386400 -0.506739
O26   O     O_2   0.826408 0.610068 0.280075 -0.186269
S1    S     S_3+6 0.709116 0.643975 0.239798 0.114568
S2    S     S_3+6 0.290885 0.643976 0.760202 0.114567
S3    S     S_3+6 0.200631 0.491271 0.921782 0.129339
S4    S     S_3+6 0.799370 0.491269 0.078219 0.129340
S5    S     S_3+6 0.356270 0.234449 0.139716 0.049361
S6    S     S_3+6 0.643729 0.234449 0.860284 0.049361

loop_
_geom_bond_atom_site_label_1
_geom_bond_atom_site_label_2
_ccdc_geom_bond_type
O7    S3    D    
C2    C4    S    
H6    O3    S    
C10   C13   A    
Cu2   N1    S    
O14   S5    D    
Cu1   O22   S    
C3    C14   A    
O19   S6    S    
C23   N2    T    
C9    C11   A    
O6    S2    S    
O3    S1    S    
C2    O23   A    
C24   O22   A    
O15   S5    D    
O26   S1    D    
C6    H3    S    
C7    S6    S    
C13   C15   A    
C14   S2    S    
C3    C5    A    
O8    S3    D    
H2    O19   S    
C1    O20   A    
Cu1   O1    S    
C16   H5    S    
H9    O13   S    
C17   H4    S    
Cu2   O20   S    
C1    C18   S    
O16   S5    S    
C4    C15   A    
O5    S2    D    
C6    C8    A    
C12   C19   S    
C8    C10   A    
O11   S4    D    
Cu2   O23   S    
C11   S3    S    
C18   C20   T    
O13   S4    S    
Cu2   O12   S    
Cu2   O24   S    
O2    S1    D    
Cu1   N2    S    
C11   C14   A    
C12   O21   A    
O17   S6    D    
H10   O16   S    
C1    O1    A    
C10   C17   S    
C15   S1    S    
C7    C9    A    
O18   S6    D    
O4    S2    D    
C20   C21   S    
C4    C6    A    
Cu1   O25   S    
O9    S3    S    
C5    C7    A    
C8    S5    S    
C2    O25   A    
C16   C17   D    
C24   O24   A    
H8    O9    S    
Cu1   O21   S    
C19   C21   T    
Cu1   Cu2   S    
C5    H1    S    
C22   N1    T    
C9    C16   S    
C22   C23   S    
O10   S4    D    
C3    C24   S    
C12   O12   A    
H7    O6    S    
C13   S4    S    
