data_mof_unit_18970.cif
_audit_creation_date              2012-12-11T14:06:28-0500
_audit_creation_method            fapswitch 2.2
_symmetry_space_group_name_H-M    P1
_symmetry_Int_Tables_number       1
_space_group_crystal_system       triclinic
_cell_length_a                    11.850173
_cell_length_b                    11.86501
_cell_length_c                    19.250343
_cell_angle_alpha                 89.230202
_cell_angle_beta                  90.352767
_cell_angle_gamma                 119.523111
_cell_volume                      2354.99304407

loop_
_atom_site_label
_atom_site_type_symbol
_atom_type_description
_atom_site_fract_x
_atom_site_fract_y
_atom_site_fract_z
_atom_type_partial_charge
C1    C     C_R   0.552710 0.475577 0.597241 0.541957
C2    C     C_R   0.410388 0.853010 0.136000 0.484150
C3    C     C_R   0.150617 0.557097 0.135169 0.527493
C4    C     C_R   0.484905 0.537530 0.107811 0.558094
C5    C     C_R   0.554429 0.475122 0.400460 0.591122
C6    C     C_R   0.517814 0.063709 0.409682 0.605365
C7    C     C_R   0.933091 0.453182 0.407720 0.541231
C8    C     C_1   0.033849 0.516405 0.859131 0.006426
C9    C     C_1   0.486306 0.520261 0.859283 0.014736
C10   C     C_1   0.432841 0.885453 0.847966 -0.001522
C11   C     C_1   0.995008 0.495207 0.726377 -0.025079
C12   C     C_R   0.522818 0.073468 0.596532 0.544552
C13   C     C_1   0.504487 0.498306 0.726622 -0.026234
C14   C     C_1   0.476414 0.959161 0.718490 -0.020720
C15   C     C_1   0.013587 0.508007 0.798040 -0.031171
C16   C     C_1   0.493917 0.506934 0.798330 -0.028330
C17   C     C_1   0.452954 0.916465 0.787827 -0.027099
C18   C     C_1   0.971414 0.477777 0.665798 0.020378
C19   C     C_1   0.520592 0.490783 0.665971 0.016776
C20   C     C_1   0.497106 0.005087 0.661005 0.020762
C21   C     C_2   0.031412 0.519758 0.354877 -0.147399
C22   C     C_2   0.523267 0.487831 0.327185 0.014800
C23   C     C_R   0.923481 0.446718 0.597179 0.541062
C24   C     C_2   0.476352 0.961698 0.357904 -0.000811
C25   C     C_2   0.091802 0.524475 0.203955 -0.060305
C26   C     C_2   0.516217 0.479848 0.168548 0.026369
C27   C     C_2   0.442178 0.912196 0.204961 0.019019
C28   C     C_2   0.166714 0.531827 0.259647 -0.057398
C29   C     C_2   0.622147 0.554241 0.208095 -0.021726
C30   C     C_2   0.343091 0.887772 0.250355 -0.023991
C31   C     C_2   0.310543 0.597726 0.255676 0.211836
C32   C     C_2   0.751272 0.630516 0.173525 0.289124
C33   C     C_2   0.207705 0.836457 0.224465 0.215566
C34   C     C_2   0.106404 0.476462 0.327493 0.018567
C35   C     C_2   0.129483 0.376237 0.361284 0.315172
C36   C     C_2   0.690603 0.716982 0.307992 0.261137
C37   C     C_2   0.243776 0.891398 0.368287 0.258611
C38   C     C_2   0.946282 0.454412 0.206742 0.264452
C39   C     C_2   0.433433 0.338658 0.181617 0.233532
C40   C     C_2   0.580660 0.010334 0.216109 0.252730
C41   C     C_2   0.610121 0.580768 0.283483 -0.049855
C42   C     C_2   0.360058 0.915539 0.326460 0.008819
C43   C     C_R   0.407932 0.850172 0.919533 0.558227
C44   C     C_R   0.074676 0.527748 0.929149 0.585127
C45   C     C_R   0.473037 0.548584 0.929063 0.554739
Cr1   Cr    Cr6+3 0.468420 0.238090 0.499960 1.092323
Cr2   Cr    Cr6+3 0.761910 0.230330 0.499960 1.063568
Cr3   Cr    Cr6+3 0.769670 0.531580 0.499960 1.085410
Cr4   Cr    Cr6+3 0.515700 0.760130 0.026360 1.062506
Cr5   Cr    Cr6+3 0.239870 0.755570 0.026360 1.111585
Cr6   Cr    Cr6+3 0.244430 0.484300 0.026360 1.040078
H1    H     H_    0.031456 0.603344 0.331267 0.085837
H2    H     H_    0.893315 0.395747 0.251232 0.131159
H3    H     H_    0.336866 0.287062 0.159414 0.141874
H4    H     H_    0.656625 0.991171 0.198995 0.119828
H5    H     H_    0.444364 0.400125 0.306686 0.162301
H6    H     H_    0.550640 0.943235 0.337768 0.133113
H7    H     H_    0.360424 0.622360 0.206292 0.075828
H8    H     H_    0.837358 0.689786 0.203913 0.096965
H9    H     H_    0.129672 0.749268 0.246671 0.063706
H10   H     H_    0.108698 0.352309 0.415951 0.131309
H11   H     H_    0.775003 0.786703 0.279197 0.082444
H12   H     H_    0.165899 0.902037 0.345023 0.121714
O1    O     O_R   0.434830 0.101190 0.575190 -0.491146
O2    O     O_R   0.664850 0.560590 0.424150 -0.465183
O3    O     O_R   0.484380 0.363570 0.430280 -0.491672
O4    O     O_R   0.636430 0.120810 0.430280 -0.487187
O5    O     O_R   0.879190 0.515620 0.430280 -0.485449
O6    O     O_3   0.666667 0.333333 0.499980 -0.296834
O7    O     O_R   0.548200 0.655360 0.951320 -0.500989
O8    O     O_R   0.344640 0.892840 0.951320 -0.477248
O9    O     O_R   0.107160 0.451800 0.951320 -0.491475
O10   O     O_R   0.505020 0.871000 0.955840 -0.466555
O11   O     O_R   0.129000 0.634020 0.955840 -0.506661
O12   O     O_R   0.898810 0.333640 0.575190 -0.511325
O13   O     O_R   0.365980 0.494980 0.955840 -0.505941
O14   O     O_R   0.543640 0.655270 0.102360 -0.495266
O15   O     O_R   0.344730 0.888370 0.102360 -0.412623
O16   O     O_R   0.111630 0.456360 0.102360 -0.450325
O17   O     O_R   0.500790 0.870920 0.095850 -0.485218
O18   O     O_R   0.129080 0.629870 0.095850 -0.437467
O19   O     O_R   0.370130 0.499210 0.095850 -0.553222
O20   O     O_2   0.375302 0.629600 0.308705 -0.483079
O21   O     O_2   0.764438 0.622608 0.111183 -0.431377
O22   O     O_2   0.180737 0.899980 0.184166 -0.440833
O23   O     O_R   0.666360 0.565170 0.575190 -0.494827
O24   O     O_2   0.174885 0.320891 0.328164 -0.500034
O25   O     O_2   0.658342 0.755698 0.358517 -0.450562
O26   O     O_2   0.232932 0.855873 0.428949 -0.484297
O27   O     O_2   0.883214 0.458542 0.157365 -0.402901
O28   O     O_2   0.474584 0.277588 0.214359 -0.434591
O29   O     O_2   0.610729 0.116202 0.240156 -0.448415
O30   O     O_3   0.333333 0.666667 0.026340 -0.320899
O31   O     O_R   0.480130 0.360720 0.570290 -0.500798
O32   O     O_R   0.639280 0.119410 0.570290 -0.501355
O33   O     O_R   0.880590 0.519870 0.570290 -0.491423
O34   O     O_R   0.439410 0.104260 0.424150 -0.466558
O35   O     O_R   0.895740 0.335150 0.424150 -0.518099

loop_
_geom_bond_atom_site_label_1
_geom_bond_atom_site_label_2
_ccdc_geom_bond_type
C43   O10   A    
C11   C18   T    
C9    C45   S    
C7    O35   A    
C24   C42   D    
Cr3   O6    S    
C3    O16   A    
C36   O25   D    
C25   C28   D    
Cr2   O35   S    
C45   O13   A    
C31   H7    S    
C9    C16   T    
Cr1   O3    S    
C29   C32   S    
Cr5   O11   S    
C12   O1    A    
C26   C39   S    
C22   C41   D    
C10   C17   T    
C31   O20   D    
C23   O33   A    
C34   C35   S    
C39   O28   D    
C37   C42   S    
C33   O22   D    
Cr2   O6    S    
Cr1   O6    S    
C7    O5    A    
C11   C15   S    
C5    C22   S    
C1    O31   A    
C3    O18   A    
C12   O32   A    
C2    C27   S    
Cr3   O2    S    
C10   C43   S    
C28   C34   S    
C27   C30   D    
C14   C17   S    
C36   C41   S    
C35   O24   D    
C36   H11   S    
Cr5   O15   S    
Cr2   O4    S    
C37   H12   S    
C32   O21   D    
C1    C19   S    
C13   C19   T    
C18   C23   S    
C6    O34   A    
C14   C20   T    
C3    C25   S    
Cr6   O13   S    
C5    O2    A    
C24   H6    S    
C22   H5    S    
C21   C34   D    
C7    C21   S    
C40   O29   D    
Cr1   O1    S    
Cr5   O8    S    
C2    O15   A    
C25   C38   S    
Cr1   O31   S    
C27   C40   S    
C40   H4    S    
C6    C24   S    
C12   C20   S    
C35   H10   S    
Cr3   O5    S    
C44   O11   A    
Cr6   O19   S    
Cr6   O30   S    
C6    O4    A    
Cr1   O34   S    
C8    C15   T    
Cr4   O7    S    
Cr4   O10   S    
Cr6   O9    S    
C1    O23   A    
C43   O8    A    
Cr3   O33   S    
C30   C33   S    
C29   C41   S    
C45   O7    A    
C28   C31   S    
C8    C44   S    
C23   O12   A    
C5    O3    A    
C4    C26   S    
Cr5   O30   S    
C33   H9    S    
C38   O27   D    
Cr4   O17   S    
C37   O26   D    
Cr2   O12   S    
C4    O14   A    
C38   H2    S    
Cr4   O14   S    
C44   O9    A    
Cr3   O23   S    
Cr6   O16   S    
C2    O17   A    
C39   H3    S    
C4    O19   A    
C26   C29   D    
C13   C16   S    
Cr2   O32   S    
C30   C42   S    
C32   H8    S    
Cr4   O30   S    
C21   H1    S    
Cr5   O18   S    
