data_mof_unit_21892.cif
_audit_creation_date              2012-12-11T15:23:35-0500
_audit_creation_method            fapswitch 2.2
_symmetry_space_group_name_H-M    P1
_symmetry_Int_Tables_number       1
_space_group_crystal_system       triclinic
_cell_length_a                    6.92499
_cell_length_b                    17.601014
_cell_length_c                    19.234427
_cell_angle_alpha                 109.511723
_cell_angle_beta                  90.153867
_cell_angle_gamma                 90.898016
_cell_volume                      2209.44139097

loop_
_atom_site_label
_atom_site_type_symbol
_atom_type_description
_atom_site_fract_x
_atom_site_fract_y
_atom_site_fract_z
_atom_type_partial_charge
O1    O     O_R   0.505810 0.439670 0.562310 -0.544241
O2    O     O_R   0.169070 0.404920 0.411210 -0.544460
O3    O     O_R   0.005550 0.560330 0.437690 -0.519429
C1    C     C_R   0.337965 0.381651 0.382742 0.690087
O4    O     O_R   0.175650 0.430000 0.560110 -0.545952
O5    O     O_R   0.012170 0.585580 0.587650 -0.544940
C2    C     C_R   0.344267 0.415020 0.582004 0.695761
O6    O     O_R   0.499180 0.414420 0.412350 -0.539472
O7    O     O_3   0.341430 0.551020 0.508860 -0.356168
V1    V     V_3+5 0.063930 0.490540 0.498360 1.427595
O8    O     O_R   0.682850 0.595080 0.588790 -0.530430
C3    C     C_R   0.853301 0.618626 0.616695 0.706621
O9    O     O_R   0.676280 0.570000 0.439890 -0.536492
C4    C     C_R   0.845710 0.584966 0.417969 0.735974
V2    V     V_3+5 0.564760 0.509460 0.501640 1.456138
O10   O     O_3   0.837130 0.448980 0.491140 -0.379290
C5    C     C_R   0.751510 0.872061 0.177741 -0.225681
C6    C     C_R   0.913685 0.867274 0.132430 -0.086751
C7    C     C_R   0.066284 0.816891 0.135854 -0.228856
C8    C     C_R   0.056600 0.770615 0.182619 0.097667
C9    C     C_R   0.894133 0.775738 0.228014 0.080861
C10   C     C_R   0.741811 0.827303 0.226054 0.089583
C11   C     C_R   0.206813 0.719078 0.184555 -0.213702
C12   C     C_R   0.196131 0.672512 0.230628 -0.155270
C13   C     C_R   0.033892 0.675838 0.275487 0.008069
C14   C     C_R   0.883400 0.728742 0.274956 -0.016392
C15   C     C_R   0.721262 0.734113 0.320498 0.083335
C16   C     C_R   0.572819 0.787176 0.319448 -0.158011
C17   C     C_R   0.582608 0.833090 0.272451 -0.195516
C18   C     C_R   0.017585 0.625425 0.318954 0.401080
C19   C     C_R   0.858361 0.633006 0.367217 -0.191277
C20   C     C_R   0.710527 0.686815 0.366550 -0.256257
H1    H     H_    0.191756 0.812708 0.101245 0.129656
H2    H     H_    0.587132 0.692351 0.402387 0.165284
C21   C     C_3   0.710259 0.765540 0.781962 -0.200684
C22   C     C_3   0.765808 0.769027 0.705601 0.476272
C23   C     C_3   0.869497 0.688696 0.687407 -0.052370
C24   C     C_3   0.817335 0.684540 0.763962 -0.203692
C25   C     C_3   0.007822 0.730932 0.796001 -0.108202
C26   C     C_3   0.060156 0.734307 0.718665 -0.167652
C27   C     C_3   0.954845 0.815726 0.736194 -0.236824
C28   C     C_3   0.901648 0.811279 0.812766 -0.057158
H3    H     H_    0.108848 0.715785 0.834134 0.107268
H4    H     H_    0.204234 0.720968 0.692604 0.146961
C29   C     C_3   0.384157 0.223456 0.307117 -0.118829
C30   C     C_3   0.243468 0.195557 0.240184 -0.162924
H5    H     H_    0.126298 0.149680 0.232849 0.119409
H6    H     H_    0.380963 0.201046 0.354633 0.105401
C31   C     C_3   0.416662 0.189053 0.187383 -0.097906
C32   C     C_3   0.556312 0.216600 0.253897 -0.185116
C33   C     C_3   0.527171 0.305568 0.258947 -0.122485
C34   C     C_3   0.385710 0.276928 0.192939 0.457408
C35   C     C_3   0.213206 0.284739 0.245323 -0.228636
C36   C     C_3   0.354611 0.311578 0.311491 -0.069277
H7    H     H_    0.643918 0.351562 0.265844 0.106583
C37   C     C_R   0.252182 0.129147 0.824005 -0.202090
C38   C     C_R   0.416752 0.134521 0.868625 -0.107154
C39   C     C_R   0.569100 0.187465 0.866092 -0.201812
C40   C     C_R   0.557657 0.235330 0.820199 -0.010417
C41   C     C_R   0.392413 0.228151 0.774783 -0.016924
C42   C     C_R   0.239702 0.174865 0.776801 0.145149
C43   C     C_R   0.706569 0.290911 0.819510 0.425288
C44   C     C_R   0.694206 0.334388 0.769903 -0.287125
C45   C     C_R   0.531619 0.327079 0.724553 0.029416
C46   C     C_R   0.379003 0.274501 0.727424 0.049894
C47   C     C_R   0.213202 0.267949 0.682658 0.108727
C48   C     C_R   0.063142 0.214440 0.685063 -0.178457
C49   C     C_R   0.076473 0.168194 0.731532 -0.125164
C50   C     C_R   0.519606 0.371787 0.676393 -0.191561
C51   C     C_R   0.354433 0.366375 0.632008 -0.084456
C52   C     C_R   0.200783 0.314678 0.636051 -0.233497
H8    H     H_    0.134148 0.088427 0.825270 0.118872
H9    H     H_    0.694857 0.192327 0.901049 0.168105
H10   H     H_    0.812425 0.373886 0.766520 0.141737
H11   H     H_    0.638195 0.411949 0.674373 0.120286
H12   H     H_    0.072988 0.309749 0.602037 0.127465
H13   H     H_    0.934937 0.208466 0.651097 0.124162
O11   O     O_R   0.271890 0.085690 0.087580 -0.546951
O12   O     O_R   0.595690 0.070020 0.939870 -0.542136
O13   O     O_R   0.758900 0.914390 0.912370 -0.541525
C53   C     C_R   0.427090 0.085078 0.917960 0.700929
O14   O     O_R   0.602020 0.095100 0.088770 -0.535911
O15   O     O_R   0.765280 0.939660 0.062330 -0.539873
C54   C     C_R   0.433449 0.117458 0.117713 0.680492
O16   O     O_R   0.265520 0.060430 0.937620 -0.541416
O17   O     O_3   0.429560 0.949050 0.991100 -0.368627
V3    V     V_3+5 0.707160 0.009450 0.001650 1.397903
O18   O     O_R   0.094540 0.929890 0.060190 -0.543650
C55   C     C_R   0.925210 0.915534 0.082368 0.710832
O19   O     O_R   0.088200 0.904800 0.911290 -0.541889
C56   C     C_R   0.917769 0.881384 0.883331 0.697087
V4    V     V_3+5 0.206300 0.990390 0.998440 1.384561
O20   O     O_3   0.934030 0.050940 0.008900 -0.369293
H14   H     H_    0.633931 0.911419 0.176139 0.125369
H15   H     H_    0.566451 0.778247 0.808329 0.113027
H16   H     H_    0.761619 0.630090 0.774767 0.112919
H17   H     H_    0.010674 0.869992 0.725088 0.105818
H18   H     H_    0.697942 0.189479 0.257659 0.118519
O21   O     O_3   0.401533 0.310819 0.136089 -0.563355
C57   C     C_3   0.266140 0.274202 0.079458 0.094854
H19   H     H_    0.116289 0.278156 0.100973 0.114535
H20   H     H_    0.301310 0.210405 0.050894 0.127923
C58   C     C_3   0.276583 0.315422 0.021599 -0.731429
H21   H     H_    0.426065 0.313303 0.000341 0.227428
H22   H     H_    0.178062 0.283542 0.975005 0.209035
H23   H     H_    0.233327 0.379253 0.045323 0.219358
H24   H     H_    0.070326 0.310684 0.241198 0.101537
O22   O     O_3   0.870417 0.296853 0.862979 -0.558480
C59   C     C_3   0.911030 0.377720 0.907521 0.089597
H25   H     H_    0.917918 0.380010 0.965860 0.139346
H26   H     H_    0.799251 0.421926 0.905399 0.101004
C60   C     C_3   0.107068 0.404715 0.887302 -0.728885
H27   H     H_    0.104587 0.406004 0.830062 0.216754
H28   H     H_    0.143933 0.466117 0.925487 0.176393
H29   H     H_    0.220790 0.362822 0.891643 0.233409
H30   H     H_    0.957963 0.127633 0.732537 0.113079
H31   H     H_    0.333062 0.714705 0.150343 0.135498
H32   H     H_    0.315854 0.633744 0.230799 0.175904
O23   O     O_3   0.160130 0.569495 0.313890 -0.562869
C61   C     C_3   0.091807 0.491363 0.271543 0.131673
H33   H     H_    0.949455 0.475762 0.290354 0.082273
H34   H     H_    0.196542 0.448151 0.279316 0.145963
C62   C     C_3   0.082230 0.478658 0.189065 -0.770400
H35   H     H_    0.226793 0.489274 0.168915 0.236845
H36   H     H_    0.034088 0.415867 0.159039 0.198278
H37   H     H_    0.975830 0.519267 0.177202 0.211700
H38   H     H_    0.447676 0.792448 0.354350 0.133301
H39   H     H_    0.464744 0.872710 0.272012 0.131341
O24   O     O_3   0.639129 0.784940 0.654721 -0.558533
C63   C     C_3   0.552417 0.860330 0.688035 0.085681
H40   H     H_    0.663412 0.909666 0.705136 0.112312
H41   H     H_    0.465881 0.860572 0.736787 0.112642
C64   C     C_3   0.416185 0.876930 0.632854 -0.705707
H42   H     H_    0.302060 0.829124 0.615460 0.222504
H43   H     H_    0.346754 0.936116 0.658605 0.171885
H44   H     H_    0.497595 0.878232 0.583578 0.224307

loop_
_geom_bond_atom_site_label_1
_geom_bond_atom_site_label_2
_ccdc_geom_bond_type
O15   V3    S    
C9    C14   A    
C37   C42   A    
C10   C17   A    
C27   C28   S    
O2    C1    A    
C21   C22   S    
C48   H13   S    
C4    C19   S    
C1    O6    A    
C2    C51   S    
O12   V3    S    
C38   C39   A    
C62   H35   S    
C29   C30   S    
C37   C38   A    
C30   C31   S    
C14   C15   A    
C23   C24   S    
C31   C54   S    
C9    C10   A    
C16   C17   A    
C6    C7    A    
C23   C26   S    
C59   H26   S    
O5    C3    A    
C52   H12   S    
C62   H36   S    
C43   O22   S    
C18   O23   S    
V2    O10   S    
O22   C59   S    
C28   C56   S    
C3    C23   S    
C21   C28   S    
C57   H19   S    
C27   H17   S    
O8    V2    S    
O18   V4    S    
C37   H8    S    
C64   H44   S    
C11   C12   A    
C51   C52   A    
O1    V2    S    
O7    V1    S    
C16   H38   S    
C47   C48   A    
C40   C41   A    
O9    C4    A    
C22   C27   S    
C60   H28   S    
C60   H27   S    
O16   V4    S    
C61   H34   S    
C32   C33   S    
C25   C28   S    
O15   C55   A    
C32   H18   S    
C33   C34   S    
C21   C24   S    
C12   C13   A    
C7    H1    S    
C59   C60   S    
C25   C26   S    
O12   C53   A    
O17   V3    S    
C62   H37   S    
C25   H3    S    
O11   V4    S    
C39   C40   A    
C35   C36   S    
C57   C58   S    
C48   C49   A    
C41   C42   A    
C20   H2    S    
C63   H41   S    
C11   H31   S    
C43   C44   A    
C35   H24   S    
O19   V4    S    
C47   C52   A    
C8    C11   A    
C18   C19   A    
O23   C61   S    
C31   C34   S    
C57   H20   S    
C5    C6    A    
C58   H22   S    
C45   C50   A    
C8    C9    A    
O3    C4    A    
C49   H30   S    
C26   C27   S    
C41   C46   A    
C31   C32   S    
O6    V2    S    
O14   C54   A    
O9    V2    S    
C64   H42   S    
C38   C53   S    
C63   C64   S    
O2    V1    S    
C58   H21   S    
C34   C35   S    
O4    C2    A    
O24   C63   S    
C29   H6    S    
C13   C18   A    
C30   H5    S    
C22   C23   S    
C40   C43   A    
C1    C36   S    
C15   C20   A    
O1    C2    A    
C6    C55   S    
C19   C20   A    
C29   C36   S    
O5    V1    S    
O8    C3    A    
C61   C62   S    
C44   H10   S    
C21   H15   S    
O13   V3    S    
C34   O21   S    
C12   H32   S    
C5    C10   A    
O21   C57   S    
C33   C36   S    
C45   C46   A    
C7    C8    A    
C63   H40   S    
C13   C14   A    
O4    V1    S    
O3    V1    S    
V1    O10   S    
C59   H25   S    
C42   C49   A    
O19   C56   A    
C24   C25   S    
C29   C32   S    
O13   C56   A    
V3    O20   S    
C30   C35   S    
V4    O20   S    
C50   H11   S    
C58   H23   S    
C33   H7    S    
O7    V2    S    
C50   C51   A    
C44   C45   A    
O11   C54   A    
C26   H4    S    
O18   C55   A    
C46   C47   A    
C17   H39   S    
C24   H16   S    
C15   C16   A    
C64   H43   S    
C61   H33   S    
O17   V4    S    
C5    H14   S    
C22   O24   S    
C60   H29   S    
C53   O16   A    
O14   V3    S    
C39   H9    S    
