data_mof_unit_66333.cif
_audit_creation_date              2013-03-05T15:45:50-0500
_audit_creation_method            fapswitch 2.2
_symmetry_space_group_name_H-M    P1
_symmetry_Int_Tables_number       1
_space_group_crystal_system       triclinic
_cell_length_a                    18.557732
_cell_length_b                    18.735255
_cell_length_c                    18.668956
_cell_angle_alpha                 109.140422
_cell_angle_beta                  109.439368
_cell_angle_gamma                 109.013478
_cell_volume                      5046.59373294

loop_
_atom_site_label
_atom_site_type_symbol
_atom_site_description
_atom_site_fract_x
_atom_site_fract_y
_atom_site_fract_z
_atom_type_partial_charge
O1    O     O_R   0.592050 0.539910 0.448690 -0.599980
O2    O     O_R   0.591210 0.643330 0.551330 -0.595432
C1    C     C_R   0.624108 0.620000 0.504155 0.883119
O3    O     O_R   0.408100 0.448300 0.356370 -0.620019
O4    O     O_R   0.407270 0.551720 0.459020 -0.621867
C2    C     C_R   0.381041 0.501921 0.379514 0.865607
Zn1   Zn    Zn3+2 0.500560 0.430950 0.431460 1.045015
Zn2   Zn    Zn3+2 0.499440 0.569050 0.568540 1.029752
O5    O     O_R   0.408790 0.356670 0.448670 -0.610072
O6    O     O_R   0.407950 0.460090 0.551310 -0.618985
O7    O     O_R   0.592730 0.448280 0.540980 -0.592960
O8    O     O_R   0.591900 0.551700 0.643630 -0.604783
C3    C     C_R   0.379377 0.380121 0.499841 0.858683
C4    C     C_R   0.621625 0.500142 0.620350 0.900644
C5    C     C_3   0.263661 0.550225 0.331389 -0.166570
C6    C     C_3   0.179121 0.467748 0.254831 0.247185
H1    H     H_    0.273168 0.589000 0.396546 0.184133
C7    C     C_3   0.191813 0.501699 0.193322 -0.040642
C8    C     C_3   0.275848 0.584391 0.268980 -0.153310
C9    C     C_3   0.328888 0.538203 0.252346 -0.140708
C10   C     C_3   0.243809 0.455740 0.175537 -0.187060
C11   C     C_3   0.231592 0.421530 0.237928 -0.213083
C12   C     C_3   0.315105 0.503812 0.313273 -0.048041
H2    H     H_    0.292170 0.650993 0.280221 0.172852
H3    H     H_    0.392098 0.567058 0.253434 0.147462
H4    H     H_    0.233522 0.416721 0.110059 0.157807
H5    H     H_    0.219812 0.356657 0.228450 0.176954
H6    H     H_    0.596013 0.691011 0.405306 0.139072
C13   C     C_R   0.816422 0.709080 0.635074 0.128986
C14   C     C_R   0.900862 0.719319 0.668937 -0.090905
H7    H     H_    0.927875 0.712602 0.725909 0.174303
C15   C     C_R   0.951915 0.741040 0.631430 -0.129495
H8    H     H_    0.016125 0.746200 0.655941 0.167534
C16   C     C_R   0.923236 0.763361 0.567369 -0.127222
H9    H     H_    0.965590 0.782427 0.541251 0.164706
C17   C     C_R   0.840676 0.759634 0.537181 0.089083
C18   C     C_R   0.781608 0.717367 0.559878 0.043940
C19   C     C_R   0.691810 0.687141 0.506498 -0.065099
C20   C     C_R   0.664893 0.713890 0.445760 -0.188253
H10   H     H_    0.705118 0.799407 0.398068 0.179284
C21   C     C_R   0.726688 0.773192 0.439579 -0.167678
C22   C     C_R   0.815271 0.798657 0.487143 -0.110910
C23   C     C_R   0.584117 0.465743 0.744111 -0.183078
H11   H     H_    0.530445 0.453878 0.687595 0.157678
C24   C     C_R   0.566618 0.459210 0.808479 -0.205302
H12   H     H_    0.502149 0.444441 0.800817 0.198792
C25   C     C_R   0.631921 0.474139 0.883331 0.204869
C26   C     C_R   0.715664 0.492582 0.893096 0.283221
C27   C     C_R   0.733924 0.494137 0.823816 -0.093021
C28   C     C_R   0.667427 0.485344 0.751357 0.056959
C29   C     C_R   0.683670 0.494129 0.685408 -0.148895
C30   C     C_R   0.757582 0.495284 0.680054 0.114895
C31   C     C_R   0.821230 0.496879 0.746869 0.128026
C32   C     C_R   0.812823 0.502210 0.820913 -0.192166
H13   H     H_    0.401493 0.339130 0.623973 0.161300
C33   C     C_R   0.198333 0.273559 0.354364 -0.270908
H14   H     H_    0.246536 0.296931 0.335559 0.172813
C34   C     C_R   0.109355 0.234143 0.293520 0.151852
C35   C     C_R   0.046283 0.210698 0.319365 0.346358
C36   C     C_R   0.072478 0.212323 0.399647 -0.155595
H15   H     H_    0.023997 0.196503 0.419794 0.206892
C37   C     C_R   0.158768 0.231246 0.451232 0.057914
C38   C     C_R   0.223724 0.274510 0.435155 0.073578
C39   C     C_R   0.311637 0.315110 0.499724 -0.099107
C40   C     C_R   0.334132 0.304911 0.573361 -0.260596
C41   C     C_R   0.270740 0.250341 0.582465 0.314404
C42   C     C_R   0.182513 0.207134 0.516957 -0.202502
O9    O     O_R   0.951420 0.539930 0.094700 -0.522051
O10   O     O_R   0.054880 0.643340 0.094680 -0.653017
C43   C     C_R   0.002720 0.619715 0.122951 0.945753
O11   O     O_R   0.044450 0.448300 0.096090 -0.597131
O12   O     O_R   0.147910 0.551710 0.096070 -0.629790
C44   C     C_R   0.124573 0.500592 0.125212 0.895878
Zn3   Zn    Zn3+2 0.934790 0.430970 0.003790 1.142079
Zn4   Zn    Zn3+2 0.072940 0.569060 0.003760 1.016431
O13   O     O_R   0.952850 0.356690 0.912870 -0.619505
O14   O     O_R   0.056310 0.460100 0.912850 -0.609206
O15   O     O_R   0.859820 0.448320 0.911480 -0.576713
O16   O     O_R   0.963280 0.551730 0.911460 -0.610920
C45   C     C_R   0.008362 0.380249 0.887773 0.871933
C46   C     C_R   0.882194 0.503988 0.887295 0.904361
O17   O     O_R   0.947150 0.091620 0.538830 -0.606325
O18   O     O_R   0.051390 0.091590 0.643040 -0.601549
C47   C     C_R   0.998103 0.119138 0.619257 0.877816
O19   O     O_R   0.856260 0.908400 0.447890 -0.619982
O20   O     O_R   0.960490 0.908380 0.552100 -0.643528
C48   C     C_R   0.880355 0.873693 0.494041 0.842963
Zn5   Zn    Zn3+2 0.930400 0.000020 0.430430 1.082396
Zn6   Zn    Zn3+2 0.069600 0.999990 0.569590 1.066835
O21   O     O_R   0.948610 0.908430 0.356980 -0.605990
O22   O     O_R   0.052850 0.908400 0.461190 -0.622634
O23   O     O_R   0.039510 0.091640 0.447910 -0.593127
O24   O     O_R   0.143740 0.091610 0.552120 -0.557605
C49   C     C_R   0.004688 0.883528 0.380788 0.948367
C50   C     C_R   0.118888 0.128673 0.508313 0.997162
C51   C     C_R   0.970999 0.748277 0.088565 -0.065059
H16   H     H_    0.954208 0.691210 0.032454 0.156614
C52   C     C_R   0.968019 0.816355 0.075848 -0.195569
H17   H     H_    0.950963 0.811459 0.012385 0.185706
C53   C     C_R   0.992228 0.892567 0.145823 -0.153970
H18   H     H_    0.997226 0.947628 0.136315 0.205942
C54   C     C_R   0.015497 0.899944 0.228587 0.336423
C55   C     C_R   0.006158 0.826151 0.239357 -0.024171
C56   C     C_R   0.992461 0.753054 0.170967 0.058162
C57   C     C_R   0.000644 0.686347 0.186499 -0.152808
C58   C     C_R   0.013490 0.687344 0.265394 0.308364
H19   H     H_    0.020276 0.752223 0.386736 0.188664
C59   C     C_R   0.014655 0.753472 0.327485 -0.256989
C60   C     C_R   0.010726 0.822003 0.315343 -0.131046
H20   H     H_    0.029566 0.386988 0.757321 0.207091
C61   C     C_R   0.006914 0.227640 0.900327 -0.192601
H21   H     H_    0.022991 0.280505 0.959809 0.164439
C62   C     C_R   0.994013 0.149751 0.899406 -0.133648
H22   H     H_    0.998087 0.143567 0.956044 0.194836
C63   C     C_R   0.976022 0.080169 0.825887 0.222911
C64   C     C_R   0.972985 0.088954 0.753786 -0.183387
H23   H     H_    0.957612 0.032824 0.697643 0.165663
C65   C     C_R   0.989980 0.168825 0.754895 0.039463
C66   C     C_R   0.002290 0.237287 0.827072 0.096857
C67   C     C_R   0.011984 0.314267 0.824599 -0.142785
C68   C     C_R   0.019013 0.326612 0.757106 -0.184690
C69   C     C_R   0.011796 0.261862 0.688437 0.156823
C70   C     C_R   0.996081 0.182542 0.686326 -0.132778
I1    I     I_    0.063782 0.415369 0.264099 -0.101107
I2    I     I_    0.772950 0.492318 0.569388 -0.234182
I3    I     I_    0.600102 0.471348 0.982129 -0.127882
N1    N     N_R   0.780527 0.516121 0.976492 0.187239
O25   O     O_R   0.773765 0.455976 0.998370 -0.323105
O26   O     O_R   0.816339 0.595033 0.037948 -0.435018
I4    I     I_    0.925153 0.480903 0.728530 -0.257506
I5    I     I_    0.072255 0.194072 0.160406 -0.287324
N2    N     N_R   0.955134 0.179005 0.262989 0.231073
O27   O     O_R   0.895062 0.126075 0.269647 -0.347218
O28   O     O_R   0.931680 0.209188 0.210987 -0.310416
N3    N     N_R   0.296360 0.243439 0.660511 0.220960
O29   O     O_R   0.371993 0.248501 0.699163 -0.364230
O30   O     O_R   0.250990 0.246377 0.700596 -0.369996
N4    N     N_R   0.028701 0.623660 0.284618 0.223163
O31   O     O_R   0.996662 0.595934 0.328435 -0.336594
O32   O     O_R   0.086959 0.605357 0.272491 -0.422318
N5    N     N_R   0.060710 0.984930 0.301507 0.196200
O33   O     O_R   0.042327 0.043418 0.291615 -0.398987
O34   O     O_R   0.134350 0.009496 0.367437 -0.416480
I6    I     I_    0.957773 0.962865 0.825146 -0.303286
I7    I     I_    0.031143 0.292409 0.593976 -0.281435
I8    I     I_    0.767445 0.720780 0.723325 -0.284336

loop_
_geom_bond_atom_site_label_1
_geom_bond_atom_site_label_2
_geom_bond_distance
_ccdc_geom_bond_type
C10   H4    1.110334 S    
C45   C67   1.440303 S    
C7    C10   1.532921 S    
C21   C22   1.399297 A    
C17   C22   1.417290 A    
C8    C9    1.548014 S    
N3    O29   1.301524 A    
C20   C21   1.380151 A    
C31   C32   1.417142 A    
C64   H23   1.080986 S    
C47   C70   1.437070 S    
C5    C8    1.545482 S    
C37   C38   1.401389 A    
Zn3   O13   2.015853 S    
C37   C42   1.427277 A    
C36   C37   1.413195 A    
C17   C18   1.404218 A    
C16   H9    1.081443 S    
N5    O34   1.301339 A    
H20   C68   1.081698 S    
O4    C2    1.274984 A    
O7    C4    1.270729 A    
O14   C45   1.282615 A    
C9    H3    1.110147 S    
O9    Zn3   2.027771 S    
C27   C32   1.443456 A    
C59   C60   1.395028 A    
C61   C66   1.415778 A    
C7    C8    1.533563 S    
C69   I7    2.125019 S    
O5    C3    1.277386 A    
C65   C66   1.408494 A    
C25   C26   1.409980 A    
C1    C19   1.435377 S    
C64   C65   1.416669 A    
N2    O27   1.301673 A    
C51   C52   1.386361 A    
H19   C59   1.084788 S    
O10   Zn4   2.015853 S    
C54   N5    1.428382 S    
Zn6   O22   2.023135 S    
C13   C14   1.399008 A    
C5    C12   1.531300 S    
C41   C42   1.409276 A    
C35   C36   1.399673 A    
O24   C50   1.301427 A    
C10   C11   1.545837 S    
C42   C50   1.472327 S    
C54   C55   1.425195 A    
O12   Zn4   2.019231 S    
C11   C12   1.525520 S    
C56   C57   1.414586 A    
H13   C40   1.077420 S    
O21   C49   1.281684 A    
O19   C48   1.290530 A    
O18   Zn6   2.020595 S    
C35   N2    1.439538 S    
C5    C6    1.539952 S    
C29   C30   1.401855 A    
Zn5   O23   2.020163 S    
O3    C2    1.279277 A    
C13   I8    2.116187 S    
O16   C46   1.293998 A    
O20   C48   1.282259 A    
H6    C20   1.084512 S    
O3    Zn1   2.018951 S    
C34   C35   1.405584 A    
C24   H12   1.082964 S    
O6    C3    1.283871 A    
O23   C50   1.279946 A    
C14   H7    1.082770 S    
C38   C39   1.405143 A    
C36   H15   1.078601 S    
O1    C1    1.291156 A    
C15   C16   1.392031 A    
Zn1   O7    2.021525 S    
C23   H11   1.075695 S    
N1    O26   1.297576 A    
C18   C19   1.414376 A    
O11   Zn3   2.021021 S    
C23   C24   1.376520 A    
O18   C47   1.277506 A    
C9    C12   1.530088 S    
C34   I5    2.124674 S    
Zn2   O8    2.018952 S    
C51   H16   1.081085 S    
C53   C54   1.403548 A    
C28   C29   1.407616 A    
C33   C38   1.414615 A    
C61   C62   1.392928 A    
C66   C67   1.412328 A    
Zn4   O14   2.027773 S    
C68   C69   1.375881 A    
N4    O32   1.300494 A    
N2    O28   1.300322 A    
H10   C21   1.083150 S    
O8    C4    1.287514 A    
C52   H17   1.082822 S    
C7    C44   1.443631 S    
C52   C53   1.383966 A    
C11   H5    1.102898 S    
C51   C56   1.418393 A    
C33   H14   1.081581 S    
N1    O25   1.302330 A    
C30   C31   1.387032 A    
C25   I3    2.126385 S    
O11   C44   1.276615 A    
C62   H22   1.081665 S    
O19   Zn5   2.017995 S    
N3    O30   1.301726 A    
C63   I6    2.106387 S    
C26   C27   1.448627 A    
C6    C11   1.540227 S    
C61   H21   1.081114 S    
O1    Zn1   2.025081 S    
Zn2   O6    2.025081 S    
O2    Zn2   2.013312 S    
O13   C45   1.279151 A    
Zn5   O21   2.020465 S    
O12   C44   1.276318 A    
O20   Zn6   2.019992 S    
O22   C49   1.282961 A    
O4    Zn2   2.021526 S    
C30   I2    2.163350 S    
C23   C28   1.414821 A    
C5    H1    1.110274 S    
C22   C48   1.457096 S    
C57   C58   1.404263 A    
C49   C60   1.444215 S    
O17   C47   1.282216 A    
C43   C57   1.434554 S    
C55   C60   1.422016 A    
C39   C40   1.393876 A    
C8    H2    1.110180 S    
C6    I1    2.136258 S    
N5    O33   1.298277 A    
C15   H8    1.082400 S    
C26   N1    1.422617 S    
C14   C15   1.389515 A    
O15   C46   1.271000 A    
C19   C20   1.394704 A    
C3    C39   1.436171 S    
C58   C59   1.379554 A    
O17   Zn5   2.023224 S    
C2    C12   1.441394 S    
C53   H18   1.083016 S    
C33   C34   1.403239 A    
O2    C1    1.272304 A    
C16   C17   1.414095 A    
C65   C70   1.418035 A    
C40   C41   1.386162 A    
Zn6   O24   2.018119 S    
O10   C43   1.274962 A    
C58   N4    1.436961 S    
N4    O31   1.301406 A    
C41   N3    1.438133 S    
Zn1   O5    2.013314 S    
C24   C25   1.376673 A    
C9    C10   1.544920 S    
C4    C29   1.434241 S    
C6    C7    1.529740 S    
C27   C28   1.410713 A    
Zn3   O15   2.019229 S    
C13   C18   1.420163 A    
C55   C56   1.407411 A    
O9    C43   1.280804 A    
C67   C68   1.392494 A    
C31   I4    2.162079 S    
C69   C70   1.402356 A    
Zn4   O16   2.021020 S    
C32   C46   1.441294 S    
C63   C64   1.393899 A    
C62   C63   1.390239 A    
