data_mof_unit_65300.cif
_audit_creation_date              2012-12-10T19:31:19-0500
_audit_creation_method            fapswitch 2.2
_symmetry_space_group_name_H-M    P1
_symmetry_Int_Tables_number       1
_space_group_crystal_system       triclinic
_cell_length_a                    30.575798
_cell_length_b                    29.146496
_cell_length_c                    30.659659
_cell_angle_alpha                 90.089572
_cell_angle_beta                  89.979767
_cell_angle_gamma                 89.509408
_cell_volume                      27322.1575753

loop_
_atom_site_label
_atom_site_type_symbol
_atom_type_description
_atom_site_fract_x
_atom_site_fract_y
_atom_site_fract_z
_atom_type_partial_charge
C1    C     C_R   0.309962 0.999510 0.690002 0.874777
C2    C     C_R   0.628491 0.031172 0.589974 -0.221294
C3    C     C_R   0.749952 0.085756 0.249916 0.879616
C4    C     C_R   0.250060 0.414244 0.250076 0.879741
C5    C     C_R   0.749905 0.585761 0.250101 0.879863
C6    C     C_R   0.750078 0.414239 0.249887 0.879615
C7    C     C_R   0.249952 0.585756 0.249916 0.879615
C8    C     C_R   0.124371 0.967683 0.905338 0.148883
C9    C     C_R   0.871795 0.028718 0.909518 0.147881
C10   C     C_R   0.624371 0.467682 0.905337 0.148886
C11   C     C_R   0.371794 0.528717 0.909519 0.147878
C12   C     C_R   0.624372 0.967684 0.405339 0.148880
C13   C     C_R   0.871220 0.469317 0.589550 -0.222310
C14   C     C_R   0.371795 0.028718 0.409518 0.147880
C15   C     C_R   0.124370 0.467682 0.405337 0.148886
C16   C     C_R   0.871794 0.528717 0.409519 0.147879
C17   C     C_3   0.155111 0.958649 0.942281 -0.507229
C18   C     C_3   0.839736 0.030946 0.946264 -0.523773
C19   C     C_3   0.655110 0.458647 0.942280 -0.507227
C20   C     C_3   0.339735 0.530942 0.946265 -0.523775
C21   C     C_3   0.655112 0.958652 0.442282 -0.507232
C22   C     C_3   0.339736 0.030946 0.446264 -0.523772
C23   C     C_3   0.155110 0.458647 0.442280 -0.507228
C24   C     C_R   0.128491 0.531172 0.589974 -0.221294
C25   C     C_3   0.839735 0.530942 0.446265 -0.523774
C26   C     C_3   0.191857 0.960125 0.909025 -0.462917
C27   C     C_3   0.803895 0.030236 0.912029 -0.456242
C28   C     C_3   0.691856 0.460123 0.909024 -0.462918
C29   C     C_3   0.303894 0.530232 0.912030 -0.456240
C30   C     C_3   0.691858 0.960128 0.409026 -0.462914
C31   C     C_3   0.303895 0.030236 0.412029 -0.456241
C32   C     C_3   0.191856 0.460122 0.409024 -0.462918
C33   C     C_3   0.803894 0.530231 0.412030 -0.456240
C34   C     C_R   0.939533 0.000064 0.939177 0.950296
C35   C     C_R   0.871221 0.969316 0.089551 -0.222310
C36   C     C_R   0.059618 0.999802 0.938306 0.966376
C37   C     C_R   0.439533 0.500064 0.939177 0.950296
C38   C     C_R   0.559618 0.499802 0.938306 0.966376
C39   C     C_R   0.439533 0.000064 0.439178 0.950297
C40   C     C_R   0.559618 0.999802 0.438306 0.966380
C41   C     C_R   0.939533 0.500064 0.439177 0.950296
C42   C     C_R   0.059618 0.499802 0.438306 0.966376
C43   C     C_R   0.439740 0.000224 0.561163 0.892645
C44   C     C_R   0.560266 0.999825 0.561164 0.893412
C45   C     C_R   0.939740 0.500224 0.561163 0.892646
C46   C     C_R   0.128491 0.031172 0.089973 -0.221294
C47   C     C_R   0.060266 0.499825 0.561164 0.893411
C48   C     C_R   0.939740 0.000224 0.061163 0.892646
C49   C     C_R   0.060266 0.999825 0.061164 0.893412
C50   C     C_R   0.439740 0.500224 0.061163 0.892646
C51   C     C_R   0.560266 0.499825 0.061164 0.893411
C52   C     C_R   0.189909 0.000691 0.809900 0.893875
C53   C     C_R   0.810134 0.999740 0.809907 0.887883
C54   C     C_R   0.689909 0.500691 0.809900 0.893874
C55   C     C_R   0.310134 0.499740 0.809907 0.887883
C56   C     C_R   0.689909 0.000691 0.309900 0.893876
C57   C     C_R   0.371220 0.469317 0.089550 -0.222311
C58   C     C_R   0.310134 0.999740 0.309907 0.887884
C59   C     C_R   0.189909 0.500691 0.309900 0.893876
C60   C     C_R   0.810134 0.499740 0.309907 0.887885
C61   C     C_1   0.250108 0.863425 0.750266 -0.200290
C62   C     C_1   0.749781 0.136582 0.750323 -0.201122
C63   C     C_1   0.750201 0.863419 0.749655 -0.202320
C64   C     C_1   0.249900 0.136574 0.749719 -0.198120
C65   C     C_1   0.750108 0.363425 0.750266 -0.200290
C66   C     C_1   0.249781 0.636582 0.750323 -0.201121
C67   C     C_1   0.250202 0.363419 0.749655 -0.202321
C68   C     C_R   0.628491 0.531172 0.089974 -0.221294
C69   C     C_1   0.749900 0.636574 0.749719 -0.198120
C70   C     C_1   0.750108 0.863425 0.250266 -0.200290
C71   C     C_1   0.249781 0.136581 0.250323 -0.201122
C72   C     C_1   0.250202 0.863419 0.249655 -0.202320
C73   C     C_1   0.749900 0.136574 0.249719 -0.198121
C74   C     C_1   0.250108 0.363425 0.250266 -0.200290
C75   C     C_1   0.749781 0.636582 0.250323 -0.201121
C76   C     C_1   0.750201 0.363419 0.249655 -0.202321
C77   C     C_1   0.249900 0.636574 0.249719 -0.198120
C78   C     C_1   0.250063 0.821121 0.750361 0.003925
C79   C     C_R   0.405039 0.001322 0.592037 -0.102281
C80   C     C_1   0.749792 0.178886 0.750409 0.003471
C81   C     C_1   0.750191 0.821114 0.749568 0.003126
C82   C     C_1   0.249940 0.178878 0.749621 0.005345
C83   C     C_1   0.750064 0.321121 0.750361 0.003925
C84   C     C_1   0.249792 0.678886 0.750409 0.003472
C85   C     C_1   0.250191 0.321114 0.749568 0.003126
C86   C     C_1   0.749940 0.678878 0.749621 0.005345
C87   C     C_1   0.750063 0.821121 0.250361 0.003925
C88   C     C_1   0.249792 0.178886 0.250409 0.003471
C89   C     C_1   0.250191 0.821114 0.249568 0.003126
C90   C     C_R   0.594944 0.998820 0.592074 -0.104107
C91   C     C_1   0.749940 0.178878 0.249621 0.005344
C92   C     C_1   0.250063 0.321121 0.250361 0.003925
C93   C     C_1   0.749792 0.678886 0.250409 0.003472
C94   C     C_1   0.750191 0.321114 0.249568 0.003126
C95   C     C_1   0.249940 0.678878 0.249621 0.005345
C96   C     C_1   0.249964 0.771156 0.750422 0.008062
C97   C     C_1   0.749875 0.228852 0.750438 0.007862
C98   C     C_1   0.750114 0.771148 0.749540 0.008207
C99   C     C_1   0.250031 0.228844 0.749557 0.008875
C100  C     C_1   0.749965 0.271156 0.750422 0.008062
C101  C     C_R   0.905038 0.501322 0.592037 -0.102282
C102  C     C_1   0.249875 0.728852 0.750438 0.007862
C103  C     C_1   0.250114 0.271148 0.749540 0.008207
C104  C     C_1   0.750031 0.728844 0.749557 0.008875
C105  C     C_1   0.749965 0.771156 0.250422 0.008062
C106  C     C_1   0.249875 0.228852 0.250438 0.007862
C107  C     C_1   0.250114 0.771148 0.249540 0.008207
C108  C     C_1   0.750031 0.228844 0.249557 0.008875
C109  C     C_1   0.249965 0.271156 0.250422 0.008062
C110  C     C_1   0.749875 0.728852 0.250438 0.007863
C111  C     C_1   0.750114 0.271148 0.249540 0.008207
C112  C     C_R   0.690036 0.000492 0.690005 0.876025
C113  C     C_R   0.094944 0.498820 0.592074 -0.104107
C114  C     C_1   0.250031 0.728844 0.249557 0.008875
C115  C     C_R   0.372807 0.035033 0.655766 0.107500
C116  C     C_R   0.627471 0.964776 0.655391 0.107460
C117  C     C_R   0.872807 0.535033 0.655766 0.107500
C118  C     C_R   0.127471 0.464777 0.655392 0.107460
C119  C     C_R   0.872806 0.035033 0.155766 0.107499
C120  C     C_R   0.127471 0.964777 0.155392 0.107460
C121  C     C_R   0.372807 0.535033 0.155766 0.107500
C122  C     C_R   0.627471 0.464777 0.155392 0.107460
C123  C     C_R   0.342113 0.000138 0.656604 -0.084523
C124  C     C_R   0.905038 0.001322 0.092037 -0.102282
C125  C     C_R   0.657882 0.999930 0.656626 -0.084467
C126  C     C_R   0.842113 0.500138 0.656604 -0.084523
C127  C     C_R   0.157882 0.499930 0.656626 -0.084467
C128  C     C_R   0.842113 0.000138 0.156604 -0.084522
C129  C     C_R   0.157882 0.999930 0.156626 -0.084468
C130  C     C_R   0.342113 0.500138 0.156604 -0.084523
C131  C     C_R   0.657882 0.499930 0.156626 -0.084468
C132  C     C_R   0.339146 0.969229 0.621674 -0.207781
C133  C     C_R   0.660574 0.031226 0.622078 -0.207963
C134  C     C_R   0.839146 0.469229 0.621674 -0.207782
C135  C     C_R   0.094944 0.998820 0.092074 -0.104105
C136  C     C_R   0.160574 0.531226 0.622078 -0.207963
C137  C     C_R   0.839146 0.969229 0.121674 -0.207782
C138  C     C_R   0.160575 0.031226 0.122077 -0.207963
C139  C     C_R   0.339146 0.469229 0.121674 -0.207780
C140  C     C_R   0.660575 0.531226 0.122078 -0.207962
C141  C     C_2   0.045711 0.057008 0.857479 0.958866
C142  C     C_2   0.956291 0.949739 0.856641 0.976252
C143  C     C_2   0.545712 0.557010 0.857480 0.958866
C144  C     C_2   0.456292 0.449742 0.856639 0.976248
C145  C     C_2   0.545710 0.057005 0.357477 0.958867
C146  C     C_R   0.405038 0.501322 0.092037 -0.102282
C147  C     C_2   0.456291 0.949739 0.356641 0.976252
C148  C     C_2   0.045712 0.557010 0.357480 0.958865
C149  C     C_2   0.956292 0.449743 0.356639 0.976249
C150  C     C_R   0.594944 0.498820 0.092074 -0.104107
C151  C     C_R   0.403794 0.035924 0.623385 0.140418
C152  C     C_R   0.596483 0.963932 0.623026 0.141801
C153  C     C_R   0.903794 0.535924 0.623385 0.140418
C154  C     C_R   0.096483 0.463932 0.623027 0.141800
C155  C     C_R   0.903794 0.035925 0.123385 0.140419
C156  C     C_R   0.809963 0.499510 0.690002 0.874777
C157  C     C_R   0.096482 0.963932 0.123027 0.141800
C158  C     C_R   0.403794 0.535925 0.123385 0.140418
C159  C     C_R   0.596483 0.463932 0.123027 0.141800
C160  C     C_3   0.438815 0.050986 0.654065 -0.501217
C161  C     C_3   0.561600 0.948258 0.653559 -0.500361
C162  C     C_3   0.938815 0.550986 0.654065 -0.501216
C163  C     C_3   0.061599 0.448258 0.653559 -0.500360
C164  C     C_3   0.938815 0.050987 0.154064 -0.501214
C165  C     C_3   0.061599 0.948259 0.153560 -0.500362
C166  C     C_3   0.438815 0.550987 0.154064 -0.501216
C167  C     C_R   0.190036 0.500492 0.690005 0.876025
C168  C     C_3   0.561599 0.448258 0.153559 -0.500360
C169  C     C_3   0.404559 0.049815 0.689891 -0.466576
C170  C     C_3   0.595857 0.949375 0.689366 -0.467794
C171  C     C_3   0.904559 0.549815 0.689891 -0.466575
C172  C     C_3   0.095857 0.449375 0.689366 -0.467792
C173  C     C_3   0.904558 0.049816 0.189890 -0.466577
C174  C     C_3   0.095856 0.949376 0.189367 -0.467792
C175  C     C_3   0.404559 0.549815 0.189890 -0.466575
C176  C     C_3   0.595857 0.449375 0.189367 -0.467791
C177  C     C_R   0.157509 0.968748 0.875335 0.127258
C178  C     C_R   0.809963 0.999510 0.190002 0.874776
C179  C     C_R   0.839425 0.028314 0.878625 0.128842
C180  C     C_R   0.657509 0.468748 0.875335 0.127256
C181  C     C_R   0.339424 0.528312 0.878626 0.128844
C182  C     C_R   0.657510 0.968749 0.375336 0.127260
C183  C     C_R   0.339425 0.028314 0.378625 0.128842
C184  C     C_R   0.157508 0.468748 0.375335 0.127256
C185  C     C_R   0.839424 0.528312 0.378626 0.128845
C186  C     C_R   0.156193 0.000561 0.841797 -0.126772
C187  C     C_R   0.843908 0.000878 0.841781 -0.112922
C188  C     C_R   0.656193 0.500561 0.841797 -0.126771
C189  C     C_R   0.190036 0.000492 0.190005 0.876025
C190  C     C_R   0.343908 0.500878 0.841781 -0.112925
C191  C     C_R   0.656193 0.000561 0.341797 -0.126774
C192  C     C_R   0.343908 0.000878 0.341781 -0.112922
C193  C     C_R   0.156193 0.500561 0.341797 -0.126771
C194  C     C_R   0.843908 0.500878 0.341781 -0.112925
C195  C     C_R   0.118602 0.027451 0.835069 -0.235714
C196  C     C_R   0.883601 0.978055 0.833410 -0.243169
C197  C     C_R   0.618603 0.527452 0.835070 -0.235713
C198  C     C_R   0.383602 0.478057 0.833409 -0.243167
C199  C     C_R   0.618602 0.027450 0.335069 -0.235713
C200  C     C_R   0.309962 0.499510 0.190002 0.874776
C201  C     C_R   0.383601 0.978055 0.333410 -0.243170
C202  C     C_R   0.118603 0.527452 0.335070 -0.235714
C203  C     C_R   0.883602 0.478057 0.333409 -0.243166
C204  C     C_R   0.084650 0.027177 0.865564 -0.049728
C205  C     C_R   0.916015 0.976872 0.865254 -0.132580
C206  C     C_R   0.584650 0.527178 0.865564 -0.049729
C207  C     C_R   0.416016 0.476873 0.865253 -0.132581
C208  C     C_R   0.584649 0.027176 0.365563 -0.049731
C209  C     C_R   0.416015 0.976872 0.365254 -0.132579
C210  C     C_R   0.084650 0.527178 0.365564 -0.049728
C211  C     C_R   0.690036 0.500492 0.190005 0.876025
C212  C     C_R   0.916016 0.476873 0.365253 -0.132581
C213  C     C_R   0.089568 0.998698 0.902739 -0.187369
C214  C     C_R   0.908523 0.000658 0.904739 -0.171749
C215  C     C_R   0.589568 0.498698 0.902739 -0.187370
C216  C     C_R   0.408523 0.500658 0.904739 -0.171749
C217  C     C_R   0.589568 0.998698 0.402739 -0.187369
C218  C     C_R   0.408523 0.000658 0.404739 -0.171748
C219  C     C_R   0.089568 0.498698 0.402739 -0.187370
C220  C     C_R   0.908523 0.500658 0.404739 -0.171750
C221  C     C_R   0.250060 0.914244 0.750076 0.879741
C222  C     C_R   0.371220 0.969317 0.589550 -0.222311
C223  C     C_R   0.749905 0.085761 0.750101 0.879862
C224  C     C_R   0.750078 0.914239 0.749887 0.879615
C225  C     C_R   0.249952 0.085756 0.749916 0.879616
C226  C     C_R   0.750060 0.414244 0.750076 0.879741
C227  C     C_R   0.249905 0.585761 0.750101 0.879862
C228  C     C_R   0.250078 0.414239 0.749887 0.879615
C229  C     C_R   0.749952 0.585756 0.749916 0.879616
C230  C     C_R   0.750060 0.914244 0.250076 0.879741
C231  C     C_R   0.249905 0.085761 0.250101 0.879862
C232  C     C_R   0.250078 0.914239 0.249887 0.879615
H1    H     H_    0.313544 0.943772 0.620543 0.155481
H2    H     H_    0.629150 0.056830 0.564452 0.159920
H3    H     H_    0.870355 0.443927 0.563720 0.157827
H4    H     H_    0.129150 0.556829 0.564452 0.159920
H5    H     H_    0.870356 0.943926 0.063720 0.157828
H6    H     H_    0.129151 0.056829 0.064451 0.159920
H7    H     H_    0.370356 0.443926 0.063720 0.157827
H8    H     H_    0.629150 0.556829 0.064452 0.159920
H9    H     H_    0.465156 0.024802 0.658152 0.191731
H10   H     H_    0.535054 0.974169 0.657983 0.191684
H11   H     H_    0.550336 0.913036 0.645725 0.211473
H12   H     H_    0.685967 0.056922 0.621240 0.155390
H13   H     H_    0.450359 0.086181 0.646639 0.211401
H14   H     H_    0.965156 0.524802 0.658152 0.191731
H15   H     H_    0.035054 0.474170 0.657983 0.191684
H16   H     H_    0.050335 0.413036 0.645726 0.211473
H17   H     H_    0.950359 0.586181 0.646639 0.211401
H18   H     H_    0.965156 0.024803 0.158151 0.191731
H19   H     H_    0.035054 0.974171 0.157984 0.191684
H20   H     H_    0.050334 0.913037 0.145727 0.211474
H21   H     H_    0.950357 0.086182 0.146638 0.211400
H22   H     H_    0.465156 0.524802 0.158152 0.191731
H23   H     H_    0.813544 0.443772 0.620543 0.155481
H24   H     H_    0.535054 0.474170 0.157983 0.191684
H25   H     H_    0.550335 0.413036 0.145726 0.211473
H26   H     H_    0.450358 0.586181 0.146639 0.211401
H27   H     H_    0.410952 0.022852 0.714769 0.217566
H28   H     H_    0.589260 0.976033 0.714572 0.217757
H29   H     H_    0.604312 0.914802 0.702268 0.204009
H30   H     H_    0.396387 0.084328 0.703215 0.203844
H31   H     H_    0.910952 0.522851 0.714769 0.217565
H32   H     H_    0.089260 0.476034 0.714572 0.217757
H33   H     H_    0.104311 0.414803 0.702268 0.204009
H34   H     H_    0.185967 0.556922 0.621240 0.155391
H35   H     H_    0.896387 0.584328 0.703215 0.203843
H36   H     H_    0.910951 0.022853 0.214769 0.217566
H37   H     H_    0.089260 0.976035 0.214573 0.217757
H38   H     H_    0.104310 0.914804 0.202269 0.204009
H39   H     H_    0.896386 0.084329 0.203213 0.203843
H40   H     H_    0.410952 0.522852 0.214769 0.217565
H41   H     H_    0.589260 0.476034 0.214572 0.217756
H42   H     H_    0.604311 0.414803 0.202269 0.204008
H43   H     H_    0.396386 0.584328 0.203214 0.203843
H44   H     H_    0.116471 0.049463 0.806653 0.200214
H45   H     H_    0.813545 0.943771 0.120544 0.155481
H46   H     H_    0.888235 0.958874 0.803386 0.172641
H47   H     H_    0.616471 0.549465 0.806653 0.200214
H48   H     H_    0.388237 0.458877 0.803385 0.172643
H49   H     H_    0.616470 0.049461 0.306651 0.200218
H50   H     H_    0.388235 0.958874 0.303386 0.172641
H51   H     H_    0.116472 0.549465 0.306654 0.200214
H52   H     H_    0.888237 0.458877 0.303385 0.172644
H53   H     H_    0.156022 0.987324 0.966246 0.196939
H54   H     H_    0.840589 0.999727 0.967088 0.198597
H55   H     H_    0.841470 0.063999 0.964292 0.214421
H56   H     H_    0.185968 0.056921 0.121240 0.155391
H57   H     H_    0.150407 0.924052 0.956658 0.215543
H58   H     H_    0.656022 0.487321 0.966246 0.196939
H59   H     H_    0.340589 0.499722 0.967088 0.198597
H60   H     H_    0.341468 0.563994 0.964294 0.214421
H61   H     H_    0.650405 0.424050 0.956656 0.215543
H62   H     H_    0.656022 0.987328 0.466246 0.196939
H63   H     H_    0.340589 0.999727 0.467088 0.198596
H64   H     H_    0.341470 0.063999 0.464292 0.214421
H65   H     H_    0.650408 0.924056 0.456660 0.215542
H66   H     H_    0.156022 0.487321 0.466246 0.196939
H67   H     H_    0.313544 0.443771 0.120543 0.155481
H68   H     H_    0.840589 0.499722 0.467088 0.198597
H69   H     H_    0.841467 0.563994 0.464294 0.214421
H70   H     H_    0.150405 0.424050 0.456656 0.215543
H71   H     H_    0.214066 0.989780 0.913537 0.215630
H72   H     H_    0.783988 0.998489 0.912847 0.214145
H73   H     H_    0.784827 0.062829 0.910396 0.205696
H74   H     H_    0.208490 0.926417 0.904329 0.205848
H75   H     H_    0.714066 0.489777 0.913537 0.215630
H76   H     H_    0.283988 0.498484 0.912846 0.214144
H77   H     H_    0.284825 0.562824 0.910398 0.205696
H78   H     H_    0.685967 0.556922 0.121240 0.155391
H79   H     H_    0.708489 0.426415 0.904328 0.205848
H80   H     H_    0.714066 0.989783 0.413537 0.215630
H81   H     H_    0.283988 0.998489 0.412846 0.214145
H82   H     H_    0.284827 0.062829 0.410396 0.205696
H83   H     H_    0.708492 0.926420 0.404331 0.205848
H84   H     H_    0.214066 0.489777 0.413537 0.215630
H85   H     H_    0.783988 0.498484 0.412846 0.214144
H86   H     H_    0.784825 0.562824 0.410399 0.205696
H87   H     H_    0.208489 0.426414 0.404327 0.205848
H88   H     H_    0.020649 0.112435 0.826622 0.348284
H89   H     H_    0.370356 0.943927 0.563720 0.157827
H90   H     H_    0.940134 0.899563 0.898791 0.304448
H91   H     H_    0.520651 0.612438 0.826623 0.348284
H92   H     H_    0.440138 0.399565 0.898789 0.304449
H93   H     H_    0.520646 0.112430 0.326617 0.348285
H94   H     H_    0.440134 0.899563 0.398791 0.304448
H95   H     H_    0.020651 0.612438 0.326623 0.348284
H96   H     H_    0.940138 0.399565 0.398788 0.304449
O1    O     O_R   0.321670 0.000000 0.730060 -0.618449
O2    O     O_R   0.730060 0.000000 0.678340 -0.615208
O3    O     O_R   0.965031 0.908934 0.878978 -0.762318
O4    O     O_2   0.510304 0.547957 0.873659 -0.619641
O5    O     O_R   0.549320 0.595067 0.830007 -0.812168
O6    O     O_2   0.481572 0.462294 0.828346 -0.556328
O7    O     O_R   0.465034 0.408937 0.878976 -0.762318
O8    O     O_2   0.510303 0.047953 0.373659 -0.619646
O9    O     O_R   0.549315 0.095060 0.330001 -0.812168
O10   O     O_2   0.481571 0.962289 0.328347 -0.556329
O11   O     O_R   0.465031 0.908933 0.378978 -0.762318
O12   O     O_2   0.010304 0.547957 0.373659 -0.619641
O13   O     O_R   0.769940 0.500000 0.678340 -0.615652
O14   O     O_R   0.049320 0.595067 0.330007 -0.812168
O15   O     O_2   0.981572 0.462294 0.328345 -0.556328
O16   O     O_R   0.965035 0.408938 0.378976 -0.762319
O17   O     O_R   0.230060 0.500000 0.678340 -0.615208
O18   O     O_R   0.769940 0.000000 0.178340 -0.615652
O19   O     O_R   0.230060 0.000000 0.178340 -0.615208
O20   O     O_R   0.269940 0.500000 0.178340 -0.615652
O21   O     O_R   0.730060 0.500000 0.178340 -0.615208
O22   O     O_R   0.275870 0.936860 0.775860 -0.600719
O23   O     O_R   0.724130 0.063140 0.775860 -0.599978
O24   O     O_R   0.724130 0.936860 0.775860 -0.600842
O25   O     O_R   0.678330 0.000000 0.730060 -0.618046
O26   O     O_R   0.275870 0.063140 0.775860 -0.601299
O27   O     O_R   0.775870 0.436860 0.775860 -0.600719
O28   O     O_R   0.224130 0.563140 0.775860 -0.599978
O29   O     O_R   0.224130 0.436860 0.775860 -0.600842
O30   O     O_R   0.775870 0.563140 0.775860 -0.601298
O31   O     O_R   0.775870 0.936860 0.275860 -0.600719
O32   O     O_R   0.224130 0.063140 0.275860 -0.599978
O33   O     O_R   0.224130 0.936860 0.275860 -0.600842
O34   O     O_R   0.775870 0.063140 0.275860 -0.601299
O35   O     O_R   0.275870 0.436860 0.275860 -0.600719
O36   O     O_R   0.821670 0.500000 0.730060 -0.618449
O37   O     O_R   0.724130 0.563140 0.275860 -0.599978
O38   O     O_R   0.724130 0.436860 0.275860 -0.600842
O39   O     O_R   0.275870 0.563140 0.275860 -0.601298
O40   O     O_R   0.224140 0.936870 0.724140 -0.596953
O41   O     O_R   0.775860 0.063130 0.724140 -0.597728
O42   O     O_R   0.775860 0.936870 0.724140 -0.597587
O43   O     O_R   0.224140 0.063130 0.724140 -0.596605
O44   O     O_R   0.724140 0.436870 0.724140 -0.596953
O45   O     O_R   0.275860 0.563130 0.724140 -0.597728
O46   O     O_R   0.275860 0.436870 0.724140 -0.597587
O47   O     O_R   0.178330 0.500000 0.730060 -0.618046
O48   O     O_R   0.724140 0.563130 0.724140 -0.596605
O49   O     O_R   0.724140 0.936870 0.224140 -0.596953
O50   O     O_R   0.275860 0.063130 0.224140 -0.597728
O51   O     O_R   0.275860 0.936870 0.224140 -0.597587
O52   O     O_R   0.724140 0.063130 0.224140 -0.596605
O53   O     O_R   0.224140 0.436870 0.224140 -0.596953
O54   O     O_R   0.775860 0.563130 0.224140 -0.597728
O55   O     O_R   0.775860 0.436870 0.224140 -0.597587
O56   O     O_R   0.224140 0.563130 0.224140 -0.596605
O57   O     O_R   0.230060 0.000000 0.821670 -0.619343
O58   O     O_R   0.821670 0.000000 0.230060 -0.618449
O59   O     O_R   0.769940 0.000000 0.821670 -0.620871
O60   O     O_R   0.730060 0.500000 0.821670 -0.619343
O61   O     O_R   0.269940 0.500000 0.821670 -0.620871
O62   O     O_R   0.730060 0.000000 0.321670 -0.619344
O63   O     O_R   0.269940 0.000000 0.321670 -0.620871
O64   O     O_R   0.230060 0.500000 0.321670 -0.619343
O65   O     O_R   0.769940 0.500000 0.321670 -0.620871
O66   O     O_R   0.178330 0.000000 0.769950 -0.608805
O67   O     O_R   0.821670 0.000000 0.769950 -0.610487
O68   O     O_R   0.678330 0.500000 0.769950 -0.608804
O69   O     O_R   0.178330 0.000000 0.230060 -0.618046
O70   O     O_R   0.321670 0.500000 0.769950 -0.610488
O71   O     O_R   0.678330 1.000000 0.269950 -0.608806
O72   O     O_R   0.321670 1.000000 0.269950 -0.610488
O73   O     O_R   0.178330 0.500000 0.269950 -0.608805
O74   O     O_R   0.821670 0.500000 0.269950 -0.610489
O75   O     O_R   0.954170 0.964330 0.954180 -0.635662
O76   O     O_R   0.045830 0.035670 0.954180 -0.615128
O77   O     O_R   0.045830 0.964330 0.954180 -0.601161
O78   O     O_R   0.954170 0.035670 0.954180 -0.587057
O79   O     O_R   0.454170 0.464330 0.954180 -0.635663
O80   O     O_R   0.321670 0.500000 0.230060 -0.618449
O81   O     O_R   0.545830 0.535670 0.954180 -0.615127
O82   O     O_R   0.545830 0.464330 0.954180 -0.601162
O83   O     O_R   0.454170 0.535670 0.954180 -0.587056
O84   O     O_R   0.454170 0.964330 0.454180 -0.635662
O85   O     O_R   0.545830 0.035670 0.454180 -0.615127
O86   O     O_R   0.545830 0.964330 0.454180 -0.601162
O87   O     O_R   0.454170 0.035670 0.454180 -0.587056
O88   O     O_R   0.954170 0.464330 0.454180 -0.635664
O89   O     O_R   0.045830 0.535670 0.454180 -0.615127
O90   O     O_R   0.045830 0.464330 0.454180 -0.601162
O91   O     O_R   0.678330 0.500000 0.230060 -0.618046
O92   O     O_R   0.954170 0.535670 0.454180 -0.587056
O93   O     O_R   0.454180 0.964360 0.545790 -0.629647
O94   O     O_R   0.545820 0.035640 0.545790 -0.630217
O95   O     O_R   0.545820 0.964360 0.545790 -0.624129
O96   O     O_R   0.454180 0.035640 0.545790 -0.626285
O97   O     O_R   0.954180 0.464360 0.545790 -0.629647
O98   O     O_R   0.045820 0.535640 0.545790 -0.630216
O99   O     O_R   0.045820 0.464360 0.545790 -0.624129
O100  O     O_R   0.954180 0.535640 0.545790 -0.626284
O101  O     O_R   0.954180 0.964360 0.045790 -0.629648
O102  O     O_R   0.269940 0.000000 0.678340 -0.615652
O103  O     O_R   0.045820 0.035640 0.045790 -0.630217
O104  O     O_R   0.045820 0.964360 0.045790 -0.624129
O105  O     O_R   0.954180 0.035640 0.045790 -0.626285
O106  O     O_R   0.454180 0.464360 0.045790 -0.629647
O107  O     O_R   0.545820 0.535640 0.045790 -0.630216
O108  O     O_R   0.545820 0.464360 0.045790 -0.624129
O109  O     O_R   0.454180 0.535640 0.045790 -0.626285
O110  O     O_2   0.010303 0.047955 0.873658 -0.619642
O111  O     O_R   0.049318 0.095065 0.830006 -0.812170
O112  O     O_2   0.981571 0.962289 0.828348 -0.556328
Zn1   Zn    Zn3+2 0.284540 0.000000 0.784540 0.956155
Zn2   Zn    Zn3+2 0.784540 0.000000 0.715470 0.975620
Zn3   Zn    Zn3+2 0.715460 0.500000 0.715470 0.980118
Zn4   Zn    Zn3+2 0.284540 0.500000 0.715470 0.975620
Zn5   Zn    Zn3+2 0.715460 0.000000 0.215470 0.980118
Zn6   Zn    Zn3+2 0.284540 0.000000 0.215470 0.975619
Zn7   Zn    Zn3+2 0.215460 0.500000 0.215470 0.980118
Zn8   Zn    Zn3+2 0.784540 0.500000 0.215470 0.975619
Zn9   Zn    Zn3+2 1.000000 0.952400 0.999990 0.987185
Zn10  Zn    Zn3+2 1.000000 0.047600 0.999990 0.988148
Zn11  Zn    Zn3+2 0.500000 0.452400 0.999990 0.987183
Zn12  Zn    Zn3+2 0.715460 0.000000 0.784540 0.955132
Zn13  Zn    Zn3+2 0.500000 0.547600 0.999990 0.988149
Zn14  Zn    Zn3+2 0.500000 0.952400 0.499990 0.987185
Zn15  Zn    Zn3+2 0.500000 0.047600 0.499990 0.988147
Zn16  Zn    Zn3+2 1.000000 0.452400 0.499990 0.987182
Zn17  Zn    Zn3+2 1.000000 0.547600 0.499990 0.988150
Zn18  Zn    Zn3+2 0.784540 0.500000 0.784540 0.956155
Zn19  Zn    Zn3+2 0.215460 0.500000 0.784540 0.955132
Zn20  Zn    Zn3+2 0.784540 0.000000 0.284540 0.956155
Zn21  Zn    Zn3+2 0.215460 0.000000 0.284540 0.955132
Zn22  Zn    Zn3+2 0.284540 0.500000 0.284540 0.956156
Zn23  Zn    Zn3+2 0.715460 0.500000 0.284540 0.955132
Zn24  Zn    Zn3+2 0.215460 0.000000 0.715470 0.980118

loop_
_geom_bond_atom_site_label_1
_geom_bond_atom_site_label_2
_ccdc_geom_bond_type
O13   Zn3   S    
C99   C103  T    
C105  C110  T    
C96   C102  T    
C41   O88   A    
C34   O75   A    
C59   O64   A    
C39   C218  S    
C163  H15   S    
C164  H21   S    
C11   C181  A    
O105  Zn10  S    
C30   H83   S    
O88   Zn16  S    
C190  C198  A    
C5    O37   A    
C156  O36   A    
C170  H29   S    
O25   Zn12  S    
O89   Zn17  S    
C35   C124  A    
C144  O6    D    
C187  C196  A    
C92   C109  S    
O81   Zn13  S    
C184  C193  A    
C94   C111  S    
C208  C217  A    
C3    O52   A    
C74   C92   T    
C156  O13   A    
O37   Zn23  S    
O31   Zn20  S    
O52   Zn5   S    
O98   Zn17  S    
O36   Zn18  S    
C131  C140  A    
C76   C94   T    
C203  H52   S    
C162  C171  S    
C78   C96   S    
C66   C227  S    
C141  C204  S    
C171  H35   S    
O67   Zn2   S    
C117  C126  A    
C185  C194  A    
O103  Zn10  S    
O83   Zn13  S    
C11   C216  A    
C1    O1    A    
C119  C128  A    
C225  O26   A    
C56   C191  S    
O73   Zn7   S    
C30   C182  S    
O74   Zn8   S    
C197  C206  A    
C22   H63   S    
H96   O16   S    
C174  H37   S    
O19   Zn6   S    
C11   C20   S    
C67   C85   T    
C115  C123  A    
C150  C159  A    
C211  O21   A    
O47   Zn19  S    
C127  C136  A    
O40   Zn24  S    
C90   C152  A    
C68   H8    S    
C212  C220  A    
C38   O81   A    
C178  O18   A    
C177  C186  A    
C172  H32   S    
C164  H18   S    
C168  H25   S    
C230  O49   A    
C181  C190  A    
C154  C163  S    
C46   H6    S    
C15   C184  A    
C149  O16   S    
C164  C173  S    
C171  H31   S    
H94   O11   S    
C28   C180  S    
C112  C125  S    
O108  Zn11  S    
C147  O11   S    
O76   Zn10  S    
C205  C214  A    
C83   C100  S    
C58   C192  S    
C7    O56   A    
C167  O47   A    
C36   O77   A    
C68   C140  A    
O48   Zn3   S    
C41   C220  S    
C75   C93   T    
C79   C222  A    
C141  O110  D    
O65   Zn23  S    
C16   C25   S    
C211  O91   A    
O84   Zn14  S    
C33   H86   S    
C18   H54   S    
C162  H17   S    
O106  Zn11  S    
C8    C17   S    
C108  C111  T    
C60   O65   A    
O30   Zn18  S    
C35   C137  A    
C121  C175  S    
C122  C176  S    
O41   Zn2   S    
C204  C213  A    
C25   H68   S    
O91   Zn23  S    
C207  C216  A    
C28   H79   S    
C148  O12   D    
C10   C215  A    
C175  H43   S    
C1    O102  A    
C161  H11   S    
H93   O9    S    
C71   C88   T    
C126  C134  A    
C115  C151  A    
C55   O70   A    
C71   C231  S    
C14   C218  A    
C112  O25   A    
C178  O58   A    
C173  H36   S    
O18   Zn5   S    
C135  C157  A    
O57   Zn1   S    
C80   C97   S    
C84   C102  S    
O59   Zn12  S    
C35   H5    S    
C149  C212  S    
C121  C130  A    
C86   C104  S    
C176  H41   S    
C44   O94   A    
C59   C193  S    
C137  H45   S    
C160  H13   S    
C21   H65   S    
C62   C80   T    
C134  H23   S    
C230  O31   A    
C50   O109  A    
C32   H84   S    
C221  O40   A    
C38   C215  S    
C168  H24   S    
O90   Zn16  S    
C17   H53   S    
C136  H34   S    
C226  O27   A    
O78   Zn10  S    
C39   O87   A    
O94   Zn15  S    
H88   O111  S    
C167  O17   A    
C51   C150  S    
O35   Zn22  S    
C19   H58   S    
C129  C189  S    
C37   C216  S    
C152  C161  S    
C9    C179  A    
C7    C77   S    
C144  C207  S    
C24   C136  A    
C49   C135  S    
C52   C186  S    
C70   C87   T    
C201  C209  A    
C64   C225  S    
C7    O39   A    
C200  O20   A    
C140  H78   S    
C120  C129  A    
C20   H60   S    
C196  H46   S    
C192  C201  A    
C157  C165  S    
C173  H39   S    
O46   Zn4   S    
C165  C174  S    
C43   O96   A    
C49   O104  A    
C210  C219  A    
O85   Zn15  S    
C148  O14   S    
C27   H72   S    
C24   H4    S    
C69   C229  S    
C222  H89   S    
C37   O83   A    
C87   C105  S    
C122  C159  A    
C224  O42   A    
C42   O89   A    
C116  C170  S    
O32   Zn21  S    
C19   C28   S    
C57   H7    S    
C23   H66   S    
O97   Zn16  S    
C31   H82   S    
C120  C174  S    
C50   O106  A    
C116  C125  A    
C26   H74   S    
O27   Zn18  S    
C131  C211  S    
O17   Zn4   S    
C118  C127  A    
C161  C170  S    
C15   C219  A    
C122  C131  A    
C97   C100  T    
O58   Zn20  S    
C26   C177  S    
C168  C176  S    
C19   H61   S    
C198  C207  A    
C36   O76   A    
C145  O8    D    
C54   O68   A    
C85   C103  S    
C201  H50   S    
C6    C76   S    
C146  C158  A    
C227  O45   A    
C93   C110  S    
O55   Zn8   S    
C121  C158  A    
O56   Zn7   S    
C14   C22   S    
C55   O61   A    
C6    O38   A    
C60   O74   A    
C37   O79   A    
C48   O105  A    
O95   Zn14  S    
C16   C220  A    
O100  Zn17  S    
C3    C73   S    
C68   C150  A    
C197  H47   S    
C9    C18   S    
C198  H48   S    
C124  C155  A    
C200  O80   A    
C57   C146  A    
C229  O48   A    
C175  H40   S    
C25   C33   S    
C106  C109  T    
C206  C215  A    
O96   Zn15  S    
C40   C217  S    
C165  H20   S    
C82   C99   S    
O22   Zn1   S    
C113  C154  A    
C22   H64   S    
C183  C192  A    
C14   C183  A    
C174  H38   S    
C166  C175  S    
C143  O5    S    
C26   H71   S    
C132  C222  A    
C166  H26   S    
O80   Zn22  S    
C228  O29   A    
C27   C179  S    
O26   Zn1   S    
C16   C185  A    
C133  H12   S    
O49   Zn5   S    
C123  C132  A    
C179  C187  A    
C81   C98   S    
C38   O82   A    
C95   C114  S    
C125  C133  A    
O33   Zn21  S    
C45   O100  A    
C47   O98   A    
C57   C139  A    
C48   O101  A    
C231  O32   A    
C180  C188  A    
C46   C135  A    
C53   O67   A    
C231  O50   A    
C8    C177  A    
C2    H2    S    
C12   C182  A    
C32   H87   S    
C160  C169  S    
C149  O15   D    
C229  O30   A    
O104  Zn9   S    
C72   C232  S    
C132  H1    S    
C39   O84   A    
C13   H3    S    
C50   C146  S    
C54   C188  S    
O43   Zn24  S    
O102  Zn24  S    
C20   H59   S    
C163  H16   S    
C29   H77   S    
C130  C139  A    
C202  H51   S    
O44   Zn3   S    
C2    C133  A    
C21   H62   S    
C33   H85   S    
C42   C219  S    
C34   C214  S    
C18   H55   S    
C193  C202  A    
C29   H76   S    
C5    C75   S    
C142  O112  D    
C1    C123  S    
C107  C114  T    
C139  H67   S    
O99   Zn16  S    
H95   O14   S    
C117  C171  S    
C118  C172  S    
C10   C19   S    
C89   C107  S    
C143  O4    D    
O71   Zn5   S    
O53   Zn7   S    
O51   Zn6   S    
O54   Zn8   S    
O39   Zn22  S    
C161  H10   S    
C45   C101  S    
C4    O53   A    
O82   Zn11  S    
C63   C81   T    
C6    O55   A    
C8    C213  A    
C120  C157  A    
C182  C191  A    
C209  C218  A    
C12   C217  A    
C158  C166  S    
O21   Zn8   S    
C47   C113  S    
O68   Zn3   S    
C226  O44   A    
C91   C108  S    
C176  H42   S    
C5    O54   A    
O1    Zn1   S    
C195  C204  A    
C9    C214  A    
O107  Zn13  S    
C21   C30   S    
C153  C162  S    
C10   C180  A    
C23   C32   S    
C23   H70   S    
O93   Zn14  S    
C119  C173  S    
O64   Zn22  S    
O72   Zn6   S    
C188  C197  A    
C51   O107  A    
C169  H30   S    
O86   Zn14  S    
C65   C226  S    
C4    O35   A    
C61   C221  S    
C228  O46   A    
C143  C206  S    
C40   O85   A    
C2    C90   A    
C33   C185  S    
C147  C209  S    
C30   H80   S    
C51   O108  A    
C141  O111  S    
O61   Zn19  S    
O23   Zn12  S    
C138  H56   S    
C13   C134  A    
H91   O5    S    
C115  C169  S    
C144  O7    S    
O109  Zn13  S    
C142  O3    S    
C60   C194  S    
C172  H33   S    
C29   C181  S    
C223  O41   A    
C17   C26   S    
C59   O73   A    
C191  C199  A    
C145  O9    S    
O28   Zn19  S    
C65   C83   T    
H90   O3    S    
C43   C79   S    
C199  H49   S    
C25   H69   S    
C49   O103  A    
C159  C168  S    
C142  C205  S    
O79   Zn11  S    
C196  C205  A    
C199  C208  A    
O77   Zn9   S    
C129  C138  A    
C189  O19   A    
C224  O24   A    
C45   O97   A    
C56   O62   A    
C42   O90   A    
O75   Zn9   S    
C221  O22   A    
C58   O63   A    
C54   O60   A    
C4    C74   S    
O20   Zn7   S    
C112  O2    A    
O63   Zn21  S    
C31   H81   S    
H92   O7    S    
C15   C23   S    
C24   C113  A    
C232  O51   A    
C202  C210  A    
C130  C200  S    
C189  O69   A    
O50   Zn6   S    
C20   C29   S    
C22   C31   S    
C55   C190  S    
C58   O72   A    
C186  C195  A    
C73   C91   T    
O29   Zn19  S    
C41   O92   A    
O66   Zn24  S    
O34   Zn20  S    
C12   C21   S    
C77   C95   T    
C27   H73   S    
C162  H14   S    
C128  C137  A    
C70   C230  S    
C163  C172  S    
C148  C210  S    
C36   C213  S    
C225  O43   A    
C147  O10   D    
C88   C106  S    
C47   O99   A    
C101  C153  A    
C61   C78   T    
C34   O78   A    
C62   C223  S    
C64   C82   T    
O38   Zn23  S    
C52   O57   A    
C232  O33   A    
C118  C154  A    
C160  H9    S    
C28   H75   S    
C203  C212  A    
C128  C178  S    
C13   C101  A    
C116  C152  A    
C44   C90   S    
C79   C151  A    
C40   O86   A    
C119  C155  A    
C31   C183  S    
C165  H19   S    
C56   O71   A    
C63   C224  S    
C32   C184  S    
C18   C27   S    
O45   Zn4   S    
C48   C124  S    
C52   O66   A    
O62   Zn20  S    
C53   O59   A    
C155  C164  S    
O70   Zn4   S    
O60   Zn18  S    
C227  O28   A    
O42   Zn2   S    
C46   C138  A    
C151  C160  S    
C53   C187  S    
C117  C153  A    
O101  Zn9   S    
C72   C89   T    
C17   H57   S    
C67   C228  S    
C98   C104  T    
C194  C203  A    
O87   Zn15  S    
C166  H22   S    
C43   O93   A    
C3    O34   A    
O69   Zn21  S    
O92   Zn17  S    
C66   C84   T    
O24   Zn12  S    
C127  C167  S    
C195  H44   S    
C169  H27   S    
C170  H28   S    
C145  C208  S    
C223  O23   A    
C69   C86   T    
O2    Zn2   S    
C44   O95   A    
C126  C156  S    
