data_mof_unit_21952.cif
_audit_creation_date              2012-12-10T16:57:48-0500
_audit_creation_method            fapswitch 2.2
_symmetry_space_group_name_H-M    P1
_symmetry_Int_Tables_number       1
_space_group_crystal_system       triclinic
_cell_length_a                    10.647619
_cell_length_b                    10.909496
_cell_length_c                    9.697215
_cell_angle_alpha                 89.921698
_cell_angle_beta                  90.353104
_cell_angle_gamma                 89.972155
_cell_volume                      1126.40743515

loop_
_atom_site_label
_atom_site_type_symbol
_atom_type_description
_atom_site_fract_x
_atom_site_fract_y
_atom_site_fract_z
_atom_type_partial_charge
C1    C     C_R   0.491949 0.265429 0.500074 0.819357
C2    C     C_3   0.959607 0.595510 0.428172 -0.008805
C3    C     C_3   0.041535 0.492006 0.368066 -0.223752
C4    C     C_3   0.123243 0.499263 0.498937 0.007041
C5    C     C_2   0.492689 0.933259 0.387556 -0.101954
C6    C     C_2   0.514078 0.866579 0.501062 -0.234276
C7    C     C_2   0.501247 0.066885 0.391890 -0.258915
C8    C     C_2   0.463006 0.134880 0.499894 -0.143253
C9    C     C_2   0.424928 0.432148 0.921327 -0.151340
C10   C     C_2   0.420651 0.434812 0.078422 0.521479
C11   C     C_R   0.259560 0.499544 0.499615 0.810800
C12   C     C_R   0.503531 0.734636 0.499949 0.871951
C13   C     C_R   0.740597 0.500108 0.500357 0.898318
C14   C     C_3   0.043314 0.402479 0.572508 -0.186953
C15   C     C_3   0.959313 0.396591 0.442732 -0.004762
C16   C     C_3   0.877447 0.499919 0.500482 -0.111054
C17   C     C_3   0.960594 0.507036 0.630814 -0.179156
C18   C     C_3   0.043585 0.603840 0.557786 -0.185086
Cu1   Cu    Cu3+1 0.500030 0.500020 0.638630 0.974934
Cu2   Cu    Cu3+1 0.499970 0.499980 0.361370 1.022329
H1    H     H_    0.359939 0.372518 0.867495 0.188730
H2    H     H_    0.556859 0.560477 0.894675 0.187551
H3    H     H_    0.572942 0.540967 0.106063 0.153767
H4    H     H_    0.080765 0.322916 0.631353 0.151561
H5    H     H_    0.926023 0.513194 0.738353 0.162834
H6    H     H_    0.081154 0.689247 0.604552 0.154503
H7    H     H_    0.076163 0.485579 0.260513 0.179754
H8    H     H_    0.475443 0.889888 0.288473 0.169358
H9    H     H_    0.539409 0.909833 0.598123 0.146773
H10   H     H_    0.547109 0.109949 0.304585 0.165544
N1    N     N_2   0.498620 0.498660 0.846910 -0.301874
N2    N     N_2   0.498590 0.498630 0.153040 -0.302302
O1    O     O_R   0.500020 0.321960 0.617040 -0.545100
O2    O     O_R   0.499980 0.321920 0.382900 -0.558983
O3    O     O_R   0.316870 0.499990 0.617050 -0.589069
O4    O     O_R   0.316830 0.499950 0.382910 -0.530579
O5    O     O_R   0.500020 0.678080 0.617100 -0.585981
O6    O     O_R   0.499980 0.678040 0.382960 -0.565404
O7    O     O_R   0.683170 0.500050 0.617090 -0.593362
O8    O     O_R   0.683130 0.500010 0.382950 -0.536243
C19   C     C_2   0.917413 0.277757 0.380224 0.823572
O9    O     O_2   0.996022 0.202958 0.344077 -0.587287
O10   O     O_R   0.789668 0.252104 0.364870 -0.772309
H11   H     H_    0.774146 0.168824 0.321824 0.327240
C20   C     C_2   0.377671 0.087014 0.609193 0.829001
O11   O     O_2   0.385817 0.125652 0.727227 -0.625163
O12   O     O_R   0.285339 0.000614 0.575812 -0.733591
H12   H     H_    0.232966 0.976065 0.658333 0.328209
O13   O     O_3   0.323033 0.375731 0.145370 -0.580357
C21   C     C_3   0.319130 0.249099 0.113738 0.045852
H13   H     H_    0.325147 0.198164 0.212763 0.192811
H14   H     H_    0.398552 0.215698 0.049111 0.131276
C22   C     C_3   0.193490 0.217953 0.044660 -0.345091
H15   H     H_    0.115383 0.253502 0.108635 0.255931
H16   H     H_    0.187198 0.262601 0.941934 0.206748
C23   C     C_3   0.177813 0.079801 0.027002 -0.798218
H17   H     H_    0.254624 0.042138 0.962683 0.264578
H18   H     H_    0.086655 0.060399 0.975286 0.252438
H19   H     H_    0.178825 0.033522 0.129141 0.282158
C24   C     C_2   0.918242 0.706439 0.348394 0.834369
O14   O     O_2   0.996979 0.770935 0.292818 -0.574979
O15   O     O_R   0.791005 0.736662 0.339083 -0.775632
H20   H     H_    0.775543 0.813949 0.283332 0.330068

loop_
_geom_bond_atom_site_label_1
_geom_bond_atom_site_label_2
_ccdc_geom_bond_type
C21   H14   S    
O10   H11   S    
O15   H20   S    
C2    C18   S    
C5    H8    S    
C2    C16   S    
C19   O9    D    
C22   H16   S    
O12   H12   S    
C18   H6    S    
C23   H19   S    
C4    C18   S    
H3    N2    S    
C22   C23   S    
Cu1   Cu2   S    
C3    H7    S    
C21   H13   S    
C8    C20   S    
Cu1   N1    S    
C7    C8    D    
C7    H10   S    
Cu1   O3    S    
C22   H15   S    
C4    C11   S    
C12   O6    A    
C19   O10   S    
C14   C17   S    
C9    H1    S    
Cu1   O7    S    
C24   O14   D    
C9    C10   S    
C11   O3    A    
C11   O4    A    
C23   H18   S    
C1    O2    A    
C17   C18   S    
C2    C3    S    
C20   O12   S    
C4    C14   S    
C5    C6    D    
Cu2   O8    S    
C2    C24   S    
C13   O7    A    
C21   C22   S    
H2    N1    S    
C9    N1    D    
C1    O1    A    
Cu2   O2    S    
C1    C8    S    
C6    C12   S    
C10   N2    D    
C6    H9    S    
Cu2   O6    S    
C23   H17   S    
C15   C19   S    
C24   O15   S    
O13   C21   S    
Cu2   N2    S    
C13   C16   S    
C14   H4    S    
C12   O5    A    
C5    C7    S    
C14   C15   S    
C16   C17   S    
C3    C15   S    
Cu1   O5    S    
C20   O11   D    
C10   O13   S    
C3    C4    S    
C15   C16   S    
Cu1   O1    S    
C17   H5    S    
C13   O8    A    
Cu2   O4    S    
