data_mof_unit_33578.cif
_audit_creation_date              2012-12-10T20:55:02-0500
_audit_creation_method            fapswitch 2.2
_symmetry_space_group_name_H-M    P1
_symmetry_Int_Tables_number       1
_space_group_crystal_system       triclinic
_cell_length_a                    15.804481
_cell_length_b                    15.037033
_cell_length_c                    10.773355
_cell_angle_alpha                 90.452657
_cell_angle_beta                  90.101227
_cell_angle_gamma                 89.949884
_cell_volume                      2560.22992883

loop_
_atom_site_label
_atom_site_type_symbol
_atom_type_description
_atom_site_fract_x
_atom_site_fract_y
_atom_site_fract_z
_atom_type_partial_charge
C1    C     C_R   0.338838 0.499962 0.498725 0.895413
C2    C     C_R   0.661164 0.499942 0.500839 0.894794
C3    C     C_R   0.955726 0.414052 0.491138 0.376901
C4    C     C_R   0.044503 0.414220 0.492724 0.372360
C5    C     C_1   0.824279 0.498239 0.491968 0.010033
C6    C     C_1   0.175913 0.497738 0.482196 0.006976
C7    C     C_1   0.250641 0.499475 0.489852 -0.203933
C8    C     C_1   0.749487 0.499605 0.497266 -0.194283
C9    C     C_R   0.432486 0.952172 0.446447 -0.230791
C10   C     C_R   0.566608 0.952621 0.553422 -0.221642
C11   C     C_R   0.499620 0.904795 0.499787 0.011888
C12   C     C_R   0.567657 0.046735 0.553861 0.163840
C13   C     C_R   0.431311 0.046342 0.446369 0.166366
C14   C     C_R   0.499538 0.094795 0.500071 0.021864
C15   C     C_1   0.499817 0.807153 0.499745 0.063504
C16   C     C_1   0.499747 0.192885 0.499995 0.066177
C17   C     C_R   0.505777 0.499399 0.259717 0.975888
C18   C     C_R   0.494047 0.500462 0.740771 0.962721
C19   C     C_R   0.572663 0.650243 0.109763 0.582270
C20   C     C_R   0.469957 0.667714 0.897639 0.581903
C21   C     C_R   0.562612 0.733431 0.054960 -0.302485
C22   C     C_R   0.508171 0.743344 0.954283 -0.379255
C23   C     C_R   0.493342 0.582170 0.942493 -0.108769
C24   C     C_R   0.526837 0.576642 0.061747 -0.159972
C25   C     C_R   0.511505 0.497403 0.127195 -0.271704
C26   C     C_R   0.488616 0.500876 0.874203 -0.267085
C27   C     C_R   0.488966 0.418791 0.063764 0.348948
C28   C     C_R   0.494710 0.418444 0.936039 0.351194
C29   C     C_R   0.956159 0.575471 0.467835 -0.276489
C30   C     C_R   0.043535 0.575177 0.463887 -0.263548
C31   C     C_R   0.912995 0.495644 0.483666 0.002448
C32   C     C_R   0.087060 0.495154 0.476844 0.010343
H1    H     H_    0.594822 0.790931 0.093401 0.170755
H2    H     H_    0.497958 0.810115 0.921112 0.148915
H3    H     H_    0.077254 0.637404 0.453256 0.171684
H4    H     H_    0.922251 0.637897 0.460177 0.171375
H5    H     H_    0.380358 0.915480 0.405338 0.143735
H6    H     H_    0.618692 0.916317 0.594684 0.139631
N1    N     N_1   0.500000 0.270550 0.500000 -0.095888
N2    N     N_1   0.500000 0.729450 0.500000 -0.080006
O1    O     O_R   0.378020 0.573650 0.500040 -0.620873
O2    O     O_R   0.621980 0.573650 0.499960 -0.590392
O3    O     O_R   0.378020 0.426320 0.500100 -0.626838
O4    O     O_R   0.621980 0.426320 0.499900 -0.635809
O5    O     O_R   0.500000 0.573680 0.316780 -0.581499
O6    O     O_R   0.500000 0.573680 0.683220 -0.585036
O7    O     O_R   0.500000 0.426350 0.316830 -0.586586
O8    O     O_R   0.500000 0.426350 0.683170 -0.582527
Zn1   Zn    Zn3+2 0.500000 0.598370 0.500000 1.005638
Zn2   Zn    Zn3+2 0.500000 0.401630 0.500000 0.970568
O9    O     O_3   0.473256 0.339719 0.125554 -0.625631
C33   C     C_3   0.388509 0.311740 0.106152 0.111846
H7    H     H_    0.388653 0.237948 0.100170 0.154695
H8    H     H_    0.359791 0.335870 0.017912 0.140857
C34   C     C_3   0.333220 0.340291 0.216049 -0.338126
H9    H     H_    0.360767 0.313948 0.303282 0.258580
H10   H     H_    0.331618 0.414073 0.222365 0.209199
C35   C     C_3   0.242922 0.305735 0.202489 -0.966765
H11   H     H_    0.213223 0.332555 0.117065 0.265492
H12   H     H_    0.204943 0.327401 0.283936 0.300867
H13   H     H_    0.242698 0.231906 0.197970 0.262919
O10   O     O_3   0.498517 0.337600 0.872635 -0.617052
C36   C     C_3   0.577652 0.295327 0.894196 0.114003
H14   H     H_    0.569248 0.223148 0.875394 0.145830
H15   H     H_    0.599527 0.300781 0.992304 0.159317
C37   C     C_3   0.646373 0.330611 0.806895 -0.359274
H16   H     H_    0.628276 0.316107 0.709162 0.259092
H17   H     H_    0.652783 0.403763 0.818799 0.206592
C38   C     C_3   0.732032 0.287747 0.833172 -0.972941
H18   H     H_    0.753583 0.305102 0.928522 0.265873
H19   H     H_    0.779460 0.312583 0.765873 0.291233
H20   H     H_    0.727843 0.214297 0.823643 0.263185
O11   O     O_3   0.627860 0.641071 0.208830 -0.629623
C39   C     C_3   0.711354 0.628675 0.164493 0.054985
H21   H     H_    0.755140 0.649962 0.239849 0.175093
H22   H     H_    0.726176 0.671080 0.082796 0.123003
C40   C     C_3   0.728646 0.530357 0.134285 -0.368808
H23   H     H_    0.710619 0.488736 0.214807 0.224111
H24   H     H_    0.690247 0.509196 0.052848 0.212291
C41   C     C_3   0.821776 0.514708 0.104062 -0.960123
H25   H     H_    0.841207 0.556226 0.024215 0.268275
H26   H     H_    0.831731 0.443696 0.078993 0.269641
H27   H     H_    0.861910 0.531259 0.185801 0.266456
O12   O     O_3   0.406572 0.672264 0.806820 -0.630398
C42   C     C_3   0.373831 0.758446 0.787053 0.074861
H28   H     H_    0.423088 0.801653 0.745265 0.140670
H29   H     H_    0.350267 0.787769 0.875808 0.137616
C43   C     C_3   0.299839 0.752432 0.695909 -0.299663
H30   H     H_    0.322406 0.724328 0.606251 0.243617
H31   H     H_    0.250547 0.707447 0.733620 0.222396
C44   C     C_3   0.260939 0.843750 0.672648 -1.002247
H32   H     H_    0.235350 0.872133 0.760384 0.267312
H33   H     H_    0.208433 0.837338 0.604562 0.266696
H34   H     H_    0.309107 0.889770 0.634567 0.272809
O13   O     O_3   0.910990 0.336048 0.509608 -0.657861
C45   C     C_3   0.906467 0.286279 0.397666 0.105578
H35   H     H_    0.905815 0.214775 0.422837 0.165642
H36   H     H_    0.962150 0.295723 0.335493 0.146036
C46   C     C_3   0.824442 0.307831 0.328028 -0.365705
H37   H     H_    0.769776 0.302120 0.392166 0.248608
H38   H     H_    0.827180 0.377132 0.294000 0.225362
C47   C     C_3   0.810889 0.245607 0.217308 -0.978752
H39   H     H_    0.864145 0.251555 0.150745 0.265268
H40   H     H_    0.751230 0.263747 0.169065 0.269603
H41   H     H_    0.805975 0.175648 0.248836 0.269024
O14   O     O_3   0.089748 0.335399 0.499937 -0.661767
C48   C     C_3   0.089133 0.302645 0.622869 0.110415
H42   H     H_    0.083743 0.229073 0.616739 0.167214
H43   H     H_    0.034506 0.326184 0.679977 0.145708
C49   C     C_3   0.172261 0.326310 0.688551 -0.352442
H44   H     H_    0.226557 0.307006 0.628638 0.247743
H45   H     H_    0.174882 0.399236 0.705181 0.217216
C50   C     C_3   0.180296 0.279168 0.812930 -0.970829
H46   H     H_    0.127158 0.298274 0.875037 0.263455
H47   H     H_    0.240739 0.298561 0.858274 0.268883
H48   H     H_    0.180184 0.205902 0.798912 0.266125
C51   C     C_3   0.356857 0.093453 0.387371 -0.430280
C52   C     C_3   0.296359 0.130471 0.485438 -0.845956
H49   H     H_    0.271833 0.075742 0.543937 0.257363
H50   H     H_    0.328510 0.180206 0.545722 0.263166
H51   H     H_    0.242062 0.163503 0.439161 0.262273
H52   H     H_    0.379664 0.148000 0.327137 0.207956
H53   H     H_    0.320857 0.047011 0.326313 0.201485
C53   C     C_3   0.641794 0.094275 0.613652 -0.432470
C54   C     C_3   0.703066 0.129572 0.516357 -0.844284
H54   H     H_    0.728830 0.073774 0.459757 0.254713
H55   H     H_    0.671066 0.177513 0.454113 0.264097
H56   H     H_    0.756455 0.164177 0.563283 0.259765
H57   H     H_    0.618552 0.149838 0.672798 0.206121
H58   H     H_    0.677154 0.048683 0.675825 0.200045

loop_
_geom_bond_atom_site_label_1
_geom_bond_atom_site_label_2
_ccdc_geom_bond_type
C6    C32   S    
C34   H9    S    
C36   H15   S    
O11   C39   S    
C37   H17   S    
O13   C45   S    
C18   C26   S    
C40   H23   S    
C29   H4    S    
O10   C36   S    
C39   H22   S    
C30   H3    S    
C19   C21   A    
C17   O5    A    
C42   C43   S    
C37   C38   S    
C21   H1    S    
O14   C48   S    
C35   H12   S    
N2    Zn1   S    
C45   C46   S    
C47   H41   S    
C23   C26   A    
C38   H19   S    
C9    C13   A    
C49   H44   S    
C52   H49   S    
C11   C15   S    
C1    O3    A    
C2    O4    A    
C39   C40   S    
C45   H36   S    
C54   H56   S    
C23   C24   A    
C20   C23   A    
C33   C34   S    
C50   H48   S    
C35   H13   S    
C42   H29   S    
C37   H16   S    
C36   C37   S    
C21   C22   A    
C48   H43   S    
C38   H18   S    
C41   H27   S    
C18   O6    A    
O1    Zn1   S    
C33   H8    S    
O7    Zn2   S    
C52   H50   S    
C40   H24   S    
C22   H2    S    
C39   H21   S    
O9    C33   S    
C19   O11   S    
C24   C25   A    
C41   H26   S    
C44   H32   S    
O2    Zn1   S    
C35   H11   S    
C42   H28   S    
C4    O14   S    
C52   H51   S    
C38   H20   S    
C47   H40   S    
C51   H52   S    
C29   C30   A    
C44   H33   S    
C46   H37   S    
O6    Zn1   S    
C43   C44   S    
O5    Zn1   S    
C48   H42   S    
C45   H35   S    
N1    Zn2   S    
C9    H5    S    
C53   H58   S    
O12   C42   S    
C3    C31   A    
C9    C11   A    
C49   C50   S    
C4    C32   A    
C10   C12   A    
C1    O1    A    
C46   H38   S    
C43   H31   S    
C34   H10   S    
C54   H54   S    
C48   C49   S    
C14   C16   S    
C3    C4    A    
C33   H7    S    
C50   H46   S    
C40   C41   S    
O4    Zn2   S    
C1    C7    S    
C2    C8    S    
C17   O7    A    
C20   C22   A    
C41   H25   S    
C18   O8    A    
C5    C8    T    
C13   C51   S    
O3    Zn2   S    
C6    C7    T    
C25   C27   A    
C26   C28   A    
C10   H6    S    
C17   C25   S    
C20   O12   S    
C19   C24   A    
C12   C14   A    
C29   C31   A    
C51   C52   S    
C44   H34   S    
C30   C32   A    
C2    O2    A    
O8    Zn2   S    
C27   O9    S    
C53   H57   S    
C51   H53   S    
C47   H39   S    
C49   H45   S    
C15   N2    T    
C10   C11   A    
C16   N1    T    
C36   H14   S    
C46   C47   S    
C43   H30   S    
C34   C35   S    
C27   C28   A    
C54   H55   S    
C3    O13   S    
C5    C31   S    
C13   C14   A    
C12   C53   S    
C53   C54   S    
C50   H47   S    
C28   O10   S    
