data_mof_unit_60583.cif
_audit_creation_date              2012-12-10T20:20:41-0500
_audit_creation_method            fapswitch 2.2
_symmetry_space_group_name_H-M    P1
_symmetry_Int_Tables_number       1
_space_group_crystal_system       triclinic
_cell_length_a                    41.391164
_cell_length_b                    35.509927
_cell_length_c                    21.29248
_cell_angle_alpha                 89.998212
_cell_angle_beta                  59.08457
_cell_angle_gamma                 90.001507
_cell_volume                      26849.3506989

loop_
_atom_site_label
_atom_site_type_symbol
_atom_type_description
_atom_site_fract_x
_atom_site_fract_y
_atom_site_fract_z
_atom_type_partial_charge
C1    C     C_R   0.926551 0.500006 0.073426 0.865312
C2    C     C_R   0.073444 0.500008 0.926579 0.865203
C3    C     C_R   0.426551 0.000006 0.073425 0.865315
C4    C     C_R   0.573444 0.000008 0.926579 0.865200
C5    C     C_3   0.999991 0.499811 0.189334 0.021221
C6    C     C_3   0.000024 0.499814 0.810652 0.021159
C7    C     C_3   0.499980 0.999812 0.189344 0.021184
C8    C     C_3   0.500026 0.999814 0.810650 0.021155
C9    C     C_R   0.673632 0.504046 0.269783 -0.166511
C10   C     C_R   0.326353 0.504149 0.730166 -0.166473
C11   C     C_R   0.173633 0.004013 0.269756 -0.166530
C12   C     C_R   0.826353 0.004135 0.730176 -0.166477
C13   C     C_R   0.634459 0.503946 0.308858 -0.200360
C14   C     C_R   0.365530 0.504035 0.691104 -0.200386
C15   C     C_R   0.134460 0.003915 0.308832 -0.200276
C16   C     C_R   0.865530 0.004022 0.691113 -0.200324
C17   C     C_R   0.614615 0.499831 0.385430 -0.038175
C18   C     C_R   0.385381 0.499836 0.614566 -0.038208
C19   C     C_R   0.114615 0.999832 0.385429 -0.038153
C20   C     C_R   0.885381 0.999836 0.614566 -0.038208
C21   C     C_R   0.634533 0.495740 0.422246 -0.199782
C22   C     C_R   0.365471 0.495685 0.577767 -0.199771
C23   C     C_R   0.134534 0.995769 0.422268 -0.199804
C24   C     C_R   0.865470 0.995695 0.577760 -0.199813
C25   C     C_R   0.673711 0.495754 0.382995 -0.166422
C26   C     C_R   0.326290 0.495711 0.617006 -0.166427
C27   C     C_R   0.173712 0.995783 0.383016 -0.166442
C28   C     C_R   0.826290 0.995720 0.617000 -0.166431
C29   C     C_R   0.693126 0.499937 0.306938 0.162843
C30   C     C_R   0.306868 0.499981 0.693029 0.162802
C31   C     C_R   0.193127 0.999934 0.306934 0.162902
C32   C     C_R   0.806867 0.999977 0.693032 0.162817
C33   C     C_1   0.733144 0.499976 0.266900 -0.072318
C34   C     C_1   0.266844 0.500020 0.733058 -0.072246
C35   C     C_1   0.233145 0.999973 0.266896 -0.072313
C36   C     C_1   0.766843 0.000017 0.733061 -0.072241
C37   C     C_1   0.766792 0.499999 0.233204 -0.072968
C38   C     C_1   0.233194 0.500038 0.766749 -0.073027
C39   C     C_1   0.266793 0.999996 0.233200 -0.072981
C40   C     C_1   0.733194 0.000035 0.766751 -0.073027
C41   C     C_R   0.826260 0.534143 0.168750 -0.167642
C42   C     C_R   0.173719 0.533933 0.833669 -0.167433
C43   C     C_R   0.326260 0.034146 0.168781 -0.167647
C44   C     C_R   0.673719 0.033929 0.833716 -0.167429
C45   C     C_R   0.000006 0.499972 0.121808 0.872607
C46   C     C_R   0.000001 0.499973 0.878184 0.872592
C47   C     C_R   0.500001 0.999972 0.121814 0.872609
C48   C     C_R   0.500002 0.999973 0.878184 0.872591
C49   C     C_R   0.865438 0.534191 0.129615 -0.205354
C50   C     C_R   0.134540 0.533975 0.872800 -0.205584
C51   C     C_R   0.365438 0.034194 0.129646 -0.205358
C52   C     C_R   0.634540 0.033971 0.872846 -0.205588
C53   C     C_R   0.885318 0.500009 0.114579 -0.038637
C54   C     C_R   0.114668 0.500017 0.885419 -0.038460
C55   C     C_R   0.385318 0.000009 0.114578 -0.038609
C56   C     C_R   0.614668 0.000017 0.885419 -0.038474
C57   C     C_R   0.865450 0.465831 0.139285 -0.202759
C58   C     C_R   0.134529 0.466073 0.858282 -0.203072
C59   C     C_R   0.365451 0.965827 0.139250 -0.202756
C60   C     C_R   0.634529 0.966075 0.858237 -0.203058
C61   C     C_R   0.826276 0.465879 0.178533 -0.167885
C62   C     C_R   0.173706 0.466136 0.818983 -0.167660
C63   C     C_R   0.326276 0.965874 0.178497 -0.167894
C64   C     C_R   0.673705 0.966137 0.818938 -0.167656
C65   C     C_R   0.806816 0.500010 0.193117 0.163355
C66   C     C_R   0.193167 0.500039 0.806838 0.162907
C67   C     C_R   0.306816 0.000008 0.193113 0.163368
C68   C     C_R   0.693166 0.000037 0.806839 0.162907
C69   C     C_R   0.000001 0.573402 0.499997 0.865546
C70   C     C_R   0.500001 0.073402 0.499997 0.865546
C71   C     C_R   0.999984 0.499778 0.378223 0.872417
C72   C     C_R   0.000018 0.499791 0.621776 0.872425
C73   C     C_R   0.499982 0.999779 0.378224 0.872445
C74   C     C_R   0.500018 0.999791 0.621775 0.872450
C75   C     C_R   0.999999 0.426531 0.500003 0.864748
C76   C     C_R   0.499999 0.926529 0.500003 0.864809
C77   C     C_R   0.500000 0.573292 0.499999 0.871560
C78   C     C_R   1.000000 0.073291 0.499999 0.871535
C79   C     C_R   0.573379 0.499864 0.426644 0.871341
C80   C     C_R   0.426620 0.499863 0.573357 0.871306
C81   C     C_R   0.073380 0.999864 0.426644 0.871327
C82   C     C_R   0.926620 0.999863 0.573357 0.871294
C83   C     C_3   0.969067 0.517790 0.260268 -0.157562
C84   C     C_3   0.030616 0.518317 0.740049 -0.157897
C85   C     C_3   0.469320 0.018212 0.260018 -0.157844
C86   C     C_3   0.530572 0.018393 0.740092 -0.157955
C87   C     C_R   0.500000 0.426542 0.500001 0.870971
C88   C     C_R   1.000000 0.926542 0.500001 0.870976
C89   C     C_R   0.495182 0.326249 0.561460 -0.166528
C90   C     C_R   0.504847 0.326246 0.438536 -0.166550
C91   C     C_R   0.995182 0.826249 0.561460 -0.166528
C92   C     C_R   0.004847 0.826246 0.438536 -0.166552
C93   C     C_R   0.495223 0.365428 0.561498 -0.199800
C94   C     C_R   0.504792 0.365425 0.438501 -0.199816
C95   C     C_R   0.995223 0.865428 0.561498 -0.199799
C96   C     C_R   0.004792 0.865425 0.438501 -0.199817
C97   C     C_R   0.500004 0.385307 0.500000 -0.037735
C98   C     C_R   0.000004 0.885307 0.500001 -0.037735
C99   C     C_R   0.500018 0.306795 0.499997 0.163284
C100  C     C_R   0.000018 0.806795 0.499998 0.163285
C101  C     C_1   0.500021 0.266781 0.500001 -0.072056
C102  C     C_1   0.000021 0.766781 0.500001 -0.072056
C103  C     C_1   0.000021 0.733132 0.500005 -0.072962
C104  C     C_1   0.500021 0.233132 0.500005 -0.072961
C105  C     C_R   0.966140 0.673664 0.541767 -0.167437
C106  C     C_R   0.033887 0.673661 0.458239 -0.167462
C107  C     C_R   0.466140 0.173664 0.541774 -0.167439
C108  C     C_R   0.533888 0.173661 0.458233 -0.167459
C109  C     C_R   0.966081 0.634488 0.541730 -0.204167
C110  C     C_R   0.033934 0.634485 0.458263 -0.204076
C111  C     C_R   0.466081 0.134488 0.541736 -0.204145
C112  C     C_R   0.533935 0.134485 0.458257 -0.204103
C113  C     C_R   0.000005 0.614619 0.499994 -0.039865
C114  C     C_R   0.500005 0.114619 0.499994 -0.039850
C115  C     C_3   0.000137 0.535508 0.270646 -0.152784
C116  C     C_3   0.999259 0.535492 0.729964 -0.152808
C117  C     C_3   0.500626 0.035492 0.270157 -0.152829
C118  C     C_3   0.499173 0.035490 0.730050 -0.152812
C119  C     C_R   0.000017 0.693115 0.500007 0.162900
C120  C     C_R   0.500017 0.193115 0.500007 0.162908
C121  C     C_R   0.499022 0.673616 0.444015 -0.166578
C122  C     C_R   0.500952 0.673615 0.555989 -0.166590
C123  C     C_R   0.998332 0.173618 0.444721 -0.166584
C124  C     C_R   0.001642 0.173617 0.555283 -0.166596
C125  C     C_R   0.499039 0.634436 0.443922 -0.200199
C126  C     C_R   0.500945 0.634436 0.556082 -0.200235
C127  C     C_R   0.998355 0.134436 0.444622 -0.200134
C128  C     C_R   0.001628 0.134436 0.555382 -0.200173
C129  C     C_R   0.499995 0.614545 0.500001 -0.038847
C130  C     C_R   0.999995 0.114545 0.500001 -0.038780
C131  C     C_R   0.499985 0.693072 0.500001 0.162707
C132  C     C_R   0.999985 0.193074 0.500001 0.162772
C133  C     C_1   0.499987 0.733103 0.499994 -0.072432
C134  C     C_1   0.999987 0.233107 0.499993 -0.072404
C135  C     C_1   0.999990 0.266760 0.499986 -0.073151
C136  C     C_1   0.499989 0.766757 0.499987 -0.073139
C137  C     C_R   0.966148 0.326250 0.525776 -0.167658
C138  C     C_R   0.033840 0.326248 0.474197 -0.167676
C139  C     C_R   0.466080 0.826245 0.526601 -0.167718
C140  C     C_R   0.533909 0.826242 0.473375 -0.167728
C141  C     C_R   0.966095 0.365433 0.525928 -0.204426
C142  C     C_R   0.033896 0.365430 0.474065 -0.204366
C143  C     C_R   0.466028 0.865426 0.526740 -0.204382
C144  C     C_R   0.533963 0.865424 0.473254 -0.204365
C145  C     C_R   0.999996 0.385304 0.500002 -0.037112
C146  C     C_R   0.499996 0.885301 0.500002 -0.037221
C147  C     C_3   0.999971 0.499685 0.310738 0.021218
C148  C     C_3   0.000040 0.499702 0.689252 0.021212
C149  C     C_3   0.499963 0.999687 0.310745 0.021172
C150  C     C_3   0.500041 0.999702 0.689250 0.021204
C151  C     C_R   0.999994 0.306791 0.499982 0.162868
C152  C     C_R   0.499993 0.806786 0.499983 0.162927
C153  C     C_3   0.968902 0.481959 0.301650 -0.168028
C154  C     C_3   0.031394 0.482521 0.698051 -0.168412
C155  C     C_3   0.468660 0.982401 0.301892 -0.168224
C156  C     C_3   0.531438 0.982599 0.698007 -0.168412
C157  C     C_3   0.999827 0.463964 0.229537 -0.171005
C158  C     C_3   0.000800 0.463999 0.769830 -0.171249
C159  C     C_3   0.499321 0.963983 0.230043 -0.171064
C160  C     C_3   0.500890 0.964001 0.769741 -0.171242
C161  C     C_3   0.030898 0.481684 0.239758 -0.166594
C162  C     C_3   0.969448 0.481174 0.759895 -0.166453
C163  C     C_3   0.530624 0.981264 0.240031 -0.166451
C164  C     C_3   0.469496 0.981099 0.759848 -0.166440
C165  C     C_3   0.031060 0.517516 0.198379 -0.158630
C166  C     C_3   0.968672 0.516976 0.801897 -0.158327
C167  C     C_3   0.531283 0.017079 0.198153 -0.158407
C168  C     C_3   0.468631 0.016899 0.801938 -0.158276
H1    H     H_    0.000261 0.564649 0.289497 0.127256
H2    H     H_    0.998631 0.564615 0.711634 0.127355
H3    H     H_    0.501154 0.064618 0.288603 0.127281
H4    H     H_    0.498473 0.064611 0.711792 0.127354
H5    H     H_    0.688843 0.492501 0.411830 0.133313
H6    H     H_    0.311166 0.492409 0.588183 0.133300
H7    H     H_    0.188844 0.992553 0.411870 0.133282
H8    H     H_    0.811165 0.992427 0.588171 0.133288
H9    H     H_    0.811156 0.560636 0.179950 0.133533
H10   H     H_    0.188821 0.560242 0.824391 0.133644
H11   H     H_    0.311156 0.060641 0.180007 0.133528
H12   H     H_    0.688822 0.060236 0.824474 0.133646
H13   H     H_    0.880116 0.439121 0.128542 0.156020
H14   H     H_    0.119852 0.439558 0.867087 0.155928
H15   H     H_    0.380116 0.939115 0.128482 0.156010
H16   H     H_    0.619850 0.939563 0.867005 0.155927
H17   H     H_    0.811194 0.439378 0.197494 0.133467
H18   H     H_    0.188787 0.439826 0.798080 0.133588
H19   H     H_    0.311195 0.939371 0.197432 0.133462
H20   H     H_    0.688786 0.939830 0.797999 0.133588
H21   H     H_    0.491384 0.311152 0.609210 0.133151
H22   H     H_    0.508649 0.311148 0.390786 0.133132
H23   H     H_    0.991384 0.811152 0.609210 0.133150
H24   H     H_    0.008649 0.811148 0.390786 0.133131
H25   H     H_    0.491343 0.380092 0.609677 0.155872
H26   H     H_    0.508667 0.380088 0.390323 0.155859
H27   H     H_    0.991343 0.880092 0.609677 0.155871
H28   H     H_    0.008667 0.880088 0.390323 0.155857
H29   H     H_    0.939857 0.688760 0.574232 0.133718
H30   H     H_    0.060175 0.688755 0.425778 0.133705
H31   H     H_    0.439856 0.188760 0.574244 0.133714
H32   H     H_    0.560176 0.188755 0.425767 0.133705
H33   H     H_    0.939587 0.619813 0.574499 0.156351
H34   H     H_    0.060423 0.619808 0.425488 0.156345
H35   H     H_    0.439586 0.119813 0.574510 0.156342
H36   H     H_    0.560424 0.119808 0.425477 0.156339
H37   H     H_    0.498229 0.688709 0.400584 0.133341
H38   H     H_    0.501743 0.688708 0.599419 0.133327
H39   H     H_    0.997015 0.188713 0.401833 0.133296
H40   H     H_    0.002957 0.188712 0.598170 0.133282
H41   H     H_    0.943870 0.532501 0.266602 0.132624
H42   H     H_    0.055543 0.533448 0.733990 0.133102
H43   H     H_    0.444337 0.033266 0.266141 0.132913
H44   H     H_    0.555461 0.033585 0.734070 0.133154
H45   H     H_    0.498243 0.619792 0.400121 0.156569
H46   H     H_    0.501744 0.619791 0.599881 0.156560
H47   H     H_    0.997020 0.119789 0.401379 0.156497
H48   H     H_    0.002967 0.119788 0.598624 0.156486
H49   H     H_    0.939877 0.311160 0.545727 0.133554
H50   H     H_    0.060111 0.311155 0.454239 0.133544
H51   H     H_    0.439753 0.811155 0.547204 0.133559
H52   H     H_    0.560234 0.811151 0.452765 0.133552
H53   H     H_    0.939618 0.380108 0.545995 0.155356
H54   H     H_    0.060374 0.380103 0.454007 0.155351
H55   H     H_    0.439493 0.880097 0.547468 0.155453
H56   H     H_    0.560499 0.880093 0.452535 0.155448
H57   H     H_    0.943557 0.467415 0.345582 0.142194
H58   H     H_    0.056972 0.468429 0.653890 0.142569
H59   H     H_    0.443123 0.968214 0.346009 0.142551
H60   H     H_    0.557051 0.968569 0.653813 0.142655
H61   H     H_    0.999704 0.434705 0.211198 0.148105
H62   H     H_    0.001434 0.434760 0.787645 0.148072
H63   H     H_    0.498789 0.934739 0.212111 0.148146
H64   H     H_    0.501596 0.934764 0.787484 0.148071
H65   H     H_    0.056113 0.466911 0.233200 0.142807
H66   H     H_    0.944506 0.465984 0.766161 0.142543
H67   H     H_    0.555622 0.966150 0.233697 0.142567
H68   H     H_    0.444591 0.965848 0.766075 0.142463
H69   H     H_    0.056388 0.531994 0.154258 0.131629
H70   H     H_    0.943114 0.531001 0.846257 0.131576
H71   H     H_    0.556799 0.031198 0.153839 0.131436
H72   H     H_    0.443039 0.030861 0.846333 0.131533
H73   H     H_    0.688700 0.507340 0.210754 0.133288
H74   H     H_    0.311280 0.507509 0.789168 0.133265
H75   H     H_    0.188701 0.007283 0.210707 0.133269
H76   H     H_    0.811280 0.007485 0.789185 0.133265
H77   H     H_    0.619767 0.507255 0.279221 0.156101
H78   H     H_    0.380216 0.507392 0.720725 0.156097
H79   H     H_    0.119769 0.007201 0.279175 0.156099
H80   H     H_    0.880215 0.007372 0.720741 0.156114
H81   H     H_    0.619894 0.492384 0.481197 0.156210
H82   H     H_    0.380116 0.492263 0.518843 0.156218
H83   H     H_    0.119896 0.992438 0.481239 0.156173
H84   H     H_    0.880115 0.992283 0.518829 0.156199
O1    O     O_R   0.944560 0.468710 0.055440 -0.624866
O2    O     O_R   0.055440 0.468710 0.944560 -0.624821
O3    O     O_R   0.444560 0.968710 0.055440 -0.624887
O4    O     O_R   0.555440 0.968710 0.944560 -0.624800
O5    O     O_R   0.555450 0.499900 0.497080 -0.622983
O6    O     O_R   0.444550 0.499900 0.502920 -0.622976
O7    O     O_R   0.055450 0.999900 0.497080 -0.623049
O8    O     O_R   0.944550 0.999900 0.502920 -0.623041
O9    O     O_R   0.555440 0.499880 0.392050 -0.623779
O10   O     O_R   0.444560 0.499880 0.607950 -0.623761
O11   O     O_R   0.055440 0.999880 0.392050 -0.623718
O12   O     O_R   0.944560 0.999880 0.607950 -0.623699
O13   O     O_R   0.500000 0.444470 0.552540 -0.623292
O14   O     O_R   0.500000 0.444470 0.447460 -0.623306
O15   O     O_R   1.000000 0.944470 0.552540 -0.623289
O16   O     O_R   0.000000 0.944470 0.447460 -0.623307
O17   O     O_R   0.944560 0.531300 0.055450 -0.626082
O18   O     O_R   0.055440 0.531300 0.944550 -0.626037
O19   O     O_R   0.444560 0.031300 0.055450 -0.626102
O20   O     O_R   0.555440 0.031300 0.944550 -0.626015
O21   O     O_R   0.000010 0.468710 0.093020 -0.627745
O22   O     O_R   0.999990 0.468710 0.906980 -0.628002
O23   O     O_R   0.500010 0.968710 0.093020 -0.627735
O24   O     O_R   0.499990 0.968710 0.906980 -0.628005
O25   O     O_R   0.000010 0.531300 0.093030 -0.623827
O26   O     O_R   0.999990 0.531300 0.906970 -0.623562
O27   O     O_R   0.500010 0.031300 0.093030 -0.623838
O28   O     O_R   0.499990 0.031300 0.906970 -0.623559
O29   O     O_R   0.031280 0.555400 0.468730 -0.624276
O30   O     O_R   0.968720 0.555400 0.531270 -0.624305
O31   O     O_R   0.531280 0.055400 0.468730 -0.624287
O32   O     O_R   0.468720 0.055400 0.531270 -0.624295
O33   O     O_R   0.031290 0.499960 0.375690 -0.625752
O34   O     O_R   0.968710 0.499960 0.624310 -0.625649
O35   O     O_R   0.531290 0.999960 0.375690 -0.625703
O36   O     O_R   0.468710 0.999960 0.624310 -0.625672
O37   O     O_R   0.968700 0.499940 0.438280 -0.625639
O38   O     O_R   0.031300 0.499940 0.561720 -0.625754
O39   O     O_R   0.468700 0.999940 0.438280 -0.625684
O40   O     O_R   0.531300 0.999940 0.561720 -0.625724
O41   O     O_R   0.031310 0.444530 0.468680 -0.626401
O42   O     O_R   0.968690 0.444530 0.531320 -0.626437
O43   O     O_R   0.531310 0.944530 0.468680 -0.626456
O44   O     O_R   0.468690 0.944530 0.531320 -0.626471
O45   O     O_R   0.500010 0.555340 0.552490 -0.623516
O46   O     O_R   0.499990 0.555340 0.447510 -0.623498
O47   O     O_R   0.000010 0.055340 0.552490 -0.623501
O48   O     O_R   0.999990 0.055340 0.447510 -0.623480
Zn1   Zn    Zn3+2 1.000000 0.458210 0.000000 0.936577
Zn2   Zn    Zn3+2 0.500000 0.958210 0.000000 0.936584
Zn3   Zn    Zn3+2 1.000000 0.541790 0.000000 0.940585
Zn4   Zn    Zn3+2 0.500000 0.041790 0.000000 0.940583
Zn5   Zn    Zn3+2 0.041800 0.499960 0.458210 0.938585
Zn6   Zn    Zn3+2 0.958200 0.499960 0.541790 0.938696
Zn7   Zn    Zn3+2 0.541800 0.999960 0.458210 0.938594
Zn8   Zn    Zn3+2 0.458200 0.999960 0.541790 0.938635
Zn9   Zn    Zn3+2 0.500010 0.499910 0.570130 0.940374
Zn10  Zn    Zn3+2 0.499990 0.499910 0.429870 0.940368
Zn11  Zn    Zn3+2 0.000010 0.999910 0.570130 0.940371
Zn12  Zn    Zn3+2 0.999990 0.999910 0.429870 0.940366
H85   H     H_    0.880087 0.560909 0.111001 0.156068
H86   H     H_    0.119877 0.560490 0.893388 0.155942
H87   H     H_    0.380086 0.060915 0.111059 0.156059
H88   H     H_    0.619878 0.060484 0.893471 0.155946

loop_
_geom_bond_atom_site_label_1
_geom_bond_atom_site_label_2
_ccdc_geom_bond_type
C4    O20   A    
C60   H16   S    
C55   C59   A    
C122  H38   S    
C13   H77   S    
O1    Zn1   S    
C46   O22   A    
C89   C99   A    
C153  H57   S    
C154  C158  S    
C84   C154  S    
C7    C159  S    
C29   C33   S    
C139  C152  A    
C85   C155  S    
C108  C120  A    
C8    C168  S    
C125  H45   S    
C140  H52   S    
C12   C16   A    
C91   C100  A    
C115  C165  S    
C140  C152  A    
O4    Zn2   S    
C141  C145  A    
C156  H60   S    
C105  H29   S    
C76   C146  S    
C4    C56   S    
C116  C166  S    
C2    O2    A    
O12   Zn11  S    
C41   C49   A    
C136  C152  S    
C47   O27   A    
C16   H80   S    
C25   C29   A    
C81   O7    A    
C82   O8    A    
C164  C168  S    
O6    Zn10  S    
C111  H35   S    
C62   C66   A    
C88   O16   A    
C94   C97   A    
O44   Zn8   S    
C91   H23   S    
C17   C21   A    
C159  H63   S    
C19   C23   A    
C10   C30   A    
C16   C20   A    
C77   C129  S    
C85   C117  S    
O16   Zn12  S    
C99   C101  S    
C45   O25   A    
O13   Zn9   S    
C112  H36   S    
C107  C120  A    
O15   Zn11  S    
C77   O45   A    
O27   Zn4   S    
C94   H26   S    
C57   C61   A    
O18   Zn3   S    
O42   Zn6   S    
C138  C151  A    
C166  H70   S    
C59   C63   A    
C110  H34   S    
C60   C64   A    
C148  C162  S    
C149  C155  S    
O46   Zn10  S    
C127  H47   S    
C42   H10   S    
C49   C53   A    
C8    C86   S    
C147  C153  S    
O29   Zn5   S    
C87   O14   A    
C125  C129  A    
C161  H65   S    
C132  C134  S    
C137  H49   S    
O39   Zn8   S    
C117  C149  S    
C161  C165  S    
C141  H53   S    
C71   C147  S    
C122  C126  A    
C20   C82   S    
C123  C132  A    
C11   H75   S    
C9    H73   S    
O20   Zn4   S    
C112  C114  A    
C157  H61   S    
C155  H59   S    
C64   C68   A    
C41   H9    S    
C22   H82   S    
C75   O42   A    
C147  C161  S    
C1    O17   A    
C92   C96   A    
C3    O19   A    
C124  C132  A    
C7    C167  S    
C72   O38   A    
O36   Zn8   S    
C9    C13   A    
C139  C143  A    
C12   H76   S    
C37   C65   S    
C160  H64   S    
C51   C55   A    
C62   H18   S    
C44   C52   A    
C167  H71   S    
O26   Zn3   S    
C84   C116  S    
O8    Zn12  S    
C11   C15   A    
C85   H43   S    
C28   C32   A    
C6    C158  S    
C30   C34   S    
C155  C159  S    
C79   O5    A    
C83   C115  S    
C156  C160  S    
C80   O10   A    
C76   O43   A    
C10   C14   A    
C121  C125  A    
C61   C65   A    
C123  C127  A    
C69   O30   A    
C61   H17   S    
C116  H2    S    
C59   H15   S    
C64   H20   S    
O40   Zn7   S    
C128  H48   S    
C48   O24   A    
C42   C50   A    
C26   C30   A    
C63   H19   S    
C40   C68   S    
C82   O12   A    
C4    O4    A    
C93   C97   A    
C90   C99   A    
C90   H22   S    
C21   C25   A    
C18   C22   A    
C107  C111  A    
C24   C28   A    
C32   C36   S    
C81   O11   A    
C134  C135  T    
C83   C153  S    
C150  C164  S    
C124  C128  A    
C78   C130  S    
C107  H31   S    
O32   Zn8   S    
C45   O21   A    
C89   C93   A    
C102  C103  T    
O14   Zn10  S    
C163  H67   S    
C91   C95   A    
C139  H51   S    
C43   C67   A    
C104  C120  S    
C19   C81   S    
C124  H40   S    
C58   C62   A    
C143  C146  A    
O43   Zn7   S    
C6    C166  S    
C106  C119  A    
C164  H68   S    
C122  C131  A    
C121  H37   S    
C44   H12   S    
O23   Zn2   S    
C168  H72   S    
O33   Zn5   S    
C15   C19   A    
C43   H11   S    
C50   C54   A    
C154  H58   S    
C160  C164  S    
C86   H44   S    
O30   Zn6   S    
C106  C110  A    
C84   H42   S    
C26   H6    S    
C70   O31   A    
C115  C147  S    
C118  C150  S    
C23   H83   S    
C126  H46   S    
C162  C166  S    
C106  H30   S    
C86   C156  S    
C48   O28   A    
C142  C145  A    
C148  C154  S    
O19   Zn4   S    
C1    O1    A    
C90   C94   A    
C2    O18   A    
C6    C84   S    
O9    Zn10  S    
C24   H84   S    
C72   O34   A    
C144  C146  A    
C138  C142  A    
C27   H7    S    
C116  C148  S    
C53   C57   A    
C28   H8    S    
O37   Zn6   S    
C5    C45   S    
C75   C145  S    
C108  C112  A    
C7    C47   S    
C35   C39   T    
C8    C48   S    
C117  H3    S    
C118  H4    S    
C69   C113  S    
C73   O39   A    
C74   O40   A    
O45   Zn9   S    
C87   O13   A    
C15   H79   S    
C101  C104  T    
C5    C157  S    
C27   C31   A    
C2    C54   S    
C79   O9    A    
C31   C35   S    
C80   O6    A    
C8    C160  S    
O22   Zn1   S    
C157  C161  S    
O17   Zn3   S    
C137  C141  A    
C95   H27   S    
C52   H88   S    
C73   C149  S    
C93   H25   S    
C140  C144  A    
O35   Zn7   S    
C128  C130  A    
C88   O15   A    
C13   C17   A    
C165  H69   S    
C126  C129  A    
C58   H14   S    
C109  H33   S    
C75   O41   A    
C143  H55   S    
C43   C51   A    
C7    C85   S    
C105  C109  A    
C117  C167  S    
C135  C151  S    
C118  C168  S    
C46   O26   A    
C111  C114  A    
C25   H5    S    
C153  C157  S    
C33   C37   T    
C162  H66   S    
C56   C60   A    
C96   H28   S    
C51   H87   S    
C22   C26   A    
C89   H21   S    
C105  C119  A    
O24   Zn2   S    
C92   H24   S    
C77   O46   A    
O25   Zn3   S    
C14   C18   A    
C10   H74   S    
C115  H1    S    
C158  H62   S    
C57   H13   S    
C95   C98   A    
C70   C114  S    
O21   Zn1   S    
C76   O44   A    
C21   H81   S    
C5    C83   S    
C47   O23   A    
C17   C79   S    
O5    Zn9   S    
C1    C53   S    
O7    Zn11  S    
C69   O29   A    
C38   C66   S    
C133  C136  T    
C149  C163  S    
C23   C27   A    
C109  C113  A    
O34   Zn6   S    
C11   C31   A    
C150  C156  S    
C12   C32   A    
C3    C55   S    
O11   Zn12  S    
C121  C131  A    
O31   Zn7   S    
C3    O3    A    
C63   C67   A    
C74   C150  S    
O28   Zn4   S    
C20   C24   A    
C36   C40   T    
C86   C118  S    
C41   C65   A    
C72   C148  S    
C96   C98   A    
C108  H32   S    
C163  C167  S    
O41   Zn5   S    
C73   O35   A    
C74   O36   A    
C100  C102  S    
C123  H39   S    
C83   H41   S    
C110  C113  A    
O2    Zn1   S    
O47   Zn11  S    
C78   O47   A    
C5    C165  S    
C71   O33   A    
C159  C163  S    
O48   Zn12  S    
C44   C68   A    
O10   Zn9   S    
C49   H85   S    
C92   C100  A    
C54   C58   A    
O38   Zn5   S    
C6    C46   S    
C34   C38   T    
C39   C67   S    
C103  C119  S    
C131  C133  S    
C9    C29   A    
O3    Zn2   S    
C127  C130  A    
C70   O32   A    
C78   O48   A    
C88   C98   S    
C144  H56   S    
C158  C162  S    
C50   H86   S    
C138  H50   S    
C18   C80   S    
C42   C66   A    
C137  C151  A    
C71   O37   A    
C87   C97   S    
C142  H54   S    
C52   C56   A    
C14   H78   S    
