data_mof_unit_7761.cif
_audit_creation_date              2012-12-10T20:45:31-0500
_audit_creation_method            fapswitch 2.2
_symmetry_space_group_name_H-M    P1
_symmetry_Int_Tables_number       1
_space_group_crystal_system       triclinic
_cell_length_a                    10.752851
_cell_length_b                    10.780057
_cell_length_c                    9.850933
_cell_angle_alpha                 90.98027
_cell_angle_beta                  91.435486
_cell_angle_gamma                 89.517802
_cell_volume                      1141.32229422

loop_
_atom_site_label
_atom_site_type_symbol
_atom_type_description
_atom_site_fract_x
_atom_site_fract_y
_atom_site_fract_z
_atom_type_partial_charge
C1    C     C_R   0.504698 0.259616 0.498665 0.911321
C2    C     C_R   0.873800 0.493809 0.981492 -0.257944
C3    C     C_R   0.877049 0.371643 0.026965 0.597074
C4    C     C_R   0.260316 0.503469 0.498145 0.878371
C5    C     C_R   0.894720 0.274328 0.931865 -0.208298
C6    C     C_R   0.906687 0.300178 0.794151 -0.162717
C7    C     C_R   0.898751 0.422553 0.748687 0.162314
C8    C     C_R   0.497032 0.065104 0.618045 -0.063915
C9    C     C_R   0.504342 0.126521 0.495087 -0.208301
C10   C     C_R   0.501841 0.058470 0.370787 0.516772
C11   C     C_R   0.483674 0.930728 0.376020 -0.364818
C12   C     C_R   0.215812 0.804822 0.100571 -0.127320
C13   C     C_R   0.484960 0.870740 0.500538 -0.139210
C14   C     C_R   0.484542 0.938641 0.621323 0.031646
C15   C     C_3   0.565470 0.923506 0.745872 -0.534635
C16   C     C_R   0.496066 0.739550 0.500781 0.902356
C17   C     C_3   0.585431 0.062517 0.739697 0.440732
C18   C     C_R   0.400026 0.455814 0.067440 0.194894
C19   C     C_R   0.587480 0.563006 0.075787 -0.143406
C20   C     C_R   0.586626 0.564033 0.931434 -0.117977
C21   C     C_R   0.399466 0.456966 0.925033 0.142626
C22   C     C_3   0.342959 0.331831 0.912679 -0.596227
C23   C     C_R   0.930716 0.560743 0.396671 -0.172321
C24   C     C_3   0.347811 0.328293 0.067100 0.298728
C25   C     C_R   0.740336 0.500688 0.502089 0.855838
C26   C     C_R   0.206720 0.844365 0.235851 -0.136563
C27   C     C_R   0.158016 0.765449 0.332006 -0.166387
C28   C     C_R   0.115929 0.647016 0.292561 0.109151
C29   C     C_R   0.124148 0.608373 0.156532 -0.081640
C30   C     C_R   0.174462 0.686782 0.060896 -0.164224
C31   C     C_3   0.786170 0.268982 0.199968 -0.243584
C32   C     C_3   0.565363 0.044852 0.143491 -0.450173
C33   C     C_3   0.765439 0.057043 0.598476 -0.307718
C34   C     C_R   0.873281 0.504718 0.505823 -0.086397
C35   C     C_3   0.194485 0.204926 0.149584 -0.279568
C36   C     C_R   0.944679 0.453523 0.613530 -0.003934
C37   C     C_R   0.071260 0.447438 0.601540 -0.263169
C38   C     C_R   0.128234 0.504876 0.494883 -0.064406
C39   C     C_R   0.058841 0.566213 0.393238 0.019581
C40   C     C_R   0.883547 0.519212 0.843753 -0.233011
H1    H     H_    0.254309 0.865822 0.026531 0.116028
H2    H     H_    0.246881 0.335404 0.868876 0.218777
H3    H     H_    0.404970 0.262828 0.864004 0.178842
H4    H     H_    0.415786 0.261183 0.108882 0.167248
H5    H     H_    0.151524 0.797085 0.436570 0.113514
H6    H     H_    0.091961 0.517654 0.124985 0.203819
H7    H     H_    0.875734 0.606093 0.317790 0.146527
H8    H     H_    0.886010 0.614906 0.812066 0.143677
H9    H     H_    0.866677 0.570019 0.053830 0.138247
H10   H     H_    0.777909 0.270362 0.311938 0.194095
H11   H     H_    0.811038 0.172471 0.169613 0.134801
H12   H     H_    0.906381 0.179606 0.964670 0.139932
H13   H     H_    0.694000 0.296860 0.155717 0.192207
H14   H     H_    0.645079 0.986224 0.178952 0.179780
H15   H     H_    0.600597 0.105972 0.064113 0.188434
H16   H     H_    0.490218 0.988281 0.094720 0.175537
H17   H     H_    0.476155 0.876523 0.283016 0.193867
H18   H     H_    0.759666 0.132233 0.523037 0.161078
H19   H     H_    0.725338 0.970957 0.553488 0.159954
H20   H     H_    0.865383 0.036958 0.618869 0.163087
H21   H     H_    0.254690 0.165178 0.231596 0.176842
H22   H     H_    0.197869 0.145695 0.056009 0.146374
H23   H     H_    0.930655 0.226058 0.724182 0.159241
H24   H     H_    0.097422 0.205021 0.185042 0.209654
H25   H     H_    0.180952 0.656136 0.956063 0.140386
H26   H     H_    0.126474 0.403863 0.681333 0.159748
H27   H     H_    0.510500 0.896078 0.834478 0.159151
H28   H     H_    0.649752 0.865256 0.729735 0.205756
H29   H     H_    0.546061 0.111600 0.828563 0.065098
H30   H     H_    0.659074 0.612062 0.133331 0.148512
H31   H     H_    0.237112 0.936290 0.266205 0.127126
H32   H     H_    0.655884 0.615882 0.879550 0.149469
N1    N     N_R   0.499160 0.499140 0.142800 -0.139206
N2    N     N_R   0.499160 0.499180 0.857150 -0.098776
O1    O     O_R   0.500020 0.316790 0.614690 -0.613293
O2    O     O_3   0.517642 0.120123 0.249253 -0.623702
O3    O     O_3   0.711371 0.098403 0.721294 -0.595263
O4    O     O_3   0.228692 0.328021 0.123986 -0.582000
O5    O     O_R   0.500000 0.316760 0.385350 -0.579813
O6    O     O_R   0.316770 0.500030 0.614670 -0.632160
O7    O     O_R   0.316750 0.499990 0.385330 -0.581765
O8    O     O_R   0.500000 0.683240 0.614650 -0.622724
O9    O     O_R   0.499980 0.683210 0.385310 -0.629398
O10   O     O_R   0.683250 0.500010 0.614670 -0.614838
O11   O     O_R   0.683230 0.499970 0.385330 -0.621429
O12   O     O_3   0.879982 0.352400 0.165675 -0.634955
Zn1   Zn    Zn3+2 0.500010 0.500020 0.653130 0.953536
Zn2   Zn    Zn3+2 0.499990 0.499980 0.346870 0.975434

loop_
_geom_bond_atom_site_label_1
_geom_bond_atom_site_label_2
_ccdc_geom_bond_type
C17   H29   S    
C33   H18   S    
C18   C21   A    
C7    C36   S    
C19   C20   A    
O10   Zn1   S    
C26   C27   A    
C29   C30   A    
C18   C24   S    
C21   C22   S    
C28   C29   A    
C4    O6    A    
O6    Zn1   S    
C5    C6    A    
O8    Zn1   S    
C15   C17   S    
C32   H14   S    
C10   O2    S    
C4    O7    A    
C8    C9    A    
C25   O10   A    
C7    C40   A    
C5    H12   S    
C35   H24   S    
N2    Zn1   S    
C9    C10   A    
C32   H15   S    
C25   C34   S    
C27   H5    S    
O9    Zn2   S    
C33   H19   S    
C31   O12   S    
C13   C14   A    
C3    O12   S    
C26   H31   S    
C17   O3    S    
O5    Zn2   S    
C38   C39   A    
C23   H7    S    
C1    O1    A    
C19   N1    A    
C1    C9    S    
C28   C39   S    
C21   N2    A    
C16   O9    A    
C12   C26   A    
C6    H23   S    
N1    Zn2   S    
C37   C38   A    
C2    H9    S    
C22   H3    S    
C23   C34   A    
C15   H27   S    
C37   H26   S    
C25   O11   A    
C20   N2    A    
C35   H21   S    
C31   H13   S    
C24   O4    S    
C4    C38   S    
C18   N1    A    
C30   H25   S    
C24   H4    S    
C22   C24   S    
C31   H10   S    
C1    O5    A    
O11   Zn2   S    
O1    Zn1   S    
C40   H8    S    
C36   C37   A    
C8    C14   A    
C12   C30   A    
C31   H11   S    
C3    C5    A    
C32   O2    S    
C6    C7    A    
C12   H1    S    
C33   H20   S    
C35   O4    S    
C8    C17   S    
C29   H6    S    
C2    C3    A    
C11   C13   A    
C33   O3    S    
C22   H2    S    
C23   C39   A    
C15   H28   S    
C35   H22   S    
C34   C36   A    
O7    Zn2   S    
C10   C11   A    
C2    C40   A    
C16   O8    A    
C13   C16   S    
C27   C28   A    
C14   C15   S    
C20   H32   S    
C19   H30   S    
C11   H17   S    
C32   H16   S    
