data_mof_unit_53907.cif
_audit_creation_date              2012-12-10T20:27:16-0500
_audit_creation_method            fapswitch 2.2
_symmetry_space_group_name_H-M    P1
_symmetry_Int_Tables_number       1
_space_group_crystal_system       triclinic
_cell_length_a                    10.632413
_cell_length_b                    10.653446
_cell_length_c                    9.901124
_cell_angle_alpha                 89.561637
_cell_angle_beta                  103.011752
_cell_angle_gamma                 90.557222
_cell_volume                      1092.65345285

loop_
_atom_site_label
_atom_site_type_symbol
_atom_type_description
_atom_site_fract_x
_atom_site_fract_y
_atom_site_fract_z
_atom_type_partial_charge
C1    C     C_R   0.495931 0.260103 0.499602 0.868902
C2    C     C_R   0.573026 0.584306 0.086868 -0.002295
C3    C     C_R   0.572512 0.583458 0.943392 -0.177339
C4    C     C_R   0.258378 0.494514 0.442695 0.931136
C5    C     C_R   0.435990 0.408268 0.914530 0.220936
C6    C     C_3   0.294527 0.381734 0.876981 -0.527619
C7    C     C_3   0.296141 0.378768 0.030529 -0.499898
C8    C     C_R   0.495908 0.739876 0.498958 0.887911
C9    C     C_R   0.741465 0.494483 0.557211 0.944368
C10   C     C_2   0.120708 0.472171 0.410812 -0.382646
C11   C     C_2   0.067713 0.423264 0.509130 -0.158685
C12   C     C_R   0.476314 0.128498 0.497961 -0.096592
C13   C     C_2   0.878599 0.471859 0.588492 -0.369905
C14   C     C_2   0.930119 0.422947 0.490125 -0.170289
C15   C     C_R   0.500209 0.063046 0.622980 0.130242
C16   C     C_R   0.653006 0.681153 0.171183 0.186478
C17   C     C_R   0.608892 0.805121 0.167274 -0.156111
C18   C     C_R   0.688479 0.899575 0.239054 -0.134485
C19   C     C_R   0.813431 0.871244 0.312372 -0.127764
C20   C     C_R   0.860088 0.749185 0.310837 -0.156397
C21   C     C_R   0.780956 0.655071 0.237957 -0.112816
C22   C     C_R   0.427255 0.065417 0.373067 -0.241466
C23   C     C_R   0.425885 0.935277 0.373145 -0.231811
C24   C     C_R   0.476314 0.871253 0.497308 -0.092795
C25   C     C_R   0.500559 0.935310 0.622628 0.136777
C26   C     C_3   0.613115 0.928220 0.744052 -0.490362
C27   C     C_3   0.612832 0.070569 0.744319 -0.479296
C28   C     C_R   0.436708 0.407711 0.056997 0.191671
H1    H     H_    0.871731 0.397099 0.389203 0.176921
H2    H     H_    0.062761 0.496958 0.309149 0.143433
H3    H     H_    0.397367 0.115659 0.275729 0.162632
H4    H     H_    0.393258 0.885807 0.276396 0.162309
H5    H     H_    0.586224 0.886141 0.836826 0.202175
H6    H     H_    0.700374 0.887909 0.717105 0.199727
H7    H     H_    0.585878 0.110544 0.837205 0.203325
H8    H     H_    0.513258 0.828395 0.108202 0.111423
H9    H     H_    0.653559 0.994800 0.237210 0.141142
H10   H     H_    0.874848 0.944302 0.368133 0.130416
H11   H     H_    0.958015 0.727869 0.364489 0.140662
H12   H     H_    0.699902 0.113401 0.717389 0.200255
H13   H     H_    0.819397 0.562226 0.232238 0.113934
H14   H     H_    0.629215 0.651763 0.900768 0.151462
H15   H     H_    0.239085 0.462347 0.822664 0.211866
H16   H     H_    0.271883 0.289089 0.825955 0.197214
H17   H     H_    0.239636 0.455701 0.062967 0.217997
H18   H     H_    0.276976 0.283834 0.069124 0.193302
H19   H     H_    0.125158 0.398028 0.610320 0.180418
H20   H     H_    0.937581 0.496955 0.689482 0.150817
N1    N     N_R   0.499160 0.499140 0.142600 -0.125167
N2    N     N_R   0.499160 0.499180 0.856960 -0.107879
O1    O     O_R   0.500020 0.316790 0.614700 -0.615871
O2    O     O_R   0.500000 0.316760 0.385350 -0.624741
O3    O     O_R   0.317820 0.500020 0.571850 -0.609989
O4    O     O_R   0.317800 0.499980 0.342510 -0.620068
O5    O     O_R   0.500000 0.683240 0.614650 -0.618469
O6    O     O_R   0.499980 0.683210 0.385300 -0.608214
O7    O     O_R   0.682200 0.500020 0.657490 -0.615353
O8    O     O_R   0.682180 0.499980 0.428150 -0.609062
Zn1   Zn    Zn3+2 0.500010 0.500020 0.653140 0.935950
Zn2   Zn    Zn3+2 0.499990 0.499980 0.346860 0.937582

loop_
_geom_bond_atom_site_label_1
_geom_bond_atom_site_label_2
_ccdc_geom_bond_type
C13   H20   S    
C23   C24   A    
C3    H14   S    
C6    C7    S    
C8    C24   S    
C19   H10   S    
O5    Zn1   S    
C4    O3    A    
C5    C28   A    
C2    C16   S    
C28   N1    A    
C10   H2    S    
C26   H5    S    
C11   H19   S    
C19   C20   A    
C12   C15   A    
C27   H12   S    
C4    O4    A    
C23   H4    S    
C8    O6    A    
C2    C3    A    
O3    Zn1   S    
N1    Zn2   S    
O4    Zn2   S    
C13   C14   D    
C24   C25   A    
C1    O1    A    
C26   C27   S    
C16   C21   A    
C1    C12   S    
C21   H13   S    
N2    Zn1   S    
C7    H17   S    
C8    O5    A    
C2    N1    A    
C3    N2    A    
C17   C18   A    
C9    O7    A    
C6    H15   S    
C17   H8    S    
C5    C6    S    
C1    O2    A    
C5    N2    A    
O7    Zn1   S    
O1    Zn1   S    
C10   C11   D    
C14   H1    S    
O8    Zn2   S    
C7    H18   S    
C12   C22   A    
C20   C21   A    
C15   C25   A    
C18   C19   A    
C22   H3    S    
C11   C14   S    
C20   H11   S    
C9    C13   S    
C22   C23   A    
C9    O8    A    
C6    H16   S    
O2    Zn2   S    
C27   H7    S    
C25   C26   S    
C15   C27   S    
C26   H6    S    
C7    C28   S    
O6    Zn2   S    
C4    C10   S    
C18   H9    S    
C16   C17   A    
