data_mof_unit_37069.cif
_audit_creation_date              2012-12-10T16:51:17-0500
_audit_creation_method            fapswitch 2.2
_symmetry_space_group_name_H-M    P1
_symmetry_Int_Tables_number       1
_space_group_crystal_system       triclinic
_cell_length_a                    27.752627
_cell_length_b                    8.684171
_cell_length_c                    7.438282
_cell_angle_alpha                 102.93955
_cell_angle_beta                  94.039575
_cell_angle_gamma                 92.733996
_cell_volume                      1739.10843513

loop_
_atom_site_label
_atom_site_type_symbol
_atom_type_description
_atom_site_fract_x
_atom_site_fract_y
_atom_site_fract_z
_atom_type_partial_charge
C1    C     C_R   0.498531 0.199674 0.453228 0.891848
C2    C     C_R   0.501469 0.800326 0.546771 0.891847
C3    C     C_R   0.102012 0.484926 0.528277 -0.081629
C4    C     C_R   0.897990 0.515043 0.471727 -0.081631
C5    C     C_R   0.123373 0.340655 0.459761 -0.081034
C6    C     C_R   0.876630 0.659317 0.540232 -0.081027
C7    C     C_R   0.092959 0.200150 0.405193 0.233062
C8    C     C_R   0.907045 0.799820 0.594807 0.233066
C9    C     C_R   0.131904 0.621584 0.609819 -0.067527
C10   C     C_R   0.868098 0.378385 0.390192 -0.067520
C11   C     C_R   0.354508 0.493695 0.508916 -0.037730
C12   C     C_R   0.645492 0.506301 0.491082 -0.037725
C13   C     C_R   0.969966 0.362088 0.408947 -0.010046
C14   C     C_R   0.030036 0.637879 0.591064 -0.010047
C15   C     C_R   0.979042 0.646256 0.562162 0.037857
C16   C     C_R   0.020960 0.353711 0.437847 0.037855
C17   C     C_R   0.949189 0.507295 0.482678 0.034257
C18   C     C_R   0.050813 0.492673 0.517330 0.034257
C19   C     C_R   0.938517 0.234837 0.300754 0.341467
C20   C     C_R   0.061485 0.765128 0.699262 0.341468
C21   C     C_R   0.888643 0.242026 0.300312 -0.126184
C22   C     C_R   0.111360 0.757940 0.699706 -0.126189
C23   C     C_R   0.407457 0.498563 0.502580 0.799590
C24   C     C_R   0.592543 0.501437 0.497420 0.799594
C25   C     C_R   0.042997 0.208456 0.404828 -0.115740
C26   C     C_R   0.957006 0.791513 0.595179 -0.115743
C27   C     C_2   0.497835 0.031790 0.426876 -0.361494
C28   C     C_2   0.502165 0.968210 0.573124 -0.361495
C29   C     C_R   0.174316 0.343500 0.456263 0.572608
C30   C     C_R   0.825686 0.656476 0.543713 0.572591
C31   C     C_R   0.182163 0.617269 0.607452 0.580113
C32   C     C_R   0.817839 0.382698 0.392558 0.580113
C33   C     C_R   0.273895 0.472463 0.352092 -0.088033
C34   C     C_R   0.726107 0.527743 0.647937 -0.088023
C35   C     C_R   0.324022 0.478405 0.345831 -0.205229
C36   C     C_R   0.675980 0.521810 0.654204 -0.205258
C37   C     C_R   0.333910 0.502223 0.678007 -0.210396
C38   C     C_R   0.666087 0.497555 0.321951 -0.210430
C39   C     C_R   0.283789 0.496239 0.683826 -0.091076
C40   C     C_R   0.716208 0.503528 0.316125 -0.091071
C41   C     C_R   0.253658 0.481650 0.521040 0.345938
C42   C     C_R   0.746342 0.518325 0.478947 0.345890
Cu1   Cu    Cu3+1 0.505380 0.517380 0.684380 0.957953
Cu2   Cu    Cu3+1 0.494620 0.482620 0.315620 0.957953
H1    H     H_    0.356446 0.513453 0.805790 0.158107
H2    H     H_    0.643551 0.486165 0.194136 0.158137
H3    H     H_    0.462100 0.377874 0.948624 0.225266
H4    H     H_    0.537900 0.622126 0.051376 0.225271
H5    H     H_    0.268296 0.503470 0.814865 0.140425
H6    H     H_    0.731697 0.496132 0.185048 0.140475
H7    H     H_    0.661173 0.528999 0.786504 0.157820
H8    H     H_    0.338833 0.471411 0.213572 0.157814
H9    H     H_    0.749274 0.538332 0.774084 0.145741
H10   H     H_    0.250728 0.462057 0.225983 0.145699
H11   H     H_    0.865747 0.141164 0.222188 0.228052
H12   H     H_    0.134256 0.858800 0.777835 0.228053
H13   H     H_    0.021887 0.098076 0.386731 0.205462
H14   H     H_    0.978117 0.901892 0.613282 0.205461
H15   H     H_    0.493762 0.960166 0.285937 0.180290
H16   H     H_    0.506238 0.039834 0.714063 0.180289
N1    N     N_R   0.202161 0.480671 0.528042 -0.475577
N2    N     N_R   0.797840 0.519301 0.471948 -0.475561
N3    N     N_2   0.486510 0.456430 0.038510 -0.218220
N4    N     N_2   0.513490 0.543570 0.961490 -0.218220
O1    O     O_R   0.503500 0.286120 0.619780 -0.583201
O2    O     O_R   0.496500 0.713880 0.380220 -0.583201
O3    O     O_R   0.494410 0.256780 0.308360 -0.582667
O4    O     O_R   0.505590 0.743220 0.691640 -0.582668
O5    O     O_R   0.434810 0.514700 0.655690 -0.591692
O6    O     O_R   0.565190 0.485300 0.344310 -0.591698
O7    O     O_R   0.425720 0.485350 0.344280 -0.583828
O8    O     O_R   0.574280 0.514650 0.655720 -0.583831
O9    O     O_2   0.196223 0.212211 0.380930 -0.483056
O10   O     O_2   0.803778 0.787774 0.619012 -0.483079
O11   O     O_2   0.789074 0.250630 0.318612 -0.509896
O12   O     O_2   0.210930 0.749330 0.681422 -0.509878
I1    I     I_    0.116214 0.965153 0.331434 -0.186559
I2    I     I_    0.883791 0.034820 0.668581 -0.186546
Cl1   Cl    Cl    0.956790 0.075541 0.132982 -0.545020
Cl2   Cl    Cl    0.043211 0.924418 0.867040 -0.545016

loop_
_geom_bond_atom_site_label_1
_geom_bond_atom_site_label_2
_ccdc_geom_bond_type
Cu1   O8    S    
C8    C26   A    
C31   N1    A    
Cu2   O2    S    
C34   C42   A    
C41   N1    S    
C32   O11   S    
C24   O6    A    
C39   C41   A    
Cu2   O7    S    
C19   C21   A    
C2    O4    A    
H3    N3    S    
C30   O10   S    
C9    C22   A    
H4    N4    S    
C29   O9    S    
C33   H10   S    
C3    C18   A    
C11   C37   A    
C14   C18   A    
C1    O3    A    
Cu1   O4    S    
C1    O1    A    
Cu2   O6    S    
C12   C36   A    
C42   N2    S    
C7    I1    S    
C40   C42   A    
Cu2   N3    S    
C8    I2    S    
C25   H13   S    
Cu1   N4    S    
C5    C29   A    
C28   H16   S    
C10   C21   A    
C29   N1    A    
C20   Cl2   S    
C23   O7    A    
C4    C6    A    
C5    C7    A    
C13   C19   A    
C15   C26   A    
C6    C8    A    
C2    O2    A    
C23   O5    A    
Cu1   Cu2   S    
C3    C9    A    
C14   C20   A    
Cu1   O1    S    
C19   Cl1   S    
C26   H14   S    
C36   H7    S    
C4    C17   A    
C39   H5    S    
C20   C22   A    
C30   N2    A    
C37   H1    S    
C35   H8    S    
C24   O8    A    
C21   H11   S    
C16   C25   A    
C15   C17   A    
C6    C30   A    
C3    C5    A    
C22   H12   S    
C12   C24   S    
C7    C25   A    
C13   C17   A    
C33   C41   A    
C11   C35   A    
C32   N2    A    
C37   C39   A    
C27   H15   S    
C38   C40   A    
C31   O12   S    
C40   H6    S    
C11   C23   S    
C33   C35   A    
C34   C36   A    
C12   C38   A    
C38   H2    S    
C9    C31   A    
N3    N4    D    
C10   C32   A    
C34   H9    S    
C16   C18   A    
C13   C16   A    
C27   C28   D    
C1    C27   S    
C14   C15   A    
Cu2   O3    S    
C2    C28   S    
Cu1   O5    S    
C4    C10   A    
