data_mof_unit_5362.cif
_audit_creation_date              2012-12-10T20:31:53-0500
_audit_creation_method            fapswitch 2.2
_symmetry_space_group_name_H-M    P1
_symmetry_Int_Tables_number       1
_space_group_crystal_system       triclinic
_cell_length_a                    9.874042
_cell_length_b                    10.669728
_cell_length_c                    15.493093
_cell_angle_alpha                 90.048412
_cell_angle_beta                  67.949862
_cell_angle_gamma                 89.983806
_cell_volume                      1512.85854065

loop_
_atom_site_label
_atom_site_type_symbol
_atom_type_description
_atom_site_fract_x
_atom_site_fract_y
_atom_site_fract_z
_atom_type_partial_charge
C1    C     C_R   0.498494 0.739778 0.502006 0.896678
C2    C     C_R   0.427474 0.441213 0.907110 0.097111
C3    C     C_R   0.288542 0.388608 0.957419 0.175788
C4    C     C_R   0.536293 0.443823 0.945882 0.069594
C5    C     C_R   0.496197 0.415795 0.041350 0.067787
C6    C     C_R   0.356673 0.362723 0.090495 -0.230334
C7    C     C_R   0.255719 0.347332 0.048290 -0.240866
C8    C     C_R   0.684221 0.471799 0.891853 -0.228300
C9    C     C_R   0.785839 0.487529 0.933079 -0.245499
C10   C     C_R   0.742147 0.479511 0.029327 0.177797
C11   C     C_R   0.596692 0.443866 0.084270 0.095776
C12   C     C_R   0.408754 0.497957 0.675999 0.860047
C13   C     C_R   0.840735 0.510716 0.071720 -0.219060
C14   C     C_R   0.794155 0.513621 0.168389 -0.202304
C15   C     C_R   0.552633 0.448157 0.180977 -0.268825
C16   C     C_R   0.392841 0.936646 0.484098 0.127434
C17   C     C_R   0.488301 0.871080 0.513966 -0.151761
C18   C     C_R   0.563431 0.932474 0.562269 -0.226843
C19   C     C_R   0.563287 0.063008 0.565334 0.165102
C20   C     C_R   0.487966 0.128263 0.517193 -0.129560
C21   C     C_R   0.393207 0.064029 0.485280 0.101611
C22   C     C_3   0.374079 0.072831 0.394147 -0.489008
C23   C     C_R   0.497677 0.260167 0.504195 0.892154
C24   C     C_3   0.373745 0.930722 0.393012 -0.467328
C25   C     C_R   0.912734 0.603899 0.527822 0.230611
C26   C     C_R   0.949427 0.402310 0.463823 -0.148455
C27   C     C_R   0.093314 0.402355 0.463786 -0.131275
C28   C     C_R   0.055119 0.603713 0.527878 0.218727
C29   C     C_3   0.007185 0.664460 0.621072 -0.509281
C30   C     C_3   0.853265 0.664677 0.621367 -0.517629
C31   C     C_R   0.591252 0.497581 0.324090 0.868249
C32   C     C_R   0.354277 0.475895 0.776182 -0.058766
C33   C     C_R   0.648520 0.485982 0.222963 -0.061029
C34   C     C_R   0.185026 0.377755 0.915562 -0.223234
C35   C     C_R   0.218944 0.419138 0.824303 -0.211098
C36   C     C_R   0.452602 0.493028 0.820022 -0.256682
H1    H     H_    0.150509 0.305496 0.087617 0.150110
H2    H     H_    0.951998 0.537712 0.030265 0.151379
H3    H     H_    0.625827 0.879360 0.594061 0.156721
H4    H     H_    0.266777 0.113800 0.401724 0.196731
H5    H     H_    0.470281 0.114778 0.338145 0.197440
H6    H     H_    0.266357 0.890080 0.400229 0.204700
H7    H     H_    0.469916 0.889517 0.336443 0.198311
H8    H     H_    0.911871 0.322556 0.435880 0.147396
H9    H     H_    0.163864 0.322795 0.435763 0.143023
H10   H     H_    0.020292 0.602335 0.675038 0.211067
H11   H     H_    0.440912 0.429223 0.225215 0.157738
H12   H     H_    0.053921 0.760002 0.617375 0.205309
H13   H     H_    0.777512 0.602730 0.675350 0.207213
H14   H     H_    0.811357 0.760516 0.618628 0.194788
H15   H     H_    0.870119 0.541686 0.200222 0.160620
H16   H     H_    0.897438 0.511436 0.889818 0.147886
H17   H     H_    0.079860 0.334389 0.952423 0.147009
H18   H     H_    0.142021 0.403471 0.790696 0.154879
H19   H     H_    0.550188 0.546316 0.784136 0.144069
H20   H     H_    0.324339 0.328233 0.160805 0.143681
H21   H     H_    0.725019 0.479083 0.816979 0.146081
N1    N     N_R   0.856900 0.500860 0.500610 -0.103839
N2    N     N_R   0.142540 0.500820 0.500610 -0.105093
O1    O     O_R   0.385310 0.683210 0.499990 -0.610985
O2    O     O_R   0.614650 0.683240 0.500000 -0.617608
O3    O     O_R   0.319830 0.499970 0.632240 -0.616519
O4    O     O_R   0.549170 0.500000 0.632250 -0.615880
O5    O     O_R   0.385350 0.316760 0.500000 -0.619803
O6    O     O_R   0.614690 0.316790 0.500010 -0.616763
O7    O     O_R   0.450830 0.500000 0.367750 -0.615460
O8    O     O_R   0.680170 0.500030 0.367760 -0.612990
Zn1   Zn    Zn3+2 0.346870 0.499980 0.499990 0.938928
Zn2   Zn    Zn3+2 0.653130 0.500020 0.500010 0.937012
C37   C     C_3   0.645475 0.128060 0.617257 -0.850688
H22   H     H_    0.575225 0.200851 0.664254 0.244124
H23   H     H_    0.678171 0.061206 0.660882 0.222479
H24   H     H_    0.746596 0.171506 0.567394 0.249607

loop_
_geom_bond_atom_site_label_1
_geom_bond_atom_site_label_2
_ccdc_geom_bond_type
C8    C9    A    
C31   O7    A    
O7    Zn1   S    
C16   C21   A    
C24   H6    S    
C19   C20   A    
C15   H11   S    
C4    C8    A    
C14   C33   A    
C26   H8    S    
C25   C28   A    
C31   O8    A    
C26   C27   A    
C32   C36   A    
C28   C29   S    
C5    C11   A    
C3    C7    A    
C5    C6    A    
C8    H21   S    
C22   H5    S    
O2    Zn2   S    
C34   C35   A    
C11   C15   A    
O4    Zn2   S    
C16   C17   A    
C31   C33   S    
C37   H22   S    
C9    C10   A    
C27   H9    S    
C30   H14   S    
C16   C24   S    
C21   C22   S    
C12   C32   S    
C35   H18   S    
C9    H16   S    
C29   H12   S    
C32   C35   A    
C1    O1    A    
C12   O4    A    
C18   C19   A    
C3    C34   A    
O8    Zn2   S    
C2    C4    A    
C18   H3    S    
C29   C30   S    
N2    Zn1   S    
C12   O3    A    
C14   H15   S    
C20   C23   S    
C22   H4    S    
C37   H24   S    
C17   C18   A    
C7    H1    S    
C26   N1    A    
C13   H2    S    
C23   O5    A    
C30   H13   S    
C22   C24   S    
C25   N1    A    
O5    Zn1   S    
C28   N2    A    
C2    C36   A    
C25   C30   S    
C6    H20   S    
C4    C5    A    
C10   C13   A    
C1    O2    A    
N1    Zn2   S    
C6    C7    A    
C1    C17   S    
O3    Zn1   S    
C29   H10   S    
C23   O6    A    
C2    C3    A    
C36   H19   S    
C27   N2    A    
O6    Zn2   S    
C10   C11   A    
C20   C21   A    
O1    Zn1   S    
C34   H17   S    
C24   H7    S    
C19   C37   S    
C37   H23   S    
C13   C14   A    
C15   C33   A    
