data_mof_unit_43909.cif
_audit_creation_date              2012-12-11T16:53:51-0500
_audit_creation_method            fapswitch 2.2
_symmetry_space_group_name_H-M    P1
_symmetry_Int_Tables_number       1
_space_group_crystal_system       triclinic
_cell_length_a                    14.951782
_cell_length_b                    14.732298
_cell_length_c                    17.005171
_cell_angle_alpha                 108.709203
_cell_angle_beta                  106.498231
_cell_angle_gamma                 108.185172
_cell_volume                      3048.17859567

loop_
_atom_site_label
_atom_site_type_symbol
_atom_type_description
_atom_site_fract_x
_atom_site_fract_y
_atom_site_fract_z
_atom_type_partial_charge
C1    C     C_R   0.088229 0.283298 0.071791 -0.129937
C2    C     C_R   0.065677 0.481146 0.253084 -0.128526
C3    C     C_R   0.279187 0.785395 0.176318 -0.135709
C4    C     C_R   0.939011 0.467034 0.734279 -0.130360
C5    C     C_R   0.737692 0.465344 0.048014 -0.234619
C6    C     C_R   0.334816 0.781685 0.254742 0.061894
C7    C     C_R   0.701918 0.535581 0.026562 -0.093181
C8    C     C_R   0.975470 0.418557 0.254357 0.059497
C9    C     C_R   0.001929 0.820772 0.972510 0.023513
C10   C     C_R   0.528325 0.668637 0.058464 0.168229
C11   C     C_R   0.474573 0.608524 0.093766 0.043046
C12   C     C_R   0.031944 0.481745 0.725976 0.066618
C13   C     C_R   0.525629 0.563979 0.141391 -0.217123
C14   C     C_R   0.609539 0.550966 0.127747 -0.186750
C15   C     C_R   0.641514 0.581703 0.065977 0.056471
C16   C     C_R   0.768477 0.199701 0.813023 -0.131484
C17   C     C_R   0.609154 0.653104 0.042479 0.156926
C18   C     C_3   0.577640 0.665983 0.956324 -0.354711
C19   C     C_3   0.491891 0.685516 0.975085 -0.646888
C20   C     C_R   0.969785 0.376847 0.321270 0.124737
C21   C     C_R   0.042706 0.439789 0.640458 0.132311
C22   C     C_R   0.148072 0.454638 0.556259 -0.225995
C23   C     C_R   0.742232 0.192128 0.725497 0.070003
C24   C     C_R   0.140886 0.475622 0.639246 -0.176066
C25   C     C_R   0.953291 0.369946 0.557920 -0.278198
C26   C     C_R   0.959190 0.354673 0.475000 0.187219
C27   C     C_R   0.057044 0.401631 0.474809 0.193979
C28   C     C_R   0.302122 0.601179 0.009406 -0.160363
C29   C     C_R   0.061649 0.407783 0.396329 -0.292824
C30   C     C_R   0.873066 0.318447 0.317784 -0.167195
C31   C     C_R   0.868012 0.305493 0.394113 -0.225293
C32   C     C_R   0.699976 0.095744 0.639568 0.132294
C33   C     C_R   0.443521 0.853432 0.320362 0.128950
C34   C     C_R   0.362214 0.569534 0.061581 0.086811
C35   C     C_R   0.587658 0.029956 0.394948 -0.223870
C36   C     C_R   0.497472 0.949234 0.318595 -0.175423
C37   C     C_R   0.489153 0.833075 0.392937 -0.279206
C38   C     C_R   0.573775 0.915921 0.472078 0.189796
C39   C     C_R   0.620437 0.016600 0.474346 0.188557
C40   C     C_R   0.764756 0.294555 0.734325 -0.145938
C41   C     C_R   0.688115 0.105137 0.558145 -0.277725
C42   C     C_R   0.663391 0.994014 0.636516 -0.175593
C43   C     C_R   0.602263 0.903736 0.552451 -0.225452
C44   C     C_R   0.081339 0.126182 0.153702 0.145318
C45   C     C_R   0.271969 0.689117 0.253524 -0.122689
C46   C     C_R   0.998182 0.106527 0.076090 0.038990
C47   C     C_R   0.907058 0.009388 0.036095 -0.212028
C48   C     C_R   0.895670 0.943411 0.080586 -0.173114
C49   C     C_R   0.974823 0.973004 0.165092 0.026911
C50   C     C_R   0.069681 0.060426 0.196877 0.163063
C51   C     C_3   0.134425 0.151929 0.290327 -0.477628
C52   C     C_R   0.296527 0.500676 0.082094 -0.123474
C53   C     C_3   0.147460 0.224340 0.243641 -0.527459
C54   C     C_R   0.112010 0.543837 0.813433 -0.135113
C55   C     C_R   0.915716 0.199363 0.996678 -0.134684
C56   C     C_R   0.737167 0.552754 0.962801 0.626112
C57   C     C_R   0.001725 0.188412 0.042695 0.062911
C58   C     C_3   0.665236 0.524001 0.814846 -0.398836
C59   C     C_R   0.893052 0.395124 0.176065 -0.133064
C60   C     C_R   0.085734 0.805648 0.015372 -0.118341
C61   C     C_R   0.915817 0.722495 0.934164 -0.086020
H1    H     H_    0.166499 0.309086 0.120334 0.095133
H2    H     H_    0.636877 0.737364 0.960207 0.200998
H3    H     H_    0.863414 0.433658 0.679243 0.083356
H4    H     H_    0.543471 0.590175 0.892657 0.224555
H5    H     H_    0.503064 0.768983 0.992812 0.206565
H6    H     H_    0.415007 0.622059 0.919402 0.207939
H7    H     H_    0.137174 0.448458 0.399008 0.117569
H8    H     H_    0.800797 0.289589 0.259376 0.111786
H9    H     H_    0.223834 0.489139 0.556690 0.126441
H10   H     H_    0.792473 0.267105 0.392821 0.120565
H11   H     H_    0.211809 0.525740 0.701792 0.115581
H12   H     H_    0.813376 0.336341 0.148388 0.084083
H13   H     H_    0.877636 0.336335 0.557663 0.113414
H14   H     H_    0.721547 0.182458 0.559403 0.112997
H15   H     H_    0.759440 0.135674 0.832404 0.090755
H16   H     H_    0.675514 0.984025 0.698369 0.114662
H17   H     H_    0.624299 0.106367 0.395359 0.119687
H18   H     H_    0.568370 0.826364 0.551242 0.124630
H19   H     H_    0.466495 0.965588 0.261858 0.112932
H20   H     H_    0.452180 0.757834 0.393773 0.113468
H21   H     H_    0.842155 0.987564 0.973755 0.126092
H22   H     H_    0.823142 0.872728 0.052262 0.138587
H23   H     H_    0.166767 0.862165 0.045324 0.094445
H24   H     H_    0.089100 0.163789 0.331241 0.203860
H25   H     H_    0.208110 0.149837 0.325914 0.189081
H26   H     H_    0.109760 0.278132 0.257355 0.207129
H27   H     H_    0.328852 0.670974 0.998353 0.108307
H28   H     H_    0.228807 0.264137 0.252848 0.184386
H29   H     H_    0.742139 0.316598 0.680104 0.084756
H30   H     H_    0.319100 0.472422 0.132288 0.080996
H31   H     H_    0.194670 0.572108 0.833590 0.093499
H32   H     H_    0.835726 0.149382 0.979197 0.089276
H33   H     H_    0.293068 0.652129 0.296569 0.082837
H34   H     H_    0.841250 0.703740 0.884589 0.158925
H35   H     H_    0.601055 0.447335 0.798247 0.159252
H36   H     H_    0.726728 0.508983 0.796562 0.163495
H37   H     H_    0.632072 0.558043 0.771313 0.181674
H38   H     H_    0.144995 0.502910 0.296195 0.083249
H39   H     H_    0.309003 0.838180 0.148477 0.083179
H40   H     H_    0.724814 0.431786 0.093879 0.133295
H41   H     H_    0.492805 0.525342 0.177702 0.125616
H42   H     H_    0.639465 0.505576 0.156877 0.129508
N1    N     N_R   0.055640 0.348550 0.045600 -0.038701
N2    N     N_R   0.811290 0.303400 0.871650 -0.038192
N3    N     N_R   0.205180 0.552990 0.997660 -0.038136
N4    N     N_R   0.814810 0.361830 0.823710 -0.045472
N5    N     N_R   0.201660 0.494570 0.045600 -0.037618
N6    N     N_R   0.068420 0.560530 0.871650 -0.038885
N7    N     N_R   0.948050 0.295860 0.997660 -0.036399
N8    N     N_R   0.185190 0.638170 0.176290 -0.039204
N9    N     N_R   0.798340 0.505430 0.954400 -0.100394
N10   N     N_R   0.931580 0.439470 0.128350 -0.033662
N11   N     N_R   0.051950 0.704140 0.002340 -0.044480
N12   N     N_R   0.944360 0.651450 0.954400 -0.050587
N13   N     N_R   0.039170 0.492150 0.176290 -0.038132
N14   N     N_R   0.188710 0.696600 0.128350 -0.037730
N15   N     N_R   0.794820 0.447010 0.002340 -0.067183
N16   N     N_R   0.960830 0.507850 0.823710 -0.041399
Ni1   Ni    Ni4+2 0.119330 0.493420 0.109950 0.204536
Ni2   Ni    Ni4+2 0.880670 0.506580 0.890050 0.204238
Ni3   Ni    Ni4+2 0.872590 0.372590 0.000000 0.204488
Ni4   Ni    Ni4+2 0.127410 0.627410 0.000000 0.204460
O1    O     O_3   0.706487 0.598415 0.907979 -0.663386

loop_
_geom_bond_atom_site_label_1
_geom_bond_atom_site_label_2
_ccdc_geom_bond_type
N9    N15   A    
N12   Ni2   S    
C6    C45   A    
C27   C29   A    
C11   C13   A    
N5    Ni1   S    
C60   N11   A    
C35   C36   A    
C58   H37   S    
C55   H32   S    
C3    C6    A    
C1    H1    S    
C51   H24   S    
N11   N12   A    
C39   C41   A    
C20   C30   A    
C18   H4    S    
C54   H31   S    
N2    N4    A    
C24   H11   S    
C26   C27   A    
C8    C20   S    
C9    C61   A    
C56   O1    S    
C18   C19   S    
C8    C59   A    
C30   C31   A    
C18   H2    S    
C10   C17   A    
C43   H18   S    
C23   C40   A    
C33   C36   A    
C19   H5    S    
C25   H13   S    
N15   Ni3   S    
C47   H21   S    
C58   H35   S    
C3    N14   A    
C2    N13   A    
C44   C53   S    
N10   Ni3   S    
C28   N3    A    
N3    Ni4   S    
C28   H27   S    
C32   C41   A    
C4    N16   A    
C19   H6    S    
C4    C12   A    
C59   H12   S    
N10   N13   A    
C31   H10   S    
C28   C34   A    
C26   C31   A    
C13   C14   A    
C37   H20   S    
C58   H36   S    
C7    C56   A    
C48   H22   S    
C45   H33   S    
C3    H39   S    
C51   H25   S    
C44   C46   A    
C50   C51   S    
C20   C29   A    
N16   Ni2   S    
C5    H40   S    
C36   H19   S    
C5    C7    A    
N6    Ni4   S    
C25   C26   A    
C12   C21   S    
C33   C37   A    
N13   Ni1   S    
C54   N6    A    
N8    Ni1   S    
C51   C53   S    
C35   C39   A    
C61   N12   A    
C37   C38   A    
C1    C57   A    
C41   H14   S    
C29   H7    S    
C47   C48   A    
C10   C19   S    
C59   N10   A    
C61   H34   S    
C17   C18   S    
C53   H26   S    
C1    N1    A    
C16   N2    A    
C40   N4    A    
N11   Ni4   S    
C48   C49   A    
C2    H38   S    
C16   C23   A    
C22   C27   A    
C55   C57   A    
C46   C57   S    
C53   H28   S    
C22   C24   A    
C42   C43   A    
N4    Ni2   S    
C30   H8    S    
N6    N16   A    
C44   C50   A    
C15   C17   A    
C21   C25   A    
C46   C47   A    
C16   H15   S    
C34   C52   A    
C11   C34   S    
C2    C8    A    
C45   N8    A    
C4    H3    S    
C35   H17   S    
C58   O1    S    
C6    C33   S    
C5    N15   A    
N8    N14   A    
C9    C60   A    
C23   C32   S    
N14   Ni4   S    
C38   C43   A    
C55   N7    A    
N7    Ni3   S    
N1    N7    A    
C60   H23   S    
C14   H42   S    
C38   C39   A    
N3    N5    A    
C7    C15   S    
C56   N9    A    
N2    Ni3   S    
C10   C11   A    
N9    Ni2   S    
C52   N5    A    
C42   H16   S    
C49   C50   A    
C21   C24   A    
C32   C42   A    
C14   C15   A    
C52   H30   S    
C40   H29   S    
C13   H41   S    
C22   H9    S    
C12   C54   A    
N1    Ni1   S    
