data_mof_unit_35166.cif
_audit_creation_date              2012-12-10T19:28:28-0500
_audit_creation_method            fapswitch 2.2
_symmetry_space_group_name_H-M    P1
_symmetry_Int_Tables_number       1
_space_group_crystal_system       triclinic
_cell_length_a                    30.241657
_cell_length_b                    29.817018
_cell_length_c                    22.04029
_cell_angle_alpha                 90.12542
_cell_angle_beta                  134.473112
_cell_angle_gamma                 89.810126
_cell_volume                      14181.6559161

loop_
_atom_site_label
_atom_site_type_symbol
_atom_type_description
_atom_site_fract_x
_atom_site_fract_y
_atom_site_fract_z
_atom_type_partial_charge
C1    C     C_R   0.307180 0.811049 0.118097 0.925334
C2    C     C_R   0.487117 0.669210 0.020822 0.303853
C3    C     C_R   0.347897 0.164543 0.260009 0.402149
C4    C     C_R   0.112435 0.634232 0.671854 0.373085
C5    C     C_R   0.889558 0.634980 0.329637 0.376865
C6    C     C_R   0.611688 0.134363 0.671467 0.372099
C7    C     C_R   0.387629 0.134299 0.328873 0.379527
C8    C     C_R   0.094607 0.593901 0.684107 -0.199963
C9    C     C_R   0.904880 0.593736 0.315611 -0.197748
C10   C     C_R   0.594553 0.093831 0.684198 -0.198657
C11   C     C_R   0.406553 0.094165 0.317371 -0.195421
C12   C     C_R   0.124304 0.581773 0.765953 -0.197748
C13   C     C_R   0.028152 0.168193 0.010618 0.399848
C14   C     C_R   0.872573 0.581165 0.232915 -0.198151
C15   C     C_R   0.624759 0.081604 0.766225 -0.197855
C16   C     C_R   0.385381 0.085908 0.239112 -0.194306
C17   C     C_3   0.103944 0.558094 0.802976 0.175685
C18   C     C_3   0.889676 0.555658 0.193001 0.167442
C19   C     C_3   0.604658 0.057878 0.803564 0.173512
C20   C     C_3   0.388060 0.052697 0.190698 0.171891
C21   C     C_3   0.146414 0.590903 0.878190 0.768864
C22   C     C_3   0.847295 0.588775 0.118226 0.776696
C23   C     C_3   0.646979 0.090814 0.878561 0.769806
C24   C     C_R   0.986141 0.169104 0.019030 0.304579
C25   C     C_3   0.346043 0.086301 0.115632 0.793467
C26   C     C_R   0.939654 0.560047 0.380179 0.849830
C27   C     C_R   0.060037 0.560275 0.619411 0.846522
C28   C     C_R   0.439839 0.060012 0.380424 0.841132
C29   C     C_R   0.560094 0.060190 0.619551 0.844980
C30   C     C_R   0.438947 0.940984 0.378284 0.958624
C31   C     C_R   0.561355 0.941334 0.622162 0.955633
C32   C     C_R   0.939137 0.440754 0.378628 0.936790
C33   C     C_R   0.061422 0.441445 0.622319 0.924603
C34   C     C_R   0.162083 0.749489 0.997685 0.993559
C35   C     C_R   0.481501 0.833149 0.006795 0.365080
C36   C     C_R   0.837894 0.749406 0.002263 1.002391
C37   C     C_R   0.662158 0.249578 0.997875 0.994035
C38   C     C_R   0.337635 0.249605 0.001787 1.001272
C39   C     C_R   0.586131 0.790864 0.986942 0.448859
C40   C     C_R   0.412452 0.792358 0.010629 0.405173
C41   C     C_R   0.086417 0.290883 0.987558 0.444464
C42   C     C_R   0.912517 0.292316 0.010800 0.404855
C43   C     C_R   0.614002 0.749990 0.996971 -0.279509
C44   C     C_R   0.388034 0.751249 0.007047 -0.256382
C45   C     C_R   0.113841 0.249959 0.996699 -0.278377
C46   C     C_R   0.511616 0.831954 0.979526 0.367108
C47   C     C_R   0.887907 0.251215 0.006836 -0.255887
C48   C     C_R   0.596095 0.709123 0.006176 0.468831
C49   C     C_R   0.409251 0.710413 0.004492 0.447765
C50   C     C_R   0.095140 0.208995 0.004405 0.472870
C51   C     C_R   0.908770 0.210393 0.003640 0.447743
C52   C     C_R   0.549272 0.709001 0.005509 0.010381
C53   C     C_R   0.458060 0.709836 0.009224 -0.051150
C54   C     C_R   0.048452 0.208912 0.004015 0.009656
C55   C     C_R   0.957470 0.209789 0.008162 -0.051850
C56   C     C_R   0.523427 0.750462 0.000373 -0.156202
C57   C     C_R   0.981644 0.333132 0.007075 0.365329
C58   C     C_R   0.479045 0.750934 0.004610 -0.123839
C59   C     C_R   0.023086 0.250412 0.999781 -0.155644
C60   C     C_R   0.978733 0.250899 0.004071 -0.124353
C61   C     C_R   0.011860 0.331961 0.979957 0.367346
C62   C     C_R   0.401873 0.843858 0.245606 -0.166260
C63   C     C_R   0.599780 0.841531 0.749544 -0.139638
C64   C     C_R   0.902280 0.344183 0.244816 -0.169330
C65   C     C_R   0.693151 0.811030 0.881889 0.937720
C66   C     C_R   0.100031 0.341171 0.748811 -0.141783
C67   C     C_R   0.337948 0.847118 0.178308 -0.305441
C68   C     C_R   0.662571 0.846974 0.821236 -0.313912
C69   C     C_R   0.838224 0.347100 0.178279 -0.303456
C70   C     C_R   0.162585 0.346988 0.821191 -0.329589
C71   C     C_R   0.306596 0.887065 0.167032 0.434213
C72   C     C_R   0.692522 0.888185 0.834969 0.432515
C73   C     C_R   0.806779 0.386851 0.167499 0.431745
C74   C     C_R   0.192248 0.388458 0.835397 0.433003
C75   C     C_R   0.340471 0.920413 0.230731 0.339302
C76   C     C_R   0.807311 0.311043 0.118106 0.926673
C77   C     C_R   0.658243 0.921700 0.771603 0.338290
C78   C     C_R   0.840730 0.420184 0.231199 0.339098
C79   C     C_R   0.157913 0.421972 0.772061 0.343370
C80   C     C_R   0.403116 0.911789 0.305801 -0.200772
C81   C     C_R   0.597090 0.911909 0.694157 -0.203335
C82   C     C_R   0.903378 0.411527 0.306172 -0.202214
C83   C     C_R   0.097048 0.411972 0.694239 -0.218608
C84   C     C_R   0.433150 0.875195 0.309393 -0.112969
C85   C     C_R   0.568402 0.873228 0.686362 -0.125189
C86   C     C_R   0.933511 0.375278 0.308989 -0.113318
C87   C     C_R   0.193158 0.311039 0.881883 0.939010
C88   C     C_R   0.068584 0.372918 0.685699 -0.058347
C89   C     C_3   0.471805 0.840315 0.377357 0.659848
C90   C     C_3   0.535881 0.838699 0.617640 0.680304
C91   C     C_3   0.973145 0.340242 0.376408 0.664306
C92   C     C_3   0.037336 0.338760 0.616972 0.633980
C93   C     C_R   0.337617 0.750435 0.001948 0.954271
C94   C     C_R   0.662834 0.750122 0.998904 0.868146
C95   C     C_R   0.837577 0.250414 0.001885 0.957102
C96   C     C_R   0.162795 0.250123 0.998846 0.870646
C97   C     C_3   0.442146 0.805772 0.306377 0.678549
C98   C     C_R   0.540168 0.791382 0.987982 -0.087447
C99   C     C_3   0.566182 0.803122 0.687138 0.616544
C100  C     C_3   0.943670 0.306155 0.304851 0.686951
C101  C     C_3   0.067753 0.302942 0.685986 0.655468
C102  C     C_R   0.868168 0.760987 0.924961 0.421628
C103  C     C_R   0.132430 0.758101 0.076334 0.385187
C104  C     C_R   0.368017 0.262189 0.924711 0.422496
C105  C     C_R   0.632423 0.257489 0.076651 0.384492
C106  C     C_R   0.885835 0.752111 0.002445 -0.317952
C107  C     C_R   0.114304 0.752323 0.997829 -0.293946
C108  C     C_R   0.385413 0.252173 0.001692 -0.314606
C109  C     C_R   0.457742 0.792585 0.008063 -0.080304
C110  C     C_R   0.614359 0.252363 0.998055 -0.293492
C111  C     C_R   0.948992 0.749034 0.080021 0.366960
C112  C     C_R   0.050996 0.751921 0.920201 0.369585
C113  C     C_R   0.448326 0.247466 0.078860 0.367702
C114  C     C_R   0.551073 0.252435 0.920381 0.369634
C115  C     C_R   0.994446 0.756620 0.079296 -0.088435
C116  C     C_R   0.006265 0.760012 0.922260 -0.033945
C117  C     C_R   0.494075 0.255367 0.078875 -0.089615
C118  C     C_R   0.506395 0.260648 0.922493 -0.033853
C119  C     C_R   0.977186 0.759699 0.001076 -0.089070
C120  C     C_R   0.040240 0.291368 0.988159 -0.087357
C121  C     C_R   0.023620 0.759169 0.000631 -0.058067
C122  C     C_R   0.477052 0.259621 0.000954 -0.088700
C123  C     C_R   0.523585 0.259101 0.000721 -0.057363
C124  C     C_R   0.913821 0.763042 0.923513 0.036371
C125  C     C_R   0.087109 0.757442 0.078373 -0.031521
C126  C     C_R   0.413802 0.264007 0.923460 0.036808
C127  C     C_R   0.586993 0.256621 0.078505 -0.032101
C128  C     C_R   0.057244 0.760164 0.155342 -0.093250
C129  C     C_R   0.944387 0.768949 0.847509 -0.218549
C130  C     C_R   0.556822 0.258111 0.155202 -0.093708
C131  C     C_R   0.957724 0.292559 0.008068 -0.081095
C132  C     C_R   0.444746 0.270366 0.847951 -0.219307
C133  C     C_R   0.103273 0.758164 0.156119 0.472675
C134  C     C_R   0.897894 0.770044 0.846733 0.504053
C135  C     C_R   0.602985 0.256404 0.156167 0.474546
C136  C     C_R   0.398186 0.271732 0.847057 0.504638
C137  C     C_R   0.161237 0.611443 0.831911 -0.037146
C138  C     C_R   0.835655 0.611064 0.167282 -0.035624
C139  C     C_R   0.661611 0.111374 0.832074 -0.036869
C140  C     C_R   0.348556 0.114948 0.174015 -0.063662
C141  C     C_R   0.194382 0.689213 0.881492 1.035216
C142  C     C_R   0.529311 0.668301 0.012723 0.399721
C143  C     C_R   0.804980 0.689312 0.118458 1.006033
C144  C     C_R   0.694343 0.189215 0.881459 1.034172
C145  C     C_R   0.304468 0.189521 0.118236 1.004048
C146  C     C_R   0.170074 0.654745 0.818494 -0.310647
C147  C     C_R   0.829202 0.655020 0.181799 -0.327462
C148  C     C_R   0.670007 0.154768 0.818385 -0.310212
C149  C     C_R   0.331312 0.155723 0.182392 -0.323928
C150  C     C_R   0.152858 0.663957 0.740851 0.392290
C151  C     C_R   0.849115 0.665048 0.261132 0.398907
C152  C     C_R   0.652252 0.164095 0.740391 0.391772
H1    H     H_    0.072130 0.763280 0.216231 0.241865
H2    H     H_    0.378615 0.829249 0.042866 0.347693
H3    H     H_    0.117902 0.327036 0.951369 0.350741
H4    H     H_    0.878955 0.329072 0.043585 0.347901
H5    H     H_    0.376824 0.783830 0.298540 0.341921
H6    H     H_    0.638814 0.788874 0.705947 0.348816
H7    H     H_    0.879908 0.282440 0.298886 0.343679
H8    H     H_    0.141406 0.290272 0.706480 0.347062
H9    H     H_    0.783950 0.781563 0.861456 0.341252
H10   H     H_    0.215944 0.780377 0.139204 0.356343
H11   H     H_    0.283763 0.282597 0.862141 0.339725
H12   H     H_    0.931408 0.775849 0.788669 0.215445
H13   H     H_    0.716110 0.279569 0.140209 0.357066
H14   H     H_    0.936030 0.691791 0.215180 0.389112
H15   H     H_    0.059282 0.698146 0.777540 0.390080
H16   H     H_    0.433032 0.181833 0.204157 0.388102
H17   H     H_    0.558862 0.198355 0.777474 0.390085
H18   H     H_    0.181465 0.727905 0.233022 0.383838
H19   H     H_    0.834207 0.781479 0.724120 0.354266
H20   H     H_    0.680852 0.225665 0.231984 0.383893
H21   H     H_    0.334918 0.284454 0.724908 0.354133
H22   H     H_    0.159425 0.782022 0.705288 0.391921
H23   H     H_    0.571408 0.260499 0.215989 0.240194
H24   H     H_    0.851300 0.783787 0.302896 0.391062
H25   H     H_    0.657548 0.282228 0.703756 0.391971
H26   H     H_    0.341320 0.282537 0.296619 0.391252
H27   H     H_    0.055682 0.626615 0.548480 0.325928
H28   H     H_    0.947416 0.626737 0.453145 0.323209
H29   H     H_    0.553355 0.127245 0.547798 0.324205
H30   H     H_    0.443179 0.126429 0.451809 0.325931
H31   H     H_    0.028002 0.594838 0.734007 0.381351
H32   H     H_    0.966925 0.590241 0.259021 0.381845
H33   H     H_    0.528493 0.094367 0.734562 0.381338
H34   H     H_    0.432058 0.277719 0.789435 0.215000
H35   H     H_    0.468424 0.077396 0.242120 0.386471
H36   H     H_    0.102645 0.602221 0.910920 0.382725
H37   H     H_    0.888637 0.597203 0.081258 0.383500
H38   H     H_    0.603255 0.102066 0.911379 0.382659
H39   H     H_    0.375998 0.083393 0.062106 0.380282
H40   H     H_    0.669259 0.674994 0.050807 0.339341
H41   H     H_    0.370887 0.654128 0.946641 0.382410
H42   H     H_    0.167330 0.174202 0.046964 0.342693
H43   H     H_    0.869893 0.154353 0.945016 0.382083
H44   H     H_    0.219338 0.551419 0.945739 0.340593
H45   H     H_    0.119084 0.522454 0.818975 0.153847
H46   H     H_    0.772892 0.551325 0.053344 0.338135
H47   H     H_    0.720135 0.051557 0.946278 0.340191
H48   H     H_    0.268332 0.057432 0.065227 0.335734
H49   H     H_    0.518238 0.604613 0.985711 0.357322
H50   H     H_    0.513987 0.611736 0.079659 0.370690
H51   H     H_    0.016453 0.104626 0.982581 0.357390
H52   H     H_    0.012641 0.111389 0.077033 0.370874
H53   H     H_    0.544677 0.942627 0.111893 0.398179
H54   H     H_    0.433225 0.931909 0.844463 0.398427
H55   H     H_    0.044511 0.442728 0.111830 0.397753
H56   H     H_    0.872979 0.520423 0.177452 0.150106
H57   H     H_    0.933600 0.431889 0.844782 0.399202
H58   H     H_    0.169243 0.907275 0.943029 0.391036
H59   H     H_    0.826873 0.908436 0.060251 0.390244
H60   H     H_    0.668536 0.406988 0.943908 0.391063
H61   H     H_    0.325617 0.409014 0.060953 0.389766
H62   H     H_    0.342322 0.983167 0.258391 0.319593
H63   H     H_    0.653989 0.984912 0.744216 0.320169
H64   H     H_    0.842934 0.483195 0.257647 0.324567
H65   H     H_    0.153342 0.485230 0.744552 0.321806
H66   H     H_    0.544819 0.866395 0.407139 0.365161
H67   H     H_    0.620026 0.022287 0.819752 0.152689
H68   H     H_    0.457866 0.859381 0.580456 0.363437
H69   H     H_    0.045311 0.368200 0.406239 0.364845
H70   H     H_    0.960074 0.370810 0.530808 0.382073
H71   H     H_    0.461078 0.804754 0.440024 0.381678
H72   H     H_    0.557135 0.808769 0.562079 0.383481
H73   H     H_    0.964900 0.303310 0.440474 0.382605
H74   H     H_    0.060449 0.310081 0.562753 0.388346
H75   H     H_    0.480686 0.738825 0.209065 0.380035
H76   H     H_    0.566988 0.713460 0.750493 0.383517
H77   H     H_    0.982602 0.241870 0.205598 0.379692
H78   H     H_    0.366022 0.020114 0.180697 0.143885
H79   H     H_    0.070173 0.213618 0.752956 0.381557
H80   H     H_    0.617230 0.826684 0.949844 0.351074
O1    O     O_R   0.321640 0.769930 0.143350 -0.575134
O2    O     O_R   0.508530 0.954180 0.591630 -0.603384
O3    O     O_3   0.374127 0.106683 0.092475 -0.677280
O4    O     O_3   0.625447 0.669245 0.019308 -0.636216
O5    O     O_3   0.378094 0.671875 0.991011 -0.666676
O6    O     O_3   0.123472 0.168928 0.015625 -0.635272
O7    O     O_3   0.877372 0.171917 0.989754 -0.666934
O8    O     O_3   0.198043 0.570595 0.955769 -0.711177
O9    O     O_3   0.793819 0.569200 0.041503 -0.712673
O10   O     O_3   0.698750 0.070667 0.956238 -0.711441
O11   O     O_3   0.286213 0.070278 0.044753 -0.712173
O12   O     O_3   0.550400 0.627800 0.010187 -0.654699
O13   O     O_R   0.991470 0.454180 0.408370 -0.596491
O14   O     O_3   0.476862 0.631326 0.045673 -0.707093
O15   O     O_3   0.048828 0.127676 0.007378 -0.654666
O16   O     O_3   0.975685 0.131133 0.043458 -0.706589
O17   O     O_2   0.428254 0.909948 0.994953 -0.166511
O18   O     O_2   0.499038 0.871668 0.133065 -0.223775
O19   O     O_3   0.546603 0.914933 0.088906 -0.479839
O20   O     O_2   0.553902 0.908850 0.970617 -0.169203
O21   O     O_2   0.490510 0.860155 0.844959 -0.229334
O22   O     O_3   0.435162 0.906394 0.874969 -0.479350
O23   O     O_2   0.928203 0.409873 0.994979 -0.167389
O24   O     O_R   0.008530 0.454180 0.591630 -0.613385
O25   O     O_2   0.999080 0.371726 0.133221 -0.222447
O26   O     O_3   0.046546 0.415023 0.088981 -0.479699
O27   O     O_2   0.054271 0.408896 0.971343 -0.168529
O28   O     O_2   0.991184 0.360178 0.845738 -0.231201
O29   O     O_3   0.935465 0.406372 0.875222 -0.478479
O30   O     O_2   0.191000 0.852864 0.057331 -0.353223
O31   O     O_2   0.199682 0.932230 0.090650 -0.168647
O32   O     O_3   0.214679 0.908596 0.992816 -0.502599
O33   O     O_2   0.809263 0.855818 0.946844 -0.351266
O34   O     O_2   0.798189 0.935606 0.914890 -0.172665
O35   O     O_R   0.416850 0.954230 0.408340 -0.587434
O36   O     O_3   0.781551 0.909165 0.009616 -0.504441
O37   O     O_2   0.691414 0.352310 0.058746 -0.354210
O38   O     O_2   0.699906 0.431614 0.092346 -0.168846
O39   O     O_3   0.714015 0.408426 0.993367 -0.505852
O40   O     O_2   0.309334 0.356712 0.948215 -0.348594
O41   O     O_2   0.297618 0.436549 0.916320 -0.173331
O42   O     O_3   0.280343 0.409449 0.010040 -0.504147
O43   O     O_3   0.311173 0.959993 0.218605 -0.681891
O44   O     O_3   0.685808 0.962601 0.786420 -0.684817
O45   O     O_3   0.811590 0.459831 0.219148 -0.677696
O46   O     O_R   0.583150 0.954230 0.591660 -0.581146
O47   O     O_3   0.185183 0.463084 0.787270 -0.685078
O48   O     O_3   0.536380 0.845926 0.433492 -0.653117
O49   O     O_3   0.470633 0.840808 0.557422 -0.650756
O50   O     O_3   0.037569 0.346498 0.432014 -0.652755
O51   O     O_3   0.972452 0.340939 0.558389 -0.653811
O52   O     O_3   0.453097 0.836183 0.419993 -0.685477
O53   O     O_3   0.558757 0.839727 0.579964 -0.686300
O54   O     O_3   0.955097 0.334670 0.419608 -0.730258
O55   O     O_3   0.060103 0.340938 0.579147 -0.715898
O56   O     O_2   0.512867 0.821633 0.274953 -0.285390
O57   O     O_R   0.916850 0.454230 0.408340 -0.601103
O58   O     O_2   0.547281 0.761981 0.376987 -0.192939
O59   O     O_3   0.452884 0.746214 0.216723 -0.504148
O60   O     O_2   0.485301 0.807936 0.703482 -0.234503
O61   O     O_2   0.464827 0.751316 0.605724 -0.203045
O62   O     O_3   0.554273 0.736771 0.767869 -0.485824
O63   O     O_2   0.013468 0.324760 0.272818 -0.282056
O64   O     O_2   0.049053 0.263756 0.373177 -0.192324
O65   O     O_3   0.954375 0.249022 0.212605 -0.510597
O66   O     O_2   0.982099 0.306077 0.693546 -0.192770
O67   O     O_2   0.969087 0.248064 0.603316 -0.198962
O68   O     O_R   0.083150 0.454230 0.591660 -0.574356
O69   O     O_3   0.055259 0.237112 0.766950 -0.496648
O70   O     O_R   0.269930 0.821650 0.039910 -0.579278
O71   O     O_R   0.730070 0.821650 0.960090 -0.573098
O72   O     O_R   0.769930 0.321650 0.039910 -0.579125
O73   O     O_R   0.678360 0.769930 0.856650 -0.588613
O74   O     O_R   0.230070 0.321650 0.960090 -0.572257
O75   O     O_R   0.341900 0.724100 0.051720 -0.552200
O76   O     O_R   0.658100 0.724100 0.948280 -0.587801
O77   O     O_R   0.841900 0.224100 0.051720 -0.550136
O78   O     O_R   0.158100 0.224100 0.948280 -0.591338
O79   O     O_R   0.290200 0.775820 0.948280 -0.592912
O80   O     O_R   0.709800 0.775820 0.051720 -0.575125
O81   O     O_R   0.790200 0.275820 0.948280 -0.593694
O82   O     O_R   0.209800 0.275820 0.051720 -0.575808
O83   O     O_R   0.230030 0.678320 0.960120 -0.578115
O84   O     O_R   0.821640 0.269930 0.143350 -0.578637
O85   O     O_R   0.769970 0.678320 0.039880 -0.582272
O86   O     O_R   0.730030 0.178320 0.960120 -0.578069
O87   O     O_R   0.269970 0.178320 0.039880 -0.580916
O88   O     O_R   0.178330 0.730040 0.856690 -0.558654
O89   O     O_R   0.821670 0.730040 0.143310 -0.547520
O90   O     O_R   0.678330 0.230040 0.856690 -0.558657
O91   O     O_R   0.321670 0.230040 0.143310 -0.547068
O92   O     O_R   0.209770 0.724140 0.051760 -0.610525
O93   O     O_R   0.790230 0.724140 0.948240 -0.599290
O94   O     O_R   0.709770 0.224140 0.051760 -0.610886
O95   O     O_R   0.178360 0.269930 0.856650 -0.591872
O96   O     O_R   0.290230 0.224140 0.948240 -0.597322
O97   O     O_R   0.158070 0.775860 0.948320 -0.552882
O98   O     O_R   0.841930 0.775860 0.051680 -0.555509
O99   O     O_R   0.658070 0.275860 0.948320 -0.552340
O100  O     O_R   0.341930 0.275860 0.051680 -0.559566
O101  O     O_R   0.991510 0.545790 0.408370 -0.581266
O102  O     O_R   0.008490 0.545790 0.591630 -0.577537
O103  O     O_R   0.491510 0.045790 0.408370 -0.584432
O104  O     O_R   0.508490 0.045790 0.591630 -0.581538
O105  O     O_3   0.607576 0.830863 0.984167 -0.645296
O106  O     O_R   0.916890 0.545840 0.408340 -0.614892
O107  O     O_3   0.387923 0.832283 0.007982 -0.639197
O108  O     O_3   0.108403 0.330923 0.985922 -0.645574
O109  O     O_3   0.888238 0.332234 0.008688 -0.639040
O110  O     O_3   0.410997 0.770818 0.306751 -0.703042
O111  O     O_3   0.604148 0.772357 0.691970 -0.743175
O112  O     O_3   0.913809 0.270278 0.305707 -0.701903
O113  O     O_3   0.106939 0.273053 0.691889 -0.750094
O114  O     O_3   0.806569 0.766565 0.849782 -0.637219
O115  O     O_3   0.193658 0.765409 0.151236 -0.694422
O116  O     O_3   0.306617 0.269009 0.849782 -0.637674
O117  O     O_R   0.083110 0.545840 0.591660 -0.617187
O118  O     O_3   0.693674 0.264366 0.151810 -0.694211
O119  O     O_2   0.027625 0.700968 0.226199 -0.273926
O120  O     O_2   0.988168 0.772069 0.229185 -0.244128
O121  O     O_3   0.916299 0.702791 0.158449 -0.528816
O122  O     O_2   0.967525 0.711547 0.766036 -0.270554
O123  O     O_2   0.016250 0.780643 0.776419 -0.250307
O124  O     O_3   0.079471 0.706759 0.835624 -0.531859
O125  O     O_2   0.526684 0.197586 0.223204 -0.275803
O126  O     O_2   0.483089 0.265890 0.226778 -0.242008
O127  O     O_3   0.413691 0.195564 0.149300 -0.533397
O128  O     O_R   0.416890 0.045840 0.408340 -0.618435
O129  O     O_2   0.466886 0.213151 0.765173 -0.270000
O130  O     O_2   0.517636 0.281515 0.777625 -0.250482
O131  O     O_3   0.578987 0.206765 0.835609 -0.531868
O132  O     O_3   0.163359 0.755200 0.234412 -0.650921
O133  O     O_3   0.836983 0.777679 0.771395 -0.641687
O134  O     O_3   0.662965 0.252704 0.234439 -0.650519
O135  O     O_3   0.337493 0.280226 0.771929 -0.641006
O136  O     O_2   0.247212 0.720654 0.811229 -0.333757
O137  O     O_2   0.181618 0.703129 0.661251 -0.167571
O138  O     O_3   0.136913 0.756120 0.700956 -0.483713
O139  O     O_R   0.583110 0.045840 0.591660 -0.616253
O140  O     O_2   0.758789 0.725466 0.195939 -0.346212
O141  O     O_2   0.825955 0.706952 0.345830 -0.166313
O142  O     O_3   0.871213 0.756911 0.304035 -0.480796
O143  O     O_2   0.746046 0.221213 0.809804 -0.332563
O144  O     O_2   0.679991 0.203514 0.659762 -0.168072
O145  O     O_3   0.635436 0.256225 0.700022 -0.484246
O146  O     O_2   0.253401 0.221732 0.189757 -0.356959
O147  O     O_2   0.318561 0.203866 0.339365 -0.163958
O148  O     O_3   0.363684 0.256556 0.300465 -0.480965
O149  O     O_3   0.089929 0.646510 0.593818 -0.652045
O150  O     O_R   0.491470 0.954180 0.408370 -0.598763
O151  O     O_3   0.914556 0.647809 0.408878 -0.654930
O152  O     O_3   0.588321 0.146787 0.592997 -0.653147
O153  O     O_3   0.407613 0.145429 0.405833 -0.653917
O154  O     O_3   0.040338 0.563399 0.754722 -0.675330
O155  O     O_3   0.952926 0.558952 0.238414 -0.677466
O156  O     O_3   0.541043 0.062963 0.755421 -0.677219
O157  O     O_3   0.447890 0.047618 0.223454 -0.677847
O158  O     O_3   0.115315 0.620342 0.887516 -0.694028
O159  O     O_3   0.878101 0.616461 0.106437 -0.689216
O160  O     O_3   0.615766 0.120195 0.887776 -0.694508
S1    S     S_3+6 0.972017 0.731375 0.176606 0.063753
S2    S     S_3+6 0.499241 0.877702 0.916791 0.145507
S3    S     S_3+6 0.987327 0.383337 0.056567 0.147764
S4    S     S_3+6 0.999645 0.377720 0.917352 0.145919
S5    S     S_3+6 0.225582 0.895222 0.076612 0.102800
S6    S     S_3+6 0.772841 0.897324 0.927104 0.100844
S7    S     S_3+6 0.725634 0.394819 0.077666 0.100674
S8    S     S_3+6 0.272358 0.397942 0.928051 0.101940
S9    S     S_3+6 0.491809 0.784232 0.295404 0.113146
S10   S     S_3+6 0.514758 0.774802 0.689067 0.131161
S11   S     S_3+6 0.993128 0.286300 0.292464 0.113136
S12   S     S_3+6 0.026757 0.738016 0.821335 0.063176
S13   S     S_3+6 0.015692 0.273431 0.685394 0.159117
S14   S     S_3+6 0.469909 0.226802 0.172977 0.062888
S15   S     S_3+6 0.526812 0.238798 0.821415 0.063376
S16   S     S_3+6 0.181845 0.711357 0.728786 0.115481
S17   S     S_3+6 0.824095 0.714080 0.276562 0.115285
S18   S     S_3+6 0.680620 0.211669 0.727698 0.115212
S19   S     S_3+6 0.318629 0.212002 0.272143 0.113118
S20   S     S_3+6 0.487309 0.883328 0.056439 0.148343
Zn1   Zn    Zn3+2 0.284510 0.715450 0.069080 1.186949
Zn2   Zn    Zn3+2 0.450220 0.999980 0.500010 1.111806
Zn3   Zn    Zn3+2 0.049780 0.499980 0.499990 1.111215
Zn4   Zn    Zn3+2 0.950220 0.499980 0.500010 1.104691
Zn5   Zn    Zn3+2 0.715490 0.715450 0.930920 1.134801
Zn6   Zn    Zn3+2 0.784510 0.215450 0.069080 1.185792
Zn7   Zn    Zn3+2 0.215490 0.215450 0.930920 1.134084
Zn8   Zn    Zn3+2 0.215460 0.784520 0.930950 1.175569
Zn9   Zn    Zn3+2 0.784540 0.784520 0.069050 1.176493
Zn10  Zn    Zn3+2 0.715460 0.284520 0.930950 1.175859
Zn11  Zn    Zn3+2 0.284540 0.284520 0.069050 1.175327
Zn12  Zn    Zn3+2 0.549780 0.999980 0.499990 1.111189

loop_
_geom_bond_atom_site_label_1
_geom_bond_atom_site_label_2
_ccdc_geom_bond_type
O123  S12   D    
H21   O135  S    
C107  C112  A    
C77   O44   S    
C21   C137  S    
C105  C110  A    
C3    S19   S    
C42   O109  S    
H9    O114  S    
H15   O124  S    
C36   O98   A    
O26   S3    S    
H69   O50   S    
O79   Zn8   S    
H71   O52   S    
C92   O51   S    
O150  Zn12  S    
O77   Zn6   S    
O125  S14   D    
C91   O50   S    
H76   O62   S    
O34   S6    D    
H4    O109  S    
O66   S13   D    
H6    O111  S    
O2    Zn2   S    
H18   O132  S    
C113  S14   S    
C1    O1    A    
C70   C74   A    
C17   H45   S    
H2    O107  S    
C91   C100  S    
O25   S3    D    
C54   C59   A    
C104  C108  A    
C83   C88   A    
C46   C98   A    
C126  C136  A    
C59   C60   A    
C94   O76   A    
C63   C85   A    
H3    O108  S    
C9    C26   S    
C15   C139  A    
C31   O2    A    
C3    C149  A    
H63   O44   S    
O90   Zn10  S    
C36   C106  S    
C137  C146  A    
C25   C140  S    
C49   O5    S    
O120  S1    D    
H30   O153  S    
C39   C98   A    
H60   O39   S    
H55   O26   S    
C89   O48   S    
C17   C21   S    
C129  H12   S    
C87   O74   A    
C108  C113  A    
C19   C23   S    
O28   S4    D    
C78   C82   A    
O65   S11   S    
C16   C20   S    
C65   C68   S    
C33   C83   S    
O126  S14   D    
O143  S18   D    
C74   C79   A    
C145  O91   A    
O92   Zn1   S    
C76   O72   A    
C57   S3    S    
O29   S4    S    
C13   C54   A    
C136  O135  S    
C75   O43   S    
C127  C135  A    
C2    C53   A    
C85   C90   S    
C57   C61   A    
O56   S9    D    
O97   Zn8   S    
C4    C150  A    
H33   O156  S    
C5    C151  A    
O42   S8    S    
C143  O85   A    
C37   O94   A    
O83   Zn1   S    
C66   C70   A    
C114  S15   S    
C142  O12   S    
O20   S2    D    
O99   Zn10  S    
C51   C55   A    
C41   C120  A    
C37   O99   A    
C26   O101  A    
C48   C52   A    
C35   S20   S    
O63   S11   D    
C41   C45   A    
C103  C107  A    
C30   O35   A    
H17   O131  S    
C22   O9    S    
O35   Zn2   S    
C59   C120  A    
C141  O83   A    
C53   C58   A    
H64   O45   S    
C10   C29   S    
O138  S16   S    
O88   Zn8   S    
C5    O151  S    
C145  O87   A    
O87   Zn7   S    
O95   Zn7   S    
H75   O59   S    
C45   C50   A    
H43   O7    S    
O93   Zn5   S    
C66   C88   A    
O71   Zn9   S    
O58   S9    D    
C49   C53   A    
C47   C95   S    
C21   O158  S    
C43   C94   S    
C36   O93   A    
C69   C76   S    
C73   S7    S    
C74   S8    S    
C63   C99   S    
H35   O157  S    
C95   O77   A    
C42   C131  A    
C110  C114  A    
O67   S13   D    
C132  C136  A    
O46   Zn12  S    
C32   O57   A    
H72   O53   S    
C146  C150  A    
C61   C120  A    
C66   C101  S    
C16   C140  A    
C92   O55   S    
C70   C87   S    
C101  S13   S    
C106  C111  A    
C119  C121  A    
O129  S15   D    
C139  C148  A    
C7    O153  S    
O145  S18   S    
C105  C127  A    
O24   Zn4   S    
H10   O115  S    
O22   S2    S    
O81   Zn10  S    
C115  C128  A    
C12   C17   S    
C147  C151  A    
C117  C122  A    
C30   O150  A    
C5    C9    A    
C62   C97   S    
O106  Zn4   S    
C123  C127  A    
C64   C100  S    
C8    C12   A    
H11   O116  S    
C48   O4    S    
C64   C69   A    
H42   O6    S    
O30   S5    D    
O82   Zn11  S    
C99   O111  S    
C113  C117  A    
O60   S10   D    
C115  C119  A    
O103  Zn12  S    
C1    O70   A    
C96   O82   A    
C90   C99   S    
C112  C116  A    
H26   O148  S    
C8    C27   S    
C62   C84   A    
C63   C68   A    
C89   O52   S    
O64   S11   D    
C18   C22   S    
C148  C152  A    
C35   C109  A    
H57   O29   S    
O17   S20   D    
C130  H23   S    
O13   Zn3   S    
C32   C82   S    
H52   O16   S    
C124  C134  A    
C32   O13   A    
C46   S2    S    
H25   O145  S    
H73   O54   S    
O131  S15   S    
O124  S12   S    
C2    C142  A    
C1    C67   S    
O96   Zn7   S    
C56   C58   A    
O69   S13   S    
C93   O75   A    
C103  C125  A    
C134  O133  S    
C145  C149  S    
C118  C132  A    
C6    O152  S    
C40   C44   A    
H51   O15   S    
H61   O42   S    
C39   O105  S    
C34   O92   A    
O74   Zn11  S    
O70   Zn8   S    
O27   S4    D    
C140  C149  A    
O98   Zn9   S    
C81   C85   A    
C112  S12   S    
C96   O78   A    
H27   O149  S    
O146  S19   D    
C28   O128  A    
C130  C135  A    
C135  O134  S    
H79   O69   S    
C80   C84   A    
C65   O71   A    
H16   O127  S    
C15   C19   S    
C50   C54   A    
H49   O12   S    
C34   C107  S    
O40   S8    D    
C99   S10   S    
C152  S18   S    
C3    C7    A    
C86   C91   S    
H44   O8    S    
C150  S16   S    
C27   O117  A    
C20   C25   S    
H39   O3    S    
C101  O113  S    
C111  S1    S    
O142  S17   S    
O59   S9    S    
O121  S1    S    
O117  Zn3   S    
C31   O46   A    
O62   S10   S    
H19   O133  S    
C14   C138  A    
C133  O132  S    
O80   Zn9   S    
C69   C73   A    
H68   O49   S    
O78   Zn7   S    
O73   Zn5   S    
C4    C8    A    
O76   Zn5   S    
H31   O154  S    
C6    C152  A    
C55   C60   A    
C90   O49   S    
C102  C124  A    
O94   Zn6   S    
C60   C131  A    
C64   C86   A    
H40   O4    S    
C25   O11   S    
H46   O9    S    
H50   O14   S    
C20   H78   S    
C34   O97   A    
C143  O89   A    
H36   O158  S    
H37   O159  S    
C116  C121  A    
C104  O116  S    
C47   C51   A    
C82   C86   A    
O75   Zn1   S    
C7    C11   A    
C9    C14   A    
O21   S2    D    
C11   C16   A    
O104  Zn2   S    
C76   O84   A    
C77   C81   A    
H62   O43   S    
C72   S6    S    
C37   C110  S    
O23   S3    D    
C141  C146  S    
O101  Zn3   S    
H14   O121  S    
O39   S7    S    
O102  Zn4   S    
C13   O15   S    
O141  S17   D    
C20   O157  S    
O85   Zn5   S    
C102  O114  S    
O31   S5    D    
O91   Zn11  S    
C33   O24   A    
C78   O45   S    
O128  Zn2   S    
C6    C10   A    
C40   C109  A    
C22   C138  S    
H8    O113  S    
O19   S20   S    
C2    O14   S    
C79   C83   A    
C40   O107  S    
H5    O110  S    
C11   C28   S    
C67   C71   A    
C118  C123  A    
C38   C108  S    
C144  O90   A    
C129  C134  A    
H65   O47   S    
C79   O47   S    
O148  S19   S    
O68   Zn3   S    
C100  O112  S    
C91   O54   S    
C51   O7    S    
H7    O112  S    
O139  Zn12  S    
C35   C46   A    
O1    Zn1   S    
C44   C49   A    
C58   C109  A    
C14   C18   S    
C56   C98   A    
C144  C148  S    
O147  S19   D    
C119  C124  A    
C24   C55   A    
C143  C147  S    
C93   O79   A    
C94   O80   A    
C62   C67   A    
O100  Zn11  S    
O41   S8    D    
C23   C139  S    
H13   O118  S    
C10   C15   A    
H47   O10   S    
O89   Zn9   S    
C18   H56   S    
C19   O156  S    
C44   C93   S    
O127  S14   S    
C121  C125  A    
C33   O68   A    
C97   S9    S    
C116  C129  A    
C88   C92   S    
H20   O134  S    
O84   Zn6   S    
C73   C78   A    
O136  S16   D    
C61   S4    S    
C92   C101  S    
O32   S5    S    
O61   S10   D    
C75   C80   A    
O57   Zn4   S    
C68   C72   A    
C22   O159  S    
C42   C47   A    
C30   C80   S    
C17   O154  S    
O137  S16   D    
C29   O104  A    
H80   O105  S    
C65   O73   A    
C141  O88   A    
C151  S17   S    
H58   O32   S    
O119  S1    D    
C105  O118  S    
C50   O6    S    
C4    O149  S    
H74   O55   S    
C95   O81   A    
C132  H34   S    
C39   C43   A    
O18   S20   D    
C52   C142  A    
C13   C24   A    
C89   C97   S    
C122  C126  A    
C72   C77   A    
H53   O19   S    
C138  C147  A    
C27   O102  A    
C90   O53   S    
O144  S18   D    
O72   Zn10  S    
C38   O100  A    
C23   O10   S    
H77   O65   S    
C117  C130  A    
H48   O11   S    
H41   O5    S    
O140  S17   D    
C114  C118  A    
C144  O86   A    
C23   O160  S    
C128  H1    S    
H28   O151  S    
C24   O16   S    
H32   O155  S    
C19   H67   S    
C84   C89   S    
C100  S11   S    
H54   O22   S    
C43   C48   A    
C125  C133  A    
C28   O103  A    
O38   S7    D    
H24   O142  S    
O130  S15   D    
C57   C131  A    
C103  O115  S    
H70   O51   S    
O33   S6    D    
H29   O152  S    
C87   O95   A    
C31   C81   S    
C71   S5    S    
C29   O139  A    
C26   O106  A    
C128  C133  A    
C71   C75   A    
C45   C96   S    
C18   O155  S    
O86   Zn6   S    
O122  S12   D    
H59   O36   S    
O36   S6    S    
C102  C106  A    
C97   O110  S    
O37   S7    D    
C38   O96   A    
C21   O8    S    
C104  C126  A    
C25   O3    S    
H66   O48   S    
H38   O160  S    
H22   O138  S    
C12   C137  A    
C111  C115  A    
C122  C123  A    
C41   O108  S    
C52   C56   A    
