data_mof_unit_57486.cif
_audit_creation_date              2012-10-26T18:59:53-0400
_audit_creation_method            fapswitch 2.2
_symmetry_space_group_name_H-M    P1
_symmetry_Int_Tables_number       1
_space_group_crystal_system       triclinic
_cell_length_a                    9.540375
_cell_length_b                    10.836948
_cell_length_c                    17.118733
_cell_angle_alpha                 89.274332
_cell_angle_beta                  93.942422
_cell_angle_gamma                 90.454147
_cell_volume                      1765.50700447

loop_
_atom_site_label
_atom_site_type_symbol
_atom_type_description
_atom_site_fract_x
_atom_site_fract_y
_atom_site_fract_z
_atom_type_partial_charge
C1    C     C_R   0.499665 0.262360 0.501846 0.550658
C2    C     C_R   0.499354 0.129343 0.510284 0.008319
C3    C     C_R   0.372909 0.063206 0.515361 -0.157584
C4    C     C_R   0.517568 0.498035 0.650903 0.558194
C5    C     C_R   0.373544 0.934501 0.514861 -0.156964
C6    C     C_R   0.500608 0.870970 0.509241 0.008846
C7    C     C_R   0.626448 0.937907 0.515702 0.029225
C8    C     C_3   0.750097 0.935739 0.466763 -0.277092
C9    C     C_3   0.749366 0.075588 0.467826 -0.261870
C10   C     C_R   0.065867 0.528830 0.433399 0.158757
C11   C     C_R   0.081708 0.458601 0.563218 -0.010655
C12   C     C_R   0.659916 0.492838 0.778441 -0.155074
C13   C     C_R   0.932986 0.458785 0.563269 -0.009326
C14   C     C_R   0.918435 0.527969 0.433190 0.157137
C15   C     C_3   0.908143 0.645769 0.387492 -0.278168
C16   C     C_R   0.500417 0.737820 0.501336 0.551297
C17   C     C_3   0.067259 0.647230 0.388311 -0.272744
C18   C     C_R   0.482540 0.500707 0.349109 0.550889
C19   C     C_R   0.528076 0.495520 0.736842 -0.021186
C20   C     C_R   0.406156 0.494785 0.777683 -0.156133
C21   C     C_R   0.415329 0.492000 0.858836 -0.106231
C22   C     C_R   0.547474 0.489716 0.901513 0.206967
C23   C     C_R   0.589444 0.492389 0.142007 -0.082667
C24   C     C_R   0.671608 0.489331 0.860654 0.059816
C25   C     C_2   0.814616 0.485372 0.901975 0.587465
C26   C     C_R   0.596526 0.494308 0.223240 -0.164140
C27   C     C_R   0.457974 0.494290 0.098914 0.228625
C28   C     C_R   0.473241 0.498663 0.263227 0.006899
C29   C     C_R   0.342281 0.499792 0.220470 -0.151918
C30   C     C_R   0.335117 0.497762 0.138885 -0.105446
C31   C     C_R   0.625634 0.064952 0.516256 0.025458
Cu1   Cu    Cu3+1 0.640670 0.499980 0.500000 0.943259
Cu2   Cu    Cu3+1 0.359330 0.500020 0.500000 0.941172
H1    H     H_    0.698924 0.491794 0.254594 0.125356
H2    H     H_    0.865865 0.721116 0.421533 0.144805
H3    H     H_    0.106503 0.635774 0.329270 0.123559
H4    H     H_    0.687015 0.489330 0.113428 0.177193
H5    H     H_    0.116794 0.724156 0.422874 0.146376
H6    H     H_    0.754209 0.492449 0.746613 0.161381
H7    H     H_    0.245508 0.501892 0.249882 0.124341
H8    H     H_    0.318101 0.492184 0.887933 0.166530
H9    H     H_    0.233436 0.498886 0.106570 0.122323
H10   H     H_    0.303034 0.496623 0.746991 0.144755
H11   H     H_    0.273174 0.110230 0.515549 0.137121
H12   H     H_    0.274072 0.885644 0.514901 0.133660
H13   H     H_    0.934528 0.454561 0.002097 0.332256
H14   H     H_    0.844404 0.896036 0.499269 0.137243
H15   H     H_    0.723529 0.897791 0.407480 0.133502
H16   H     H_    0.842579 0.115885 0.501080 0.142332
H17   H     H_    0.722968 0.118333 0.409297 0.145277
H18   H     H_    0.142832 0.426301 0.614811 0.122313
H19   H     H_    0.883897 0.426780 0.614903 0.124369
H20   H     H_    0.856080 0.633501 0.328044 0.122393
N1    N     N_2   0.558805 0.490444 0.984699 -0.184405
N2    N     N_2   0.444550 0.492927 0.015895 -0.249891
N3    N     N_R   0.147870 0.500930 0.499500 -0.233702
N4    N     N_R   0.851960 0.500890 0.499500 -0.233743
O1    O     O_R   0.618810 0.319640 0.500000 -0.499573
O2    O     O_R   0.832295 0.453950 0.981500 -0.688382
O3    O     O_R   0.381230 0.319680 0.499990 -0.505613
O4    O     O_R   0.631790 0.498830 0.613930 -0.511653
O5    O     O_R   0.394210 0.498870 0.613920 -0.510212
O6    O     O_R   0.618770 0.680320 0.500010 -0.496294
O7    O     O_R   0.381190 0.680360 0.500000 -0.507246
O8    O     O_R   0.605790 0.501130 0.386080 -0.506126
O9    O     O_R   0.368210 0.501170 0.386070 -0.502907
O10   O     O_2   0.918296 0.508382 0.865921 -0.543126

loop_
_geom_bond_atom_site_label_1
_geom_bond_atom_site_label_2
_ccdc_geom_bond_type
Cu1   O4    S    
C8    H15   S    
C6    C7    A    
C16   O6    A    
C23   C27   A    
H13   O2    S    
C18   O9    A    
C13   H19   S    
C10   N3    A    
C12   C24   A    
C26   C28   A    
C19   C20   A    
C25   O10   D    
Cu1   O1    S    
C3    C5    A    
Cu1   Cu2   S    
C12   H6    S    
C14   C15   S    
C2    C3    A    
C8    C9    S    
C8    H14   S    
C9    H16   S    
C7    C8    S    
C22   N1    S    
C23   H4    S    
C21   C22   A    
C24   C25   S    
C18   O8    A    
C11   C13   A    
C16   O7    A    
C29   C30   A    
C11   N3    A    
Cu1   N4    S    
Cu2   N3    S    
Cu2   O7    S    
C21   H8    S    
C15   H20   S    
C29   H7    S    
C15   H2    S    
C28   C29   A    
C17   H3    S    
Cu2   O9    S    
Cu2   O3    S    
C22   C24   A    
C17   H5    S    
C2    C31   A    
C11   H18   S    
C5    C6    A    
C27   N2    S    
C3    H11   S    
C1    O3    A    
C7    C31   A    
C9    C31   S    
C10   C17   S    
C6    C16   S    
C4    O5    A    
C20   H10   S    
C18   C28   S    
C20   C21   A    
C12   C19   A    
C1    C2    S    
C10   C14   A    
C23   C26   A    
C15   C17   S    
C14   N4    A    
N1    N2    D    
Cu2   O5    S    
C25   O2    S    
C13   N4    A    
C1    O1    A    
C4    C19   S    
C5    H12   S    
C4    O4    A    
C26   H1    S    
C30   H9    S    
C9    H17   S    
Cu1   O6    S    
Cu1   O8    S    
C27   C30   A    
