data_mof_unit_62141.cif
_audit_creation_date              2012-12-10T19:54:35-0500
_audit_creation_method            fapswitch 2.2
_symmetry_space_group_name_H-M    P1
_symmetry_Int_Tables_number       1
_space_group_crystal_system       triclinic
_cell_length_a                    18.342881
_cell_length_b                    18.351197
_cell_length_c                    51.393336
_cell_angle_alpha                 89.992694
_cell_angle_beta                  89.992022
_cell_angle_gamma                 90.173042
_cell_volume                      17299.628089

loop_
_atom_site_label
_atom_site_type_symbol
_atom_type_description
_atom_site_fract_x
_atom_site_fract_y
_atom_site_fract_z
_atom_type_partial_charge
C1    C     C_R   0.000013 0.500110 0.929171 0.886212
C2    C     C_R   0.034839 0.629185 0.763172 0.658129
C3    C     C_R   0.639737 0.140312 0.999778 0.891923
C4    C     C_R   0.140065 0.639946 0.999659 0.929778
C5    C     C_R   0.639736 0.859655 0.999858 0.937178
C6    C     C_R   0.859959 0.360012 0.999683 0.932592
C7    C     C_R   0.360191 0.140276 0.999831 0.942036
C8    C     C_R   0.359516 0.139632 0.499889 0.897833
C9    C     C_R   0.860274 0.359678 0.499781 0.892602
C10   C     C_R   0.640486 0.860365 0.499889 0.897957
C11   C     C_R   0.139720 0.640328 0.499781 0.892637
C12   C     C_R   0.640030 0.140004 0.499673 0.931545
C13   C     C_R   0.373656 0.959361 0.763527 0.657340
C14   C     C_R   0.139784 0.359695 0.499838 0.937747
C15   C     C_R   0.359975 0.859991 0.499674 0.931502
C16   C     C_R   0.860212 0.640307 0.499838 0.937862
C17   C     C_R   0.240426 0.707024 0.978292 -0.052450
C18   C     C_R   0.303788 0.251457 0.981738 -0.022231
C19   C     C_R   0.762129 0.290652 0.977902 -0.001289
C20   C     C_R   0.695523 0.748011 0.981870 -0.024542
C21   C     C_R   0.746582 0.694091 0.982270 -0.031989
C22   C     C_R   0.707630 0.239249 0.978125 -0.171976
C23   C     C_R   0.252957 0.305463 0.982195 -0.031360
C24   C     C_R   0.965671 0.372585 0.763357 0.658208
C25   C     C_R   0.292811 0.760221 0.978445 -0.139028
C26   C     C_R   0.737925 0.209351 0.477898 0.000642
C27   C     C_R   0.803076 0.750662 0.481394 -0.022592
C28   C     C_R   0.262107 0.790652 0.477898 0.000669
C29   C     C_R   0.196945 0.249356 0.481393 -0.022629
C30   C     C_R   0.248013 0.195410 0.481772 -0.031313
C31   C     C_R   0.207466 0.739390 0.478131 -0.172261
C32   C     C_R   0.752009 0.804609 0.481774 -0.031285
C33   C     C_R   0.792554 0.260625 0.478132 -0.172247
C34   C     C_R   0.197904 0.693537 0.000339 -0.225546
C35   C     C_R   0.126849 0.539661 0.263514 0.657838
C36   C     C_R   0.307087 0.198451 0.001115 -0.256719
C37   C     C_R   0.802519 0.305926 0.000283 -0.235012
C38   C     C_R   0.692688 0.801324 0.001165 -0.253822
C39   C     C_R   0.800493 0.691915 0.001407 -0.264435
C40   C     C_R   0.692944 0.198597 0.000521 -0.245101
C41   C     C_R   0.199379 0.308024 0.001417 -0.265018
C42   C     C_R   0.306695 0.801988 0.000544 -0.218979
C43   C     C_R   0.697476 0.194093 0.500274 -0.235088
C44   C     C_R   0.807066 0.698487 0.501060 -0.253831
C45   C     C_R   0.302537 0.805892 0.500274 -0.235066
C46   C     C_R   0.537239 0.127569 0.263257 0.658405
C47   C     C_R   0.192931 0.301512 0.501060 -0.253706
C48   C     C_R   0.300709 0.192112 0.501302 -0.264930
C49   C     C_R   0.192884 0.698652 0.500521 -0.245831
C50   C     C_R   0.699292 0.807886 0.501303 -0.265038
C51   C     C_R   0.807102 0.301360 0.500521 -0.245811
C52   C     C_R   0.215188 0.730582 0.023599 0.565749
C53   C     C_R   0.259470 0.205451 0.022588 0.552764
C54   C     C_R   0.783269 0.270901 0.023715 0.564635
C55   C     C_R   0.740534 0.794533 0.022567 0.552512
C56   C     C_R   0.794312 0.740428 0.022627 0.567184
C57   C     C_R   0.873138 0.460364 0.263535 0.657848
C58   C     C_R   0.728935 0.217152 0.023806 0.590616
C59   C     C_R   0.205705 0.259614 0.022671 0.567985
C60   C     C_R   0.269405 0.784535 0.023701 0.569889
C61   C     C_R   0.716671 0.229128 0.523703 0.564898
C62   C     C_R   0.760313 0.706332 0.522721 0.552723
C63   C     C_R   0.283308 0.770853 0.523704 0.564892
C64   C     C_R   0.239660 0.293644 0.522722 0.552771
C65   C     C_R   0.293436 0.239525 0.522788 0.568550
C66   C     C_R   0.228960 0.717127 0.523798 0.590362
C67   C     C_R   0.706539 0.760451 0.522786 0.568583
C68   C     C_R   0.462799 0.872438 0.263278 0.658403
C69   C     C_R   0.771006 0.282869 0.523797 0.590346
C70   C     C_3   0.287974 0.774555 0.949615 -0.320646
C71   C     C_3   0.257011 0.319019 0.953322 -0.281709
C72   C     C_3   0.718772 0.218227 0.950013 -0.318378
C73   C     C_3   0.743016 0.681401 0.953322 -0.280793
C74   C     C_3   0.684420 0.743760 0.952759 -0.285220
C75   C     C_3   0.781516 0.276621 0.949669 -0.242693
C76   C     C_3   0.315150 0.256232 0.952658 -0.286896
C77   C     C_3   0.226436 0.714773 0.949319 -0.236015
C78   C     C_3   0.781599 0.281582 0.449999 -0.318542
C79   C     C_R   0.128165 0.538667 0.236262 -0.199504
C80   C     C_3   0.753147 0.814928 0.452680 -0.283218
C81   C     C_3   0.218453 0.718436 0.450000 -0.318543
C82   C     C_3   0.246898 0.185112 0.452678 -0.283218
C83   C     C_3   0.188171 0.247306 0.452149 -0.283515
C84   C     C_3   0.281513 0.776496 0.449673 -0.240728
C85   C     C_3   0.811870 0.752732 0.452150 -0.283523
C86   C     C_3   0.718553 0.223508 0.449672 -0.240703
C87   C     C_R   0.438436 0.979559 0.804706 0.681266
C88   C     C_R   0.983216 0.438320 0.804464 0.675675
C89   C     C_R   0.561985 0.020463 0.804694 0.682114
C90   C     C_R   0.536241 0.128849 0.236014 -0.200470
C91   C     C_R   0.017428 0.563843 0.804378 0.677434
C92   C     C_R   0.938126 0.479865 0.304717 0.681342
C93   C     C_R   0.481314 0.937704 0.304430 0.677241
C94   C     C_R   0.061867 0.520179 0.304706 0.681340
C95   C     C_R   0.518748 0.062312 0.304419 0.677293
C96   C     C_R   0.563447 0.020950 0.777277 -0.147946
C97   C     C_R   0.018142 0.565118 0.776981 -0.147600
C98   C     C_R   0.436955 0.979078 0.777290 -0.147138
C99   C     C_R   0.982436 0.436780 0.777072 -0.147399
C100  C     C_R   0.063379 0.520526 0.277290 -0.147817
C101  C     C_R   0.871818 0.461340 0.236284 -0.199543
C102  C     C_R   0.519316 0.063760 0.277023 -0.147621
C103  C     C_R   0.936610 0.479505 0.277301 -0.147800
C104  C     C_R   0.480732 0.936249 0.277034 -0.147640
C105  C     C_2   0.261423 0.850811 0.942445 0.976620
C106  C     C_2   0.184331 0.303915 0.939862 0.949645
C107  C     C_2   0.741683 0.138413 0.947473 0.967256
C108  C     C_2   0.815739 0.697542 0.940028 0.948017
C109  C     C_2   0.706796 0.811694 0.937771 1.021603
C110  C     C_2   0.857455 0.246338 0.944857 0.961063
C111  C     C_2   0.292497 0.188655 0.937545 1.022576
C112  C     C_R   0.500025 0.000005 0.929254 0.935832
C113  C     C_R   0.463775 0.871153 0.236036 -0.200427
C114  C     C_2   0.150531 0.742377 0.942466 0.930796
C115  C     C_2   0.759101 0.361492 0.447372 0.968210
C116  C     C_2   0.679372 0.797566 0.440356 0.946916
C117  C     C_2   0.240936 0.638523 0.447379 0.968197
C118  C     C_2   0.320681 0.202488 0.440354 0.946913
C119  C     C_2   0.211284 0.316440 0.438025 1.018521
C120  C     C_2   0.357326 0.745806 0.444925 0.959166
C121  C     C_2   0.788763 0.683610 0.438026 1.018545
C122  C     C_2   0.642740 0.254182 0.444916 0.959164
C123  C     C_2   0.359780 0.754956 0.936072 1.036358
C124  C     C_R   0.628007 0.039863 0.736247 -0.199396
C125  C     C_2   0.287593 0.394391 0.947469 1.041624
C126  C     C_2   0.653986 0.236561 0.932411 1.030207
C127  C     C_2   0.713529 0.605900 0.947037 1.038049
C128  C     C_2   0.607682 0.719993 0.945392 0.987287
C129  C     C_2   0.768224 0.342652 0.932473 0.939597
C130  C     C_2   0.391929 0.279867 0.945391 0.992783
C131  C     C_2   0.243897 0.646759 0.933820 0.951512
C132  C     C_2   0.846343 0.262827 0.432420 1.029300
C133  C     C_2   0.781942 0.889899 0.445275 1.037859
C134  C     C_2   0.153736 0.737212 0.432416 1.029297
C135  C     C_R   0.034017 0.630255 0.735928 -0.200322
C136  C     C_2   0.218114 0.110145 0.445273 1.037871
C137  C     C_2   0.112152 0.223693 0.443877 0.992866
C138  C     C_2   0.268704 0.842582 0.432460 0.936762
C139  C     C_2   0.887896 0.776345 0.443877 0.992839
C140  C     C_2   0.731400 0.157426 0.432465 0.936749
C141  C     C_2   0.199820 0.550831 0.223618 1.116473
C142  C     C_2   0.546761 0.200711 0.223349 1.117951
C143  C     C_2   0.800162 0.449172 0.223650 1.116494
C144  C     C_2   0.453245 0.799288 0.223381 1.117872
C145  C     C_2   0.699498 0.052962 0.723602 1.116323
C146  C     C_R   0.372356 0.960199 0.736276 -0.199318
C147  C     C_2   0.043322 0.702207 0.723205 1.118148
C148  C     C_2   0.300847 0.947160 0.723646 1.116099
C149  C     C_2   0.956914 0.299198 0.723492 1.118072
C150  C     C_2   0.894685 0.590001 0.099307 1.099819
C151  C     C_2   0.590477 0.895083 0.099212 1.100276
C152  C     C_2   0.105309 0.409990 0.099304 1.099628
C153  C     C_2   0.409517 0.104918 0.099209 1.100490
C154  C     C_2   0.394131 0.089281 0.599306 1.099748
C155  C     C_2   0.090607 0.395322 0.599254 1.101041
C156  C     C_2   0.605956 0.910711 0.599270 1.099768
C157  C     C_R   0.966365 0.371260 0.736114 -0.200382
C158  C     C_2   0.909389 0.604892 0.599162 1.101144
C159  C     C_2   0.563744 0.877463 0.845477 1.067226
C160  C     C_2   0.138175 0.497827 0.845105 1.078494
C161  C     C_2   0.436669 0.122592 0.845445 1.066554
C162  C     C_2   0.862356 0.505291 0.845005 1.077998
C163  C     C_2   0.064074 0.377744 0.345479 1.065729
C164  C     C_2   0.637697 0.990873 0.345053 1.078043
C165  C     C_2   0.935933 0.622301 0.345480 1.065729
C166  C     C_2   0.362360 0.009168 0.345057 1.078018
C167  C     C_R   0.063692 0.521242 0.222131 -0.163280
C168  C     C_R   0.520120 0.064044 0.221909 -0.163623
C169  C     C_R   0.936291 0.478754 0.222142 -0.163310
C170  C     C_R   0.479883 0.935955 0.221921 -0.163583
C171  C     C_R   0.563692 0.021839 0.722115 -0.163269
C172  C     C_R   0.500004 0.000002 0.429171 0.887814
C173  C     C_R   0.019155 0.565073 0.721870 -0.163813
C174  C     C_R   0.436666 0.978202 0.722131 -0.163285
C175  C     C_R   0.981197 0.436303 0.721964 -0.163810
C176  C     C_R   0.999992 0.500003 0.235905 0.004849
C177  C     C_R   0.500007 0.000001 0.235675 0.004438
C178  C     C_R   0.500185 0.000018 0.735892 0.004902
C179  C     C_R   0.000210 0.500752 0.735676 0.004147
C180  C     C_R   0.059573 0.526047 0.194707 0.680982
C181  C     C_R   0.525178 0.059935 0.194514 0.681497
C182  C     C_R   0.940407 0.473932 0.194718 0.681011
C183  C     C_R   0.000001 0.500004 0.429258 0.939907
C184  C     C_R   0.474803 0.940060 0.194526 0.681486
C185  C     C_R   0.559521 0.026596 0.694690 0.680797
C186  C     C_R   0.024370 0.560879 0.694482 0.681598
C187  C     C_R   0.440812 0.973433 0.694707 0.680800
C188  C     C_R   0.975883 0.440236 0.694574 0.681574
C189  C     C_R   0.952263 0.545493 0.140128 0.619735
C190  C     C_R   0.545835 0.952570 0.140009 0.620067
C191  C     C_R   0.047711 0.454471 0.140127 0.619741
C192  C     C_R   0.454130 0.047413 0.140008 0.620081
C193  C     C_R   0.452070 0.045193 0.640124 0.619865
C194  C     C_R   0.500196 0.000015 0.763470 -0.138115
C195  C     C_R   0.046076 0.453039 0.640023 0.620315
C196  C     C_R   0.548151 0.954835 0.640109 0.619880
C197  C     C_R   0.954005 0.547535 0.639983 0.620287
C198  C     C_R   0.950606 0.545155 0.112803 -0.240737
C199  C     C_R   0.545436 0.950843 0.112707 -0.241102
C200  C     C_R   0.049375 0.454818 0.112802 -0.240960
C201  C     C_R   0.454538 0.049144 0.112706 -0.240976
C202  C     C_R   0.450373 0.044832 0.612800 -0.241134
C203  C     C_R   0.045575 0.451127 0.612724 -0.241451
C204  C     C_R   0.549755 0.955168 0.612784 -0.241187
C205  C     C_R   0.000266 0.500883 0.763228 -0.137387
C206  C     C_R   0.954438 0.549193 0.612682 -0.241500
C207  C     C_R   0.999992 0.499988 0.098926 -0.284806
C208  C     C_R   0.499988 0.999994 0.098856 -0.284635
C209  C     C_R   0.500039 0.999993 0.598919 -0.284471
C210  C     C_R   0.999991 0.500098 0.598854 -0.285105
C211  C     C_R   0.999986 0.499981 0.153723 0.009880
C212  C     C_R   0.499982 0.999991 0.153579 0.008588
C213  C     C_R   0.500133 0.000020 0.653711 0.010057
C214  C     C_R   0.000063 0.500355 0.653578 0.007832
C215  C     C_R   0.999999 0.499996 0.070194 0.975336
C216  C     C_R   0.999993 0.500011 0.263483 -0.137758
C217  C     C_R   0.499996 0.999999 0.070172 0.974303
C218  C     C_R   0.500005 0.999996 0.570191 0.975994
C219  C     C_R   0.999996 0.500008 0.570171 0.975498
C220  C     C_R   0.530987 0.940650 0.859426 -0.149657
C221  C     C_R   0.067090 0.500350 0.859112 -0.153331
C222  C     C_R   0.469381 0.059408 0.859410 -0.148532
C223  C     C_R   0.933326 0.502096 0.859069 -0.153614
C224  C     C_R   0.031124 0.440808 0.359435 -0.147456
C225  C     C_R   0.566816 0.996421 0.359087 -0.154461
C226  C     C_R   0.968883 0.559232 0.359435 -0.147449
C227  C     C_R   0.500018 0.000004 0.263229 -0.137618
C228  C     C_R   0.433234 0.003613 0.359089 -0.154467
C229  C     C_R   0.530446 0.941299 0.886776 0.549060
C230  C     C_R   0.066379 0.501029 0.886435 0.543530
C231  C     C_R   0.469807 0.058748 0.886761 0.539801
C232  C     C_R   0.933867 0.500729 0.886393 0.538996
C233  C     C_R   0.030711 0.441493 0.386784 0.542341
C234  C     C_R   0.566208 0.997302 0.386414 0.541416
C235  C     C_R   0.969298 0.558538 0.386785 0.542310
C236  C     C_R   0.433827 0.002725 0.386416 0.541425
C237  C     C_R   0.500093 0.000017 0.900506 -0.293281
C238  C     C_R   0.626730 0.040686 0.763499 0.657611
C239  C     C_R   0.000080 0.500564 0.900283 -0.332758
C240  C     C_R   0.000004 0.500012 0.400518 -0.287589
C241  C     C_R   0.500014 0.000009 0.400282 -0.329024
C242  C     C_R   0.500208 0.000030 0.845688 -0.004148
C243  C     C_R   0.000252 0.501261 0.845390 -0.007751
C244  C     C_R   0.000002 0.500022 0.345704 -0.003288
C245  C     C_R   0.500028 0.000016 0.345388 -0.006718
C246  C     C_R   0.859460 0.639593 0.999908 0.897919
C247  C     C_R   0.360306 0.859739 0.999814 0.936786
C248  C     C_R   0.140533 0.360424 0.999922 0.898665
F1    F     F_    0.179159 0.715541 0.046062 -0.559057
F2    F     F_    0.764869 0.660778 0.543479 -0.562101
F3    F     F_    0.317789 0.787477 0.546329 -0.560941
F4    F     F_    0.235076 0.339172 0.543484 -0.562146
F5    F     F_    0.339082 0.235103 0.543527 -0.560276
F6    F     F_    0.212617 0.682627 0.546446 -0.561028
F7    F     F_    0.660869 0.764851 0.543523 -0.560230
F8    F     F_    0.787317 0.317363 0.546444 -0.561020
F9    F     F_    0.689030 0.058110 0.776481 -0.548318
F10   F     F_    0.049251 0.692282 0.776112 -0.547702
F11   F     F_    0.311361 0.941952 0.776522 -0.548913
F12   F     F_    0.263159 0.159067 0.043135 -0.560400
F13   F     F_    0.951289 0.309614 0.776386 -0.547575
F14   F     F_    0.189290 0.556546 0.276499 -0.547967
F15   F     F_    0.552943 0.190292 0.276240 -0.547064
F16   F     F_    0.810697 0.443489 0.276530 -0.547963
F17   F     F_    0.447107 0.809717 0.276272 -0.547055
F18   F     F_    0.905878 0.588669 0.153775 -0.564017
F19   F     F_    0.589361 0.906523 0.153661 -0.563775
F20   F     F_    0.094097 0.411296 0.153774 -0.564035
F21   F     F_    0.410605 0.093463 0.153659 -0.563735
F22   F     F_    0.405401 0.088041 0.653780 -0.564100
F23   F     F_    0.817700 0.287573 0.046344 -0.560993
F24   F     F_    0.089850 0.407252 0.653686 -0.563449
F25   F     F_    0.594860 0.911995 0.653750 -0.564084
F26   F     F_    0.910267 0.593451 0.653605 -0.563456
F27   F     F_    0.559551 0.884360 0.900104 -0.582728
F28   F     F_    0.130850 0.500290 0.899479 -0.559467
F29   F     F_    0.440622 0.115671 0.900074 -0.584044
F30   F     F_    0.869347 0.501505 0.899408 -0.563539
F31   F     F_    0.060302 0.384800 0.400110 -0.585256
F32   F     F_    0.630570 0.993436 0.399449 -0.561400
F33   F     F_    0.939709 0.615227 0.400111 -0.585278
F34   F     F_    0.737110 0.841135 0.043053 -0.560170
F35   F     F_    0.369458 0.006595 0.399452 -0.561418
F36   F     F_    0.841061 0.737166 0.043080 -0.558828
F37   F     F_    0.712529 0.182708 0.046459 -0.560841
F38   F     F_    0.159196 0.263109 0.043192 -0.559106
F39   F     F_    0.284354 0.820218 0.046233 -0.560470
F40   F     F_    0.682171 0.212489 0.546327 -0.560940
H1    H     H_    0.230791 0.919285 0.913756 0.371365
H2    H     H_    0.601036 0.826465 0.414780 0.350856
H3    H     H_    0.225161 0.541427 0.429706 0.368654
H4    H     H_    0.399037 0.173613 0.414777 0.350857
H5    H     H_    0.233071 0.364246 0.403520 0.379661
H6    H     H_    0.426411 0.699783 0.419215 0.375578
H7    H     H_    0.766996 0.635829 0.403522 0.379677
H8    H     H_    0.573675 0.300180 0.419195 0.375565
H9    H     H_    0.379110 0.664304 0.957921 0.327791
H10   H     H_    0.332714 0.486872 0.961492 0.376932
H11   H     H_    0.588518 0.278823 0.960851 0.350994
H12   H     H_    0.109139 0.336211 0.913619 0.350876
H13   H     H_    0.675022 0.509803 0.960429 0.381832
H14   H     H_    0.538285 0.691916 0.916598 0.397923
H15   H     H_    0.764177 0.383107 0.896009 0.412962
H16   H     H_    0.461486 0.308397 0.916684 0.396202
H17   H     H_    0.264415 0.603113 0.898566 0.410313
H18   H     H_    0.912127 0.221603 0.460968 0.350757
H19   H     H_    0.822666 0.986539 0.457213 0.383723
H20   H     H_    0.087923 0.778439 0.460958 0.350756
H21   H     H_    0.177415 0.013481 0.457208 0.383728
H22   H     H_    0.044650 0.198172 0.414222 0.395259
H23   H     H_    0.726381 0.041070 0.929923 0.369297
H24   H     H_    0.265784 0.883227 0.396003 0.410015
H25   H     H_    0.955418 0.801890 0.414222 0.395254
H26   H     H_    0.734401 0.116789 0.396011 0.409993
H27   H     H_    0.288774 0.614785 0.220079 0.361861
H28   H     H_    0.608367 0.291318 0.219924 0.360867
H29   H     H_    0.711200 0.385224 0.220133 0.361931
H30   H     H_    0.391639 0.708678 0.219981 0.360854
H31   H     H_    0.787570 0.118155 0.720044 0.362991
H32   H     H_    0.103270 0.793932 0.719778 0.360553
H33   H     H_    0.212721 0.882049 0.720109 0.363092
H34   H     H_    0.891417 0.666766 0.913721 0.350482
H35   H     H_    0.896798 0.207534 0.720215 0.360894
H36   H     H_    0.821165 0.597898 0.070213 0.368165
H37   H     H_    0.598490 0.821428 0.070176 0.367426
H38   H     H_    0.178860 0.402134 0.070213 0.368306
H39   H     H_    0.401549 0.178601 0.070176 0.367525
H40   H     H_    0.320577 0.096667 0.570206 0.368931
H41   H     H_    0.098447 0.321334 0.570320 0.368954
H42   H     H_    0.679433 0.903313 0.570138 0.368876
H43   H     H_    0.901537 0.678699 0.570165 0.368826
H44   H     H_    0.564381 0.812747 0.813709 0.371252
H45   H     H_    0.726467 0.856734 0.902639 0.382379
H46   H     H_    0.195085 0.463564 0.813807 0.371219
H47   H     H_    0.436151 0.187314 0.813671 0.371203
H48   H     H_    0.805949 0.540245 0.813689 0.371671
H49   H     H_    0.064706 0.312913 0.313741 0.371163
H50   H     H_    0.692974 0.954556 0.313676 0.371675
H51   H     H_    0.935295 0.687137 0.313737 0.371163
H52   H     H_    0.307102 0.045498 0.313680 0.371675
H53   H     H_    0.926637 0.200774 0.919075 0.375588
H54   H     H_    0.272368 0.144307 0.902340 0.381848
H55   H     H_    0.080511 0.771264 0.914016 0.370026
H56   H     H_    0.774876 0.458595 0.429694 0.368651
N1    N     N_R   0.500213 0.000013 0.817673 -0.328613
N2    N     N_R   0.000323 0.501146 0.817386 -0.326864
N3    N     N_R   0.999998 0.500024 0.317687 -0.328765
N4    N     N_R   0.500033 0.000010 0.317387 -0.327213
N5    N     N_R   0.999989 0.499985 0.181745 -0.313839
N6    N     N_R   0.499986 0.999996 0.181570 -0.314142
N7    N     N_R   0.500159 0.000015 0.681733 -0.313809
N8    N     N_R   0.000107 0.500494 0.681572 -0.314427
O1    O     O_3   0.000000 0.500000 0.999730 -0.574286
O2    O     O_R   0.000000 0.561010 0.441690 -0.582786
O3    O     O_R   0.625382 0.281030 0.420225 -0.701321
O4    O     O_2   0.383229 0.793691 0.918622 -0.491182
O5    O     O_R   0.400674 0.693688 0.943139 -0.733187
O6    O     O_2   0.297602 0.413143 0.924907 -0.485610
O7    O     O_R   0.307353 0.441085 0.967829 -0.753112
O8    O     O_2   0.659183 0.225000 0.909083 -0.448927
O9    O     O_R   0.589074 0.267102 0.941654 -0.730540
O10   O     O_2   0.701917 0.588824 0.924405 -0.479404
O11   O     O_R   0.697824 0.556594 0.967057 -0.752742
O12   O     O_2   0.560767 0.711583 0.962066 -0.555043
O13   O     O_R   0.438990 0.000000 0.441690 -0.571767
O14   O     O_R   0.590855 0.707407 0.919237 -0.664359
O15   O     O_2   0.752656 0.401654 0.941989 -0.557044
O16   O     O_R   0.774438 0.335770 0.905469 -0.680253
O17   O     O_2   0.438319 0.289199 0.962175 -0.573416
O18   O     O_R   0.409139 0.292083 0.919242 -0.666030
O19   O     O_2   0.248955 0.587620 0.944576 -0.563336
O20   O     O_R   0.253179 0.651902 0.906879 -0.677962
O21   O     O_2   0.841045 0.273849 0.409061 -0.450413
O22   O     O_R   0.911352 0.232588 0.441715 -0.724811
O23   O     O_2   0.791163 0.905253 0.422346 -0.477954
O24   O     O_R   0.000000 0.438990 0.441690 -0.582739
O25   O     O_R   0.800066 0.940540 0.464591 -0.749909
O26   O     O_2   0.159062 0.726196 0.409058 -0.450408
O27   O     O_R   0.088722 0.767464 0.441705 -0.724826
O28   O     O_2   0.208898 0.094816 0.422343 -0.477945
O29   O     O_R   0.199999 0.059479 0.464587 -0.749887
O30   O     O_2   0.064632 0.212345 0.460100 -0.569620
O31   O     O_R   0.096824 0.214144 0.417442 -0.661676
O32   O     O_2   0.253109 0.901593 0.441957 -0.559428
O33   O     O_R   0.275475 0.835772 0.405469 -0.682490
O34   O     O_2   0.935410 0.787667 0.460099 -0.569631
O35   O     O_R   1.000000 0.560620 0.057780 -0.606267
O36   O     O_R   0.903240 0.785922 0.417443 -0.661712
O37   O     O_2   0.746966 0.098412 0.441968 -0.559491
O38   O     O_R   0.724692 0.164243 0.405473 -0.682450
O39   O     O_2   0.224396 0.505177 0.208689 -0.517259
O40   O     O_R   0.240494 0.613097 0.229659 -0.684359
O41   O     O_2   0.500726 0.223994 0.208297 -0.515564
O42   O     O_R   0.607842 0.243039 0.229508 -0.687267
O43   O     O_2   0.775587 0.494816 0.208714 -0.517194
O44   O     O_R   0.759483 0.386914 0.229707 -0.684264
O45   O     O_2   0.499266 0.776003 0.208322 -0.515644
O46   O     O_R   0.439380 0.000000 0.057780 -0.608725
O47   O     O_R   0.392171 0.756960 0.229558 -0.687242
O48   O     O_2   0.724693 0.007618 0.708685 -0.517320
O49   O     O_R   0.739323 0.115787 0.729630 -0.684278
O50   O     O_2   0.997009 0.724518 0.708074 -0.514838
O51   O     O_R   0.103547 0.745710 0.729400 -0.689130
O52   O     O_2   0.275684 0.992521 0.708726 -0.517438
O53   O     O_R   0.260972 0.884372 0.729688 -0.683987
O54   O     O_2   0.003148 0.276667 0.708369 -0.514865
O55   O     O_R   0.896637 0.255851 0.729773 -0.688718
O56   O     O_2   0.879783 0.650769 0.107465 -0.452488
O57   O     O_R   0.000000 0.439380 0.057780 -0.606505
O58   O     O_R   0.857801 0.562225 0.077629 -0.806081
O59   O     O_2   0.651407 0.880533 0.107322 -0.452144
O60   O     O_R   0.562694 0.857941 0.077592 -0.808292
O61   O     O_2   0.120216 0.349218 0.107462 -0.452264
O62   O     O_R   0.142204 0.437790 0.077626 -0.806890
O63   O     O_2   0.348583 0.119474 0.107319 -0.452092
O64   O     O_R   0.437327 0.142068 0.077590 -0.807132
O65   O     O_2   0.378724 0.149901 0.607484 -0.451798
O66   O     O_R   0.357520 0.061287 0.577605 -0.806380
O67   O     O_2   0.151614 0.380927 0.607325 -0.451271
O68   O     O_R   0.560620 0.000000 0.057780 -0.606842
O69   O     O_R   0.062703 0.357942 0.577706 -0.806910
O70   O     O_2   0.621378 0.850093 0.607449 -0.451760
O71   O     O_R   0.642512 0.938697 0.577549 -0.806422
O72   O     O_2   0.848374 0.619314 0.607224 -0.451214
O73   O     O_R   0.937290 0.642147 0.577581 -0.807003
O74   O     O_2   0.613688 0.843343 0.855429 -0.489277
O75   O     O_R   0.537398 0.856212 0.821097 -0.795914
O76   O     O_2   0.192008 0.527356 0.854445 -0.502252
O77   O     O_R   0.144077 0.461117 0.821360 -0.798427
O78   O     O_2   0.386677 0.156700 0.855372 -0.490831
O79   O     O_R   0.500000 0.060620 0.557780 -0.606346
O80   O     O_R   0.463113 0.143853 0.821074 -0.795259
O81   O     O_2   0.808204 0.476171 0.854277 -0.508688
O82   O     O_R   0.856921 0.542214 0.821285 -0.797347
O83   O     O_2   0.114291 0.343920 0.355385 -0.485048
O84   O     O_R   0.037576 0.356266 0.321144 -0.795960
O85   O     O_2   0.692837 0.017733 0.354443 -0.507856
O86   O     O_R   0.641913 0.954332 0.321228 -0.796960
O87   O     O_2   0.885722 0.656128 0.355390 -0.485075
O88   O     O_R   0.962424 0.643780 0.321139 -0.795948
O89   O     O_2   0.307213 0.982309 0.354451 -0.507908
O90   O     O_R   0.939380 0.500000 0.557780 -0.607077
O91   O     O_R   0.358159 0.045717 0.321230 -0.796961
O92   O     O_R   0.500000 0.939380 0.557780 -0.606368
O93   O     O_3   0.500000 0.000000 0.999730 -0.570837
O94   O     O_R   0.060620 0.500000 0.557780 -0.607030
O95   O     O_R   0.854100 0.585380 0.984510 -0.631723
O96   O     O_R   0.414620 0.854100 0.984510 -0.652050
O97   O     O_R   0.145900 0.414620 0.984510 -0.633102
O98   O     O_R   0.585380 0.145900 0.984510 -0.653047
O99   O     O_R   0.145900 0.585380 0.984510 -0.619117
O100  O     O_R   0.585380 0.854100 0.984510 -0.627905
O101  O     O_R   0.854100 0.414620 0.984510 -0.622528
O102  O     O_R   0.414620 0.145900 0.984510 -0.626671
O103  O     O_R   0.354100 0.085380 0.484510 -0.630267
O104  O     O_3   0.500000 0.000000 0.499730 -0.574433
O105  O     O_R   0.914620 0.354100 0.484510 -0.654162
O106  O     O_R   0.645900 0.914620 0.484510 -0.630299
O107  O     O_R   0.085380 0.645900 0.484510 -0.654162
O108  O     O_R   0.645900 0.085380 0.484510 -0.622673
O109  O     O_R   0.085380 0.354100 0.484510 -0.627348
O110  O     O_R   0.354100 0.914620 0.484510 -0.622655
O111  O     O_R   0.914620 0.645900 0.484510 -0.627335
O112  O     O_R   0.085710 0.353760 0.014950 -0.568434
O113  O     O_R   0.646240 0.085710 0.014950 -0.565232
O114  O     O_R   0.914290 0.646240 0.014950 -0.569414
O115  O     O_3   1.000000 0.500000 0.499730 -0.568443
O116  O     O_R   0.353760 0.914290 0.014950 -0.564970
O117  O     O_R   0.914290 0.353760 0.014950 -0.566154
O118  O     O_R   0.353760 0.085710 0.014950 -0.571912
O119  O     O_R   0.085710 0.646240 0.014950 -0.569589
O120  O     O_R   0.646240 0.914290 0.014950 -0.574964
O121  O     O_R   0.585710 0.853760 0.514950 -0.568561
O122  O     O_R   0.146240 0.585710 0.514950 -0.564751
O123  O     O_R   0.414290 0.146240 0.514950 -0.568552
O124  O     O_R   0.853760 0.414290 0.514950 -0.564783
O125  O     O_R   0.414290 0.853760 0.514950 -0.566213
O126  O     O_R   0.061010 0.500000 0.941690 -0.570122
O127  O     O_R   0.853760 0.585710 0.514950 -0.573985
O128  O     O_R   0.585710 0.146240 0.514950 -0.566184
O129  O     O_R   0.146240 0.414290 0.514950 -0.573965
O130  O     O_2   0.379008 0.959479 0.818452 -0.418527
O131  O     O_2   0.967338 0.377718 0.818240 -0.423045
O132  O     O_2   0.621422 0.040538 0.818427 -0.414940
O133  O     O_2   0.033335 0.624572 0.818070 -0.422550
O134  O     O_2   0.878625 0.459987 0.318460 -0.415284
O135  O     O_2   0.463711 0.877516 0.318173 -0.421895
O136  O     O_2   0.121370 0.540063 0.318439 -0.415280
O137  O     O_R   0.500000 0.061010 0.941690 -0.580350
O138  O     O_2   0.536359 0.122503 0.318152 -0.421890
O139  O     O_2   0.113504 0.557989 0.180950 -0.483035
O140  O     O_2   0.556522 0.114228 0.180768 -0.483168
O141  O     O_2   0.886474 0.441981 0.180972 -0.482833
O142  O     O_2   0.443450 0.885764 0.180792 -0.483402
O143  O     O_2   0.613174 0.058978 0.680925 -0.482823
O144  O     O_2   0.054959 0.615553 0.680712 -0.482977
O145  O     O_2   0.387150 0.941037 0.680959 -0.482907
O146  O     O_2   0.945242 0.385435 0.680892 -0.483014
O147  O     O_2   0.250295 0.896892 0.959159 -0.600634
O148  O     O_R   0.938990 0.500000 0.941690 -0.571555
O149  O     O_R   0.248525 0.867499 0.916300 -0.687682
O150  O     O_2   0.148004 0.250443 0.945889 -0.593195
O151  O     O_R   0.158247 0.351685 0.920833 -0.687895
O152  O     O_2   0.789115 0.113442 0.961633 -0.561569
O153  O     O_R   0.707157 0.092798 0.929430 -0.752080
O154  O     O_2   0.851617 0.751044 0.946346 -0.592051
O155  O     O_R   0.842345 0.650682 0.920802 -0.689712
O156  O     O_2   0.721292 0.868573 0.949067 -0.616396
O157  O     O_R   0.711234 0.808528 0.910635 -0.666558
O158  O     O_2   0.903095 0.244651 0.962182 -0.600961
O159  O     O_R   0.500000 0.938990 0.941690 -0.585870
O160  O     O_R   0.874850 0.219692 0.920142 -0.701256
O161  O     O_2   0.278182 0.131556 0.948736 -0.599501
O162  O     O_R   0.287731 0.192347 0.910425 -0.668681
O163  O     O_2   0.105976 0.756420 0.959438 -0.605798
O164  O     O_R   0.132077 0.752610 0.916322 -0.691089
O165  O     O_2   0.711819 0.386833 0.461514 -0.560524
O166  O     O_R   0.793830 0.406763 0.429261 -0.752502
O167  O     O_2   0.644492 0.744169 0.447457 -0.588824
O168  O     O_R   0.650622 0.843246 0.421160 -0.693097
O169  O     O_2   0.288194 0.613166 0.461525 -0.560538
O170  O     O_R   0.561010 0.000000 0.441690 -0.571819
O171  O     O_R   0.206220 0.593264 0.429268 -0.752489
O172  O     O_2   0.355553 0.255880 0.447456 -0.588800
O173  O     O_R   0.349447 0.156825 0.421157 -0.693150
O174  O     O_2   0.224704 0.372501 0.449988 -0.617333
O175  O     O_R   0.217610 0.315364 0.410915 -0.667544
O176  O     O_2   0.402885 0.744002 0.462277 -0.600437
O177  O     O_R   0.374707 0.718944 0.420239 -0.701309
O178  O     O_2   0.775330 0.627541 0.449990 -0.617312
O179  O     O_R   0.782455 0.684705 0.410917 -0.667527
O180  O     O_2   0.597161 0.255985 0.462265 -0.600445
Zn1   Zn    Zn3+2 0.000000 0.586670 0.021480 1.121636
Zn2   Zn    Zn3+2 0.500000 0.913520 0.977990 1.067934
Zn3   Zn    Zn3+2 0.086480 0.500000 0.977990 1.069352
Zn4   Zn    Zn3+2 0.500000 0.086480 0.977990 1.066165
Zn5   Zn    Zn3+2 0.413520 0.000000 0.477990 1.067986
Zn6   Zn    Zn3+2 0.000000 0.413520 0.477990 1.061953
Zn7   Zn    Zn3+2 0.586480 0.000000 0.477990 1.068012
Zn8   Zn    Zn3+2 1.000000 0.586480 0.477990 1.062004
Zn9   Zn    Zn3+2 0.413330 0.000000 0.021480 1.128731
Zn10  Zn    Zn3+2 0.000000 0.413330 0.021480 1.124281
Zn11  Zn    Zn3+2 0.586670 0.000000 0.021480 1.120583
Zn12  Zn    Zn3+2 0.500000 0.086670 0.521480 1.124057
Zn13  Zn    Zn3+2 0.913330 0.500000 0.521480 1.122489
Zn14  Zn    Zn3+2 0.500000 0.913330 0.521480 1.124061
Zn15  Zn    Zn3+2 0.086670 0.500000 0.521480 1.122497
Zn16  Zn    Zn3+2 0.913520 0.500000 0.977990 1.067533

loop_
_geom_bond_atom_site_label_1
_geom_bond_atom_site_label_2
_ccdc_geom_bond_type
O124  Zn13  S    
C121  O179  S    
C15   O125  A    
C161  O78   D    
C1    O148  A    
O93   Zn9   S    
C78   C115  S    
H30   O47   S    
C87   O130  S    
H8    O3    S    
C222  C242  A    
C81   C134  S    
C11   O107  A    
C130  O18   S    
C105  O149  S    
O123  Zn12  S    
C9    O105  A    
C5    O100  A    
C118  O172  D    
C135  C173  A    
C183  O2    A    
C133  O23   D    
H43   O73   S    
O2    Zn8   S    
C33   C78   S    
C195  C203  A    
O117  Zn10  S    
C173  C179  A    
C89   O132  S    
H15   O16   S    
O103  Zn5   S    
C81   C117  S    
C144  O47   S    
C152  C200  S    
C245  N4    S    
C7    C36   S    
C83   C119  S    
C190  C212  A    
C123  O4    D    
C19   C37   A    
C175  C188  A    
C165  O88   S    
O107  Zn8   S    
C154  O66   S    
C147  O51   S    
C38   C55   A    
C80   C116  S    
C223  C243  A    
C65   F5    S    
H46   O77   S    
C145  O49   S    
H4    O173  S    
O110  Zn5   S    
C85   C121  S    
C48   C65   A    
C196  C204  A    
C164  O86   S    
C119  O175  S    
C16   C44   S    
C95   C102  A    
O122  Zn15  S    
C153  O64   S    
C167  C180  A    
C149  O54   D    
C197  C206  A    
C185  O143  S    
C236  F35   S    
C109  O157  S    
C59   F38   S    
C190  C199  A    
C153  C201  S    
C140  O37   D    
C12   O108  A    
C42   C247  S    
C141  O40   S    
C162  O82   S    
C7    O118  A    
C40   C58   A    
C171  C185  A    
C211  N5    S    
C139  O34   D    
C47   C64   A    
C127  O10   D    
C140  O38   S    
C111  O161  D    
C1    C239  S    
C80   C133  S    
H38   O62   S    
C30   C82   S    
C224  C233  A    
C109  O156  D    
C11   C49   S    
C32   C80   S    
C166  O89   D    
C141  O39   D    
C226  C244  A    
C39   C56   A    
C3    O113  A    
C137  O30   D    
C120  O177  S    
C68   F17   S    
C159  O75   S    
C91   O133  S    
C138  O32   D    
O128  Zn12  S    
C67   F7    S    
O93   Zn11  S    
H32   O51   S    
C17   C34   A    
C82   C118  S    
C229  C237  A    
C223  C232  A    
C43   C61   A    
O93   Zn2   S    
C208  C217  S    
C12   O128  A    
H53   O160  S    
C178  C194  A    
C170  C184  A    
C180  O139  S    
C8    O103  A    
C70   C105  S    
H55   O164  S    
C128  O12   D    
C126  O8    D    
O116  Zn9   S    
C193  C213  A    
C113  C170  A    
H22   O31   S    
C23   C41   A    
C113  C144  S    
C17   C25   A    
C89   C96   A    
O115  Zn13  S    
C180  N5    A    
C197  F26   S    
C146  C174  A    
C201  C208  A    
C105  O147  D    
O79   Zn12  S    
C152  O62   S    
C132  O21   D    
C3    O98   A    
C62   F2    S    
O102  Zn4   S    
C20   C21   A    
C182  O141  S    
C100  C216  A    
C168  C181  A    
O119  Zn1   S    
C71   C106  S    
O104  Zn14  S    
O115  Zn8   S    
C51   C69   A    
C156  O71   S    
C79   C167  A    
C181  N6    A    
C103  C216  A    
C197  C214  A    
C142  O42   S    
C191  C211  A    
O170  Zn7   S    
C215  O57   A    
C57   F16   S    
O98   Zn4   S    
C116  O168  S    
C115  O166  S    
O109  Zn6   S    
C4    O99   A    
C235  C240  A    
C92   O134  S    
O1    Zn10  S    
H56   O166  S    
C19   C75   S    
C151  O60   S    
C213  N7    S    
C235  F33   S    
C220  C229  A    
C99   C205  A    
C186  O144  S    
C225  C234  A    
C35   F14   S    
C30   C48   A    
C88   N2    A    
H36   O58   S    
C185  N7    A    
C174  C187  A    
H20   O27   S    
O120  Zn11  S    
C232  F30   S    
C21   C73   S    
O13   Zn5   S    
H11   O9    S    
O1    Zn1   S    
C192  C212  A    
C195  C214  A    
O115  Zn15  S    
C52   C60   A    
C64   F4    S    
C76   C130  S    
C218  O79   A    
C169  C176  A    
O129  Zn15  S    
C221  C230  A    
H23   O153  S    
C158  O73   S    
C164  C225  S    
C36   C53   A    
C50   C67   A    
H24   O33   S    
C123  O5    S    
C187  O145  S    
C7    O102  A    
H13   O11   S    
C53   F12   S    
C70   C77   S    
C230  C239  A    
C72   C75   S    
C155  C203  S    
C22   C72   S    
H42   O71   S    
C144  O45   D    
C129  O16   S    
O95   Zn16  S    
C169  C182  A    
O93   Zn4   S    
O114  Zn1   S    
C49   C66   A    
C231  F29   S    
H35   O55   S    
C88   C99   A    
C191  C200  A    
C143  O44   S    
C14   O109  A    
C163  O84   S    
C24   C157  A    
C182  N5    A    
C46   F15   S    
C117  O169  D    
C210  C219  S    
C236  C241  A    
H44   O75   S    
C86   C122  S    
C29   C30   A    
C183  C240  S    
C6    O101  A    
C39   C246  S    
C124  C238  A    
C206  C210  A    
C26   C33   A    
C127  O11   S    
O94   Zn15  S    
O101  Zn16  S    
C94   C100  A    
C246  O114  A    
C172  O13   A    
C171  C178  A    
O115  Zn6   S    
C148  O53   S    
H1    O149  S    
H21   O29   S    
C134  O27   S    
C106  O150  D    
C94   N3    A    
C159  C220  S    
C135  C147  S    
C183  O24   A    
H14   O14   S    
O159  Zn2   S    
C190  F19   S    
C202  C209  A    
C35   C100  A    
O121  Zn14  S    
H16   O18   S    
C125  O6    D    
C221  C243  A    
H37   O60   S    
C121  O178  D    
C75   C110  S    
C172  O170  A    
O104  Zn5   S    
C90   C168  A    
C198  C207  A    
C96   C238  A    
H49   O84   S    
C110  O160  S    
C112  O159  A    
O105  Zn6   S    
C222  C231  A    
C243  N2    S    
C57   C101  A    
C114  O163  D    
C2    C135  A    
C118  O173  S    
C155  O67   D    
C93   O135  S    
O1    Zn3   S    
C41   C248  S    
C4    O119  A    
C247  O116  A    
C79   C141  S    
C18   C36   A    
C76   C111  S    
C188  N8    A    
C35   C79   A    
C199  C208  A    
H31   O49   S    
H33   O53   S    
C107  O153  S    
O46   Zn9   S    
C165  O87   D    
H28   O42   S    
O126  Zn3   S    
O90   Zn13  S    
C69   F8    S    
C153  O63   D    
C63   F3    S    
C55   C56   A    
C148  O52   D    
O113  Zn11  S    
C122  O180  D    
C28   C84   S    
C73   C74   S    
C217  O68   A    
C9    C51   S    
C156  O70   D    
C179  C205  A    
C173  C186  A    
C131  O19   D    
C163  C224  S    
H26   O38   S    
C10   O106  A    
C11   O122  A    
C117  O171  S    
C9    O124  A    
C31   C49   A    
C71   C76   S    
C219  O94   A    
C150  O56   D    
C61   C69   A    
C168  C177  A    
C248  O112  A    
C98   C194  A    
C238  F9    S    
C61   F40   S    
C27   C85   S    
O111  Zn8   S    
C66   F6    S    
C2    C97   A    
C229  F27   S    
C204  C209  A    
O106  Zn7   S    
C232  C239  A    
C192  C201  A    
C101  C169  A    
C246  O95   A    
C174  C178  A    
C120  O176  D    
C68   C113  A    
C131  O20   S    
C87   C98   A    
C230  F28   S    
C96   C194  A    
C160  C221  S    
C63   C66   A    
O104  Zn7   S    
C5    C38   S    
C184  N6    A    
C137  O31   S    
C155  O69   S    
C93   N4    A    
C233  F31   S    
C154  C202  S    
C146  C148  S    
C160  O76   D    
C57   C103  A    
C130  O17   D    
C170  C177  A    
O99   Zn3   S    
C158  C206  S    
C133  O25   S    
C234  F32   S    
H41   O69   S    
C150  O58   S    
C126  O9    S    
C73   C127  S    
C220  C242  A    
C82   C83   S    
C193  C202  A    
C72   C126  S    
C8    C48   S    
C80   C85   S    
C23   C71   S    
C177  C227  A    
C154  O65   D    
O112  Zn10  S    
C84   C120  S    
C207  C215  S    
C138  O33   S    
C20   C74   S    
C91   C97   A    
C132  O22   S    
C90   C142  S    
C218  O92   A    
C29   C47   A    
C3    C40   S    
C200  C207  A    
O127  Zn13  S    
H19   O25   S    
C88   O131  S    
C209  C218  S    
C112  O137  A    
C10   C50   S    
C83   C137  S    
C104  C227  A    
C110  O158  D    
C136  O28   D    
C162  O81   D    
C18   C76   S    
C164  O85   D    
C115  O165  D    
C27   C32   A    
H47   O80   S    
C28   C31   A    
C68   C104  A    
C16   O127  A    
C25   C42   A    
H6    O177  S    
C46   C90   A    
C151  O59   D    
C33   C51   A    
H50   O86   S    
C111  O162  S    
C34   C52   A    
O104  Zn12  S    
C60   F39   S    
C56   F36   S    
C64   C65   A    
C212  N6    S    
C163  O83   D    
C124  C171  A    
C145  O48   D    
C184  O142  S    
C13   F11   S    
O100  Zn2   S    
C128  O14   S    
C217  O46   A    
O92   Zn14  S    
C14   O129  A    
C166  C228  S    
C112  C237  S    
O57   Zn10  S    
H40   O66   S    
C71   C125  S    
H52   O91   S    
C25   C70   S    
C97   C205  A    
C149  C157  S    
C150  C198  S    
O96   Zn2   S    
C189  C198  A    
O97   Zn3   S    
C24   C99   A    
C101  C143  S    
C191  F20   S    
H27   O40   S    
H25   O36   S    
H10   O7    S    
C74   C109  S    
C108  O154  D    
C53   C59   A    
C129  O15   D    
C244  N3    S    
H39   O64   S    
C46   C102  A    
C214  N8    S    
C62   C67   A    
C122  O3    S    
C233  C240  A    
C29   C83   S    
C12   C43   S    
C143  O43   D    
C87   N1    A    
C77   C131  S    
C147  O50   D    
C89   N1    A    
C136  O29   S    
C247  O96   A    
C13   C98   A    
C119  O174  D    
C152  O61   D    
H54   O162  S    
C78   C132  S    
C92   C103  A    
C70   C123  S    
O148  Zn16  S    
C74   C128  S    
C55   F34   S    
C176  C216  A    
C52   F1    S    
C85   C139  S    
H12   O151  S    
C142  O41   D    
C86   C140  S    
C162  C223  S    
C78   C86   S    
O24   Zn6   S    
C95   N4    A    
C84   C138  S    
C8    O123  A    
C193  F22   S    
C181  O140  S    
C6    O117  A    
C13   C146  A    
C91   N2    A    
C195  F24   S    
C27   C44   A    
C93   C104  A    
C17   C77   S    
C219  O90   A    
C26   C43   A    
C225  C245  A    
O118  Zn9   S    
C4    C34   S    
C28   C45   A    
C15   O110  A    
O35   Zn1   S    
C94   O136  S    
C18   C23   A    
C151  C199  S    
C19   C22   A    
H45   O157  S    
C41   C59   A    
C189  C211  A    
C42   C60   A    
C186  N8    A    
C224  C244  A    
C175  C179  A    
C228  C245  A    
C108  O155  S    
C44   C62   A    
C114  O164  S    
C45   C63   A    
C226  C235  A    
C10   O121  A    
H48   O82   S    
C24   F13   S    
C159  O74   D    
C20   C38   A    
C160  O77   S    
C188  O146  S    
C248  O97   A    
C21   C39   A    
C72   C107  S    
C26   C86   S    
C16   O111  A    
C22   C40   A    
C161  C222  S    
C54   F23   S    
C6    C37   S    
C158  O72   D    
C32   C50   A    
C187  N7    A    
C157  C175  A    
C37   C54   A    
C73   C108  S    
C2    F10   S    
C172  C241  S    
C189  F18   S    
C15   C45   S    
C242  N1    S    
C215  O35   A    
C156  C204  S    
C81   C84   S    
C54   C58   A    
H7    O179  S    
O137  Zn4   S    
H34   O155  S    
O68   Zn11  S    
H18   O22   S    
C92   N3    A    
H29   O44   S    
C14   C47   S    
C95   O138  S    
C106  O151  S    
C124  C145  S    
O108  Zn7   S    
C31   C81   S    
H2    O168  S    
C231  C237  A    
O1    Zn16  S    
C139  O36   S    
C149  O55   S    
C196  C213  A    
C5    O120  A    
O125  Zn14  S    
C165  C226  S    
C102  C227  A    
H9    O5    S    
H51   O88   S    
C82   C136  S    
C228  C236  A    
C134  O26   D    
C234  C241  A    
C166  O91   S    
C75   C129  S    
C107  O152  D    
H17   O20   S    
C192  F21   S    
C116  O167  D    
C161  O80   S    
C167  C176  A    
H5    O175  S    
H3    O171  S    
C58   F37   S    
C196  F25   S    
C77   C114  S    
C1    O126  A    
C125  O7    S    
C203  C210  A    
