data_mof_unit_53321.cif
_audit_creation_date              2012-12-10T20:25:46-0500
_audit_creation_method            fapswitch 2.2
_symmetry_space_group_name_H-M    P1
_symmetry_Int_Tables_number       1
_space_group_crystal_system       triclinic
_cell_length_a                    8.565934
_cell_length_b                    10.704736
_cell_length_c                    9.970635
_cell_angle_alpha                 90.212571
_cell_angle_beta                  97.957963
_cell_angle_gamma                 90.002489
_cell_volume                      905.457109256

loop_
_atom_site_label
_atom_site_type_symbol
_atom_type_description
_atom_site_fract_x
_atom_site_fract_y
_atom_site_fract_z
_atom_type_partial_charge
C1    C     C_R   0.495369 0.260634 0.499310 0.930426
C2    C     C_R   0.371425 0.459830 0.914370 0.166469
C3    C     C_3   0.208380 0.511325 0.890603 -0.601432
C4    C     C_R   0.201730 0.499489 0.464625 0.963372
C5    C     C_3   0.210033 0.515929 0.043418 0.361060
C6    C     C_R   0.498733 0.739355 0.500277 0.906235
C7    C     C_R   0.798013 0.502290 0.534929 0.950217
C8    C     C_2   0.036660 0.493957 0.445484 -0.380152
C9    C     C_2   0.962405 0.511670 0.552023 -0.375389
C10   C     C_R   0.565773 0.065383 0.611442 -0.107070
C11   C     C_R   0.491517 0.128162 0.498378 -0.159608
C12   C     C_R   0.406623 0.933464 0.393046 -0.276755
C13   C     C_R   0.398602 0.062911 0.394646 0.193020
C14   C     C_3   0.061242 0.683358 0.096774 -0.358083
C15   C     C_3   0.303715 0.138004 0.172480 -0.817285
C16   C     C_3   0.379290 0.834639 0.901486 -0.273907
C17   C     C_3   0.839339 0.910524 0.814564 -0.863941
C18   C     C_3   0.281747 0.152480 0.852429 -0.789999
C19   C     C_3   0.649700 0.133264 0.969940 -0.312387
C20   C     C_R   0.495577 0.871337 0.500703 -0.077481
C21   C     C_R   0.572204 0.937101 0.611831 -0.075420
C22   C     C_3   0.543323 0.930270 0.757821 0.545025
C23   C     C_3   0.520449 0.073948 0.751774 0.641734
C24   C     C_R   0.371052 0.461141 0.055710 0.106913
C25   C     C_R   0.632820 0.526582 0.087418 -0.147485
C26   C     C_R   0.632961 0.526385 0.944243 -0.140368
H1    H     H_    0.976782 0.472028 0.344707 0.163067
H2    H     H_    0.988626 0.674976 0.995578 0.158129
H3    H     H_    0.067095 0.783745 0.125038 0.182668
H4    H     H_    0.166367 0.088098 0.317013 0.218752
H5    H     H_    0.309809 0.043999 0.126386 0.224721
H6    H     H_    0.415522 0.189032 0.167609 0.261734
H7    H     H_    0.205373 0.191866 0.115711 0.232897
H8    H     H_    0.432018 0.903011 0.977465 0.136331
H9    H     H_    0.428425 0.741157 0.928989 0.209915
H10   H     H_    0.250970 0.831491 0.907054 0.199453
H11   H     H_    0.674043 0.789963 0.871210 0.239305
H12   H     H_    0.739637 0.551156 0.904030 0.140683
H13   H     H_    0.927616 0.891308 0.904382 0.233970
H14   H     H_    0.851251 0.009915 0.786951 0.285191
H15   H     H_    0.866034 0.850356 0.729561 0.246189
H16   H     H_    0.278795 0.070053 0.665481 0.223055
H17   H     H_    0.173436 0.206600 0.817003 0.235450
H18   H     H_    0.359568 0.213336 0.921405 0.256511
H19   H     H_    0.245497 0.068038 0.903307 0.234309
H20   H     H_    0.557724 0.074390 0.004353 0.151061
H21   H     H_    0.648259 0.224540 0.022841 0.180092
H22   H     H_    0.766539 0.090392 0.002418 0.194951
H23   H     H_    0.202194 0.604227 0.840938 0.233052
H24   H     H_    0.123512 0.440644 0.842420 0.167909
H25   H     H_    0.124750 0.451956 0.083474 0.070327
H26   H     H_    0.021613 0.536404 0.651169 0.172912
H27   H     H_    0.335283 0.881505 0.313351 0.180595
H28   H     H_    0.739235 0.551478 0.153215 0.137548
H29   H     H_    0.004365 0.633211 0.174349 0.168271
N1    N     N_R   0.498950 0.499140 0.142680 -0.082720
N2    N     N_R   0.498950 0.499180 0.857030 -0.077480
N3    N     N_2   0.276154 0.125343 0.310455 -0.295270
N4    N     N_2   0.682422 0.882860 0.846572 -0.328465
N5    N     N_2   0.355833 0.116832 0.737477 -0.282614
O1    O     O_R   0.500020 0.316790 0.614690 -0.563416
O2    O     O_3   0.401128 0.863458 0.767264 -0.633237
O3    O     O_3   0.630378 0.155163 0.829071 -0.589745
O4    O     O_R   0.500000 0.316760 0.385350 -0.620202
O5    O     O_R   0.271760 0.500010 0.587850 -0.610773
O6    O     O_R   0.271740 0.499970 0.358500 -0.601670
O7    O     O_R   0.500000 0.683240 0.614650 -0.582576
O8    O     O_R   0.499980 0.683210 0.385310 -0.607765
O9    O     O_R   0.728260 0.500030 0.641500 -0.631037
O10   O     O_R   0.728240 0.499990 0.412150 -0.630407
O11   O     O_3   0.215776 0.639330 0.094779 -0.569000
Zn1   Zn    Zn3+2 0.500010 0.500020 0.653130 0.990335
Zn2   Zn    Zn3+2 0.499990 0.499980 0.346870 0.969282

loop_
_geom_bond_atom_site_label_1
_geom_bond_atom_site_label_2
_ccdc_geom_bond_type
C7    O9    A    
O9    Zn1   S    
O4    Zn2   S    
C1    O4    A    
C15   H5    S    
N1    Zn2   S    
C18   H18   S    
C10   C23   S    
C24   N1    A    
O5    Zn1   S    
C6    C20   S    
C14   O11   S    
C12   H27   S    
C1    C11   S    
C25   N1    A    
C4    C8    S    
C16   H8    S    
C12   C20   A    
O10   Zn2   S    
C6    O8    A    
C14   H29   S    
C3    H23   S    
C19   H20   S    
C15   H6    S    
C5    O11   S    
C25   C26   A    
C6    O7    A    
C21   C22   S    
C25   H28   S    
C4    O6    A    
C11   C13   A    
H11   N4    S    
C9    H26   S    
C16   O2    S    
C7    O10   A    
C16   H10   S    
H4    N3    S    
O1    Zn1   S    
C23   O3    S    
C16   H9    S    
C15   N3    S    
C3    H24   S    
C17   N4    S    
C2    C3    S    
C19   H21   S    
C10   C21   A    
C2    C24   A    
C23   N5    S    
C26   N2    A    
C17   H15   S    
C2    N2    A    
C22   O2    S    
C10   C11   A    
C14   H3    S    
H16   N5    S    
C18   H19   S    
C5    C24   S    
O7    Zn1   S    
C1    O1    A    
C12   C13   A    
C20   C21   A    
C4    O5    A    
C17   H13   S    
C18   N5    S    
C22   N4    S    
C7    C9    S    
C8    H1    S    
N2    Zn1   S    
C26   H12   S    
C13   N3    S    
C19   H22   S    
C14   H2    S    
O8    Zn2   S    
C22   C23   S    
O6    Zn2   S    
C15   H7    S    
C5    H25   S    
C19   O3    S    
C8    C9    D    
C3    C5    S    
C17   H14   S    
C18   H17   S    
