data_mof_unit_66626.cif
_audit_creation_date              2013-03-05T16:11:01-0500
_audit_creation_method            fapswitch 2.2
_symmetry_space_group_name_H-M    P1
_symmetry_Int_Tables_number       1
_space_group_crystal_system       triclinic
_cell_length_a                    16.985709
_cell_length_b                    28.098818
_cell_length_c                    8.517837
_cell_angle_alpha                 90.00117
_cell_angle_beta                  105.013328
_cell_angle_gamma                 90.229516
_cell_volume                      3926.5759915

loop_
_atom_site_label
_atom_site_type_symbol
_atom_site_description
_atom_site_fract_x
_atom_site_fract_y
_atom_site_fract_z
_atom_type_partial_charge
P1    P     P_3+3 0.171820 0.553000 0.158080 0.450764
P2    P     P_3+3 0.171820 0.447000 0.658080 0.450710
P3    P     P_3+3 0.671820 0.053000 0.158080 0.480256
P4    P     P_3+3 0.671820 0.947000 0.658080 0.460325
O1    O     O_2   0.163830 0.569270 0.980510 -0.382151
O2    O     O_2   0.163830 0.430730 0.480510 -0.379355
O3    O     O_2   0.663830 0.069270 0.980510 -0.360037
O4    O     O_2   0.663830 0.930730 0.480510 -0.367798
O5    O     O_3   0.095420 0.524330 0.188510 -0.391248
O6    O     O_3   0.095420 0.475670 0.688510 -0.388990
O7    O     O_3   0.595420 0.024330 0.188510 -0.370571
O8    O     O_3   0.595420 0.975670 0.688510 -0.360269
O9    O     O_3   0.028940 0.612400 0.656050 -0.404051
O10   O     O_3   0.028940 0.387600 0.156050 -0.394114
O11   O     O_3   0.528940 0.112400 0.656050 -0.385660
O12   O     O_3   0.528940 0.887600 0.156050 -0.403118
O13   O     O_2   0.161423 0.653359 0.839120 -0.364436
O14   O     O_2   0.158470 0.347465 0.349830 -0.410664
O15   O     O_2   0.654048 0.153645 0.867552 -0.393299
O16   O     O_2   0.658543 0.847424 0.353273 -0.379857
O17   O     O_3   0.266176 0.524469 0.217271 -0.605687
O18   O     O_3   0.267053 0.475635 0.708252 -0.601796
O19   O     O_3   0.762646 0.021790 0.223792 -0.614969
O20   O     O_3   0.749823 0.990238 0.688643 -0.594697
O21   O     O_3   0.047870 0.713095 0.686550 -0.575054
O22   O     O_3   0.053437 0.286236 0.183237 -0.561365
O23   O     O_3   0.556560 0.211578 0.667156 -0.568863
O24   O     O_3   0.554199 0.787041 0.174892 -0.576053
H1    H     H_    0.946213 0.674903 0.706300 0.195456
H2    H     H_    0.942803 0.319211 0.173703 0.172823
H3    H     H_    0.439820 0.185885 0.647517 0.151265
H4    H     H_    0.453228 0.821333 0.216067 0.189380
C1    C     C_3   0.918231 0.748478 0.684408 -0.568460
C2    C     C_3   0.925956 0.244127 0.145926 -0.630647
C3    C     C_3   0.431965 0.253872 0.525399 -0.744177
C4    C     C_3   0.426379 0.748051 0.170162 -0.596190
H5    H     H_    0.859262 0.736399 0.705163 0.221894
H6    H     H_    0.858875 0.249188 0.106436 0.196208
H7    H     H_    0.387194 0.249926 0.405361 0.196037
H8    H     H_    0.365533 0.757508 0.187104 0.220639
H9    H     H_    0.954388 0.765211 0.797849 0.209653
H10   H     H_    0.942343 0.235986 0.277125 0.210103
H11   H     H_    0.394938 0.263580 0.610351 0.182324
H12   H     H_    0.461943 0.730971 0.283663 0.195678
P5    P     P_3+3 0.829210 0.554130 0.532500 0.488490
P6    P     P_3+3 0.829210 0.445870 0.032500 0.504147
P7    P     P_3+3 0.329210 0.054130 0.532500 0.494934
P8    P     P_3+3 0.329210 0.945870 0.032500 0.499109
P9    P     P_3+3 0.892689 0.653529 0.013192 0.417602
P10   P     P_3+3 0.894176 0.345236 0.516617 0.433931
P11   P     P_3+3 0.393188 0.154407 0.012270 0.403547
P12   P     P_3+3 0.395158 0.844639 0.516776 0.428462
O25   O     O_2   0.837400 0.570350 0.710350 -0.369073
O26   O     O_2   0.837400 0.429650 0.210350 -0.338091
O27   O     O_2   0.337400 0.070350 0.710350 -0.346137
O28   O     O_2   0.337400 0.929650 0.210350 -0.347955
O29   O     O_3   0.972820 0.612580 0.035550 -0.340773
O30   O     O_3   0.972820 0.387420 0.535550 -0.332155
O31   O     O_3   0.472820 0.112580 0.035550 -0.375124
O32   O     O_3   0.472820 0.887420 0.535550 -0.333832
O33   O     O_2   0.835716 0.648881 0.840179 -0.437981
O34   O     O_2   0.832086 0.353372 0.351166 -0.410607
O35   O     O_2   0.327374 0.141475 0.856582 -0.403058
O36   O     O_2   0.335217 0.851184 0.347659 -0.408806
O37   O     O_3   0.743850 0.516480 0.490355 -0.543415
O38   O     O_3   0.741060 0.480777 0.985657 -0.530307
O39   O     O_3   0.242421 0.017586 0.487549 -0.540229
O40   O     O_3   0.243809 0.982986 0.989937 -0.535527
O41   O     O_3   0.934244 0.710580 0.013750 -0.558028
O42   O     O_3   0.932736 0.288891 0.492178 -0.569498
O43   O     O_3   0.420931 0.211915 0.964149 -0.570149
O44   O     O_3   0.437627 0.788594 0.501467 -0.586093
C5    C     C_3   0.002882 0.716213 0.147124 0.671907
C6    C     C_3   0.997875 0.276731 0.625905 0.593032
C7    C     C_3   0.504867 0.221437 0.025281 0.674129
C8    C     C_3   0.504526 0.779244 0.635576 0.576242
H13   H     H_    0.010419 0.686803 0.237755 0.013111
H14   H     H_    0.998248 0.297362 0.737807 0.045248
H15   H     H_    0.541343 0.194765 0.978928 0.140980
H16   H     H_    0.503435 0.800673 0.745261 0.056232
C9    C     C_3   0.079370 0.717716 0.084689 -0.791322
C10   C     C_3   0.077655 0.286046 0.580182 -0.765793
C11   C     C_3   0.520662 0.270629 0.961030 -0.893396
C12   C     C_3   0.582482 0.790272 0.585409 -0.719942
H17   H     H_    0.094214 0.681234 0.053431 0.267996
H18   H     H_    0.080947 0.323874 0.546898 0.280615
H19   H     H_    0.490263 0.273491 0.832196 0.238234
H20   H     H_    0.584195 0.828474 0.556118 0.273237
H21   H     H_    0.070447 0.740235 0.975261 0.265125
H22   H     H_    0.082227 0.263029 0.477269 0.258433
H23   H     H_    0.494942 0.299261 0.022716 0.258000
H24   H     H_    0.585861 0.768535 0.478795 0.255912
C13   C     C_3   0.758037 0.525388 0.059366 0.439700
C14   C     C_3   0.765100 0.473322 0.572076 0.472843
C15   C     C_3   0.264239 0.026630 0.070046 0.478554
C16   C     C_3   0.261482 0.973867 0.566545 0.485378
H25   H     H_    0.777224 0.520958 0.193198 0.091525
H26   H     H_    0.786196 0.480147 0.704426 0.082126
H27   H     H_    0.283715 0.020610 0.202921 0.086746
H28   H     H_    0.281655 0.979844 0.699574 0.083390
H29   H     H_    0.806619 0.543884 0.016465 0.064770
H30   H     H_    0.814015 0.455404 0.529297 0.074194
H31   H     H_    0.314051 0.044880 0.030314 0.074846
H32   H     H_    0.310312 0.955648 0.524351 0.064788
C17   C     C_3   0.680507 0.555471 0.016006 -0.718113
C18   C     C_3   0.690154 0.440769 0.541091 -0.730633
C19   C     C_3   0.188749 0.058399 0.032553 -0.729361
C20   C     C_3   0.185225 0.942256 0.530368 -0.734259
H33   H     H_    0.628094 0.534484 0.034927 0.233831
H34   H     H_    0.635273 0.461984 0.540760 0.250126
H35   H     H_    0.135285 0.037879 0.047065 0.223952
H36   H     H_    0.131082 0.963745 0.534444 0.237905
H37   H     H_    0.688291 0.586935 0.097296 0.127170
H38   H     H_    0.697301 0.414704 0.641316 0.134860
H39   H     H_    0.198121 0.088254 0.120275 0.129819
H40   H     H_    0.192014 0.914553 0.625601 0.128113
Ba1   Ba    Ba6+2 0.000400 0.534870 0.845190 1.563468
Ba2   Ba    Ba6+2 0.000400 0.465130 0.345190 1.564756
Ba3   Ba    Ba6+2 0.500400 0.034870 0.845190 1.587767
Ba4   Ba    Ba6+2 0.500400 0.965130 0.345190 1.573042
C21   C     C_3   0.262745 0.475931 0.183300 0.173402
C22   C     C_3   0.265542 0.524822 0.688096 0.263504
C23   C     C_3   0.766201 0.978927 0.145088 0.188467
C24   C     C_3   0.821686 0.969433 0.666586 0.167346
H41   H     H_    0.245179 0.470202 0.049617 0.047068
H42   H     H_    0.250491 0.533673 0.556714 0.041466
H43   H     H_    0.746748 0.982907 0.010807 0.083058
H44   H     H_    0.841486 0.940702 0.757357 0.046385
H45   H     H_    0.219706 0.458151 0.242663 0.110760
H46   H     H_    0.220926 0.540648 0.747416 0.081697
H47   H     H_    0.728614 0.952424 0.189254 0.065228
H48   H     H_    0.810677 0.954068 0.542663 0.105064
C25   C     C_3   0.348977 0.455987 0.256869 -0.005497
C26   C     C_3   0.352052 0.543412 0.774272 -0.033022
C27   C     C_3   0.855998 0.963676 0.201398 0.035363
C28   C     C_3   0.891397 0.006801 0.690784 -0.009807
H49   H     H_    0.365822 0.465617 0.387862 0.202007
H50   H     H_    0.367376 0.527752 0.896671 0.145877
H51   H     H_    0.873612 0.966715 0.335071 0.177488
H52   H     H_    0.901125 0.022391 0.813104 0.183262
O45   O     O_3   0.904940 0.476110 0.001150 -0.387876
O46   O     O_3   0.904940 0.523890 0.501150 -0.375914
O47   O     O_3   0.404940 0.976110 0.001150 -0.390751
O48   O     O_3   0.404940 0.023890 0.501150 -0.376773
P13   P     P_3+3 0.100459 0.341867 0.178294 0.415187
P14   P     P_3+3 0.098273 0.659298 0.673040 0.432972
P15   P     P_3+3 0.602259 0.842805 0.179393 0.413473
P16   P     P_3+3 0.605396 0.156041 0.686992 0.431500
C29   C     C_3   0.963031 0.705412 0.639154 0.308644
C30   C     C_3   0.968864 0.290011 0.115151 0.332693
C31   C     C_3   0.474948 0.205775 0.575061 0.319284
C32   C     C_3   0.469169 0.793613 0.136912 0.338306
H53   H     H_    0.942370 0.697937 0.506476 0.023470
H54   H     H_    0.955667 0.296759 0.982397 0.032451
H55   H     H_    0.472174 0.185037 0.463128 0.063372
H56   H     H_    0.445830 0.804543 0.007683 0.038696
H57   H     H_    0.130968 0.733343 0.176844 0.198614
H58   H     H_    0.130189 0.278517 0.683953 0.195292
H59   H     H_    0.586828 0.276767 0.975602 0.230080
H60   H     H_    0.636504 0.782434 0.685033 0.199773
C33   C     C_2   0.855235 0.384960 0.779316 -0.472734
C34   C     C_2   0.850346 0.612344 0.269461 -0.486295
C35   C     C_2   0.352841 0.886107 0.774216 -0.463554
C36   C     C_2   0.362662 0.117939 0.289220 -0.528373
C37   C     C_R   0.139448 0.615531 0.405977 -0.507028
C38   C     C_R   0.143590 0.385484 0.913506 -0.509085
C39   C     C_R   0.654437 0.109974 0.433932 -0.501633
C40   C     C_R   0.649612 0.887694 0.921752 -0.465479
C41   C     C_2   0.769680 0.351599 0.944468 -0.294525
C42   C     C_2   0.766645 0.646805 0.435863 -0.330062
C43   C     C_2   0.268319 0.852177 0.940869 -0.359040
C44   C     C_2   0.257959 0.143521 0.423312 -0.277161
C45   C     C_2   0.817798 0.389531 0.915802 0.293240
C46   C     C_2   0.814597 0.608879 0.408664 0.299754
C47   C     C_2   0.315642 0.890392 0.911431 0.291996
C48   C     C_2   0.317083 0.110011 0.413102 0.293807
C49   C     C_2   0.841015 0.346864 0.681167 0.158734
C50   C     C_2   0.834173 0.649475 0.167743 0.175771
C51   C     C_2   0.338760 0.847846 0.676496 0.170949
C52   C     C_2   0.341189 0.153124 0.178725 0.187840
C53   C     C_3   0.777685 0.313454 0.693950 0.004002
C54   C     C_3   0.770089 0.682316 0.178687 -0.029357
C55   C     C_3   0.274217 0.815104 0.688409 -0.085192
C56   C     C_3   0.268041 0.180509 0.172842 -0.018439
C57   C     C_3   0.769211 0.307397 0.860061 -0.008621
C58   C     C_3   0.765057 0.690155 0.346474 0.083221
C59   C     C_3   0.268218 0.808198 0.855493 0.146853
C60   C     C_3   0.251620 0.186824 0.332664 0.000118
C61   C     C_2   0.773165 0.267829 0.595362 -0.214762
C62   C     C_2   0.763840 0.727345 0.075728 -0.174943
C63   C     C_2   0.273489 0.768031 0.602811 -0.092421
C64   C     C_2   0.257550 0.225388 0.068171 -0.148099
C65   C     C_2   0.205196 0.742121 0.556770 -0.139008
C66   C     C_2   0.235924 0.268203 0.114837 -0.158299
C67   C     C_2   0.754361 0.224588 0.644642 -0.121963
C68   C     C_2   0.736590 0.769171 0.117362 -0.143687
C69   C     C_R   0.249220 0.686991 0.353885 0.023588
C70   C     C_R   0.260164 0.317016 0.874663 0.045991
C71   C     C_R   0.769165 0.179017 0.390059 -0.020187
C72   C     C_R   0.764097 0.818216 0.879663 0.047390
C73   C     C_R   0.202748 0.695234 0.476001 -0.026463
C74   C     C_R   0.217301 0.309634 0.002989 -0.011417
C75   C     C_R   0.734048 0.183477 0.531012 0.027275
C76   C     C_R   0.721133 0.811259 0.008285 -0.011864
C77   C     C_R   0.234946 0.643282 0.253808 -0.277442
C78   C     C_R   0.240995 0.358770 0.765875 -0.312623
C79   C     C_R   0.742162 0.140431 0.269921 -0.265996
C80   C     C_R   0.745267 0.859948 0.770596 -0.312448
C81   C     C_R   0.181368 0.610010 0.273971 0.281848
C82   C     C_R   0.184519 0.390713 0.779903 0.301938
C83   C     C_R   0.686893 0.107883 0.287229 0.304693
C84   C     C_R   0.691329 0.892894 0.789563 0.194670
C85   C     C_R   0.149136 0.656426 0.504617 0.167101
C86   C     C_R   0.158162 0.346550 0.021173 0.150589
C87   C     C_R   0.671693 0.147913 0.545246 0.163293
C88   C     C_R   0.662717 0.848467 0.027195 0.167764
H61   H     H_    0.737230 0.354190 0.038276 0.188751
H62   H     H_    0.735653 0.645016 0.532173 0.177033
H63   H     H_    0.236753 0.854318 0.036198 0.188215
H64   H     H_    0.219229 0.137922 0.504963 0.169214
H65   H     H_    0.269355 0.638241 0.164518 0.191184
H66   H     H_    0.275176 0.363746 0.676571 0.167076
H67   H     H_    0.771166 0.137433 0.171255 0.187507
H68   H     H_    0.776521 0.863801 0.675689 0.190285
H69   H     H_    0.888794 0.414516 0.750301 0.206012
H70   H     H_    0.886780 0.583596 0.245010 0.211457
H71   H     H_    0.387616 0.915446 0.746998 0.205904
H72   H     H_    0.409565 0.093201 0.280526 0.223347
H73   H     H_    0.775334 0.271723 0.469892 0.193365
H74   H     H_    0.772953 0.724241 0.954823 0.186951
H75   H     H_    0.329119 0.753018 0.587679 0.158977
H76   H     H_    0.260601 0.221337 0.943227 0.187622
H77   H     H_    0.150557 0.755510 0.583826 0.167348
H78   H     H_    0.227202 0.272427 0.235550 0.180487
H79   H     H_    0.745827 0.220291 0.765581 0.199283
H80   H     H_    0.720456 0.771852 0.231709 0.228124
C89   C     C_2   0.662134 0.572408 0.843381 0.644827
H81   H     H_    0.676001 0.608840 0.817414 0.020158
O49   O     O_2   0.633766 0.545138 0.731320 -0.577513
C90   C     C_2   0.677846 0.413767 0.384462 0.647815
H82   H     H_    0.675469 0.375166 0.385078 0.019375
O50   O     O_2   0.669442 0.434759 0.255788 -0.551378
C91   C     C_2   0.170936 0.078390 0.863851 0.665423
H83   H     H_    0.172021 0.116570 0.846287 0.015810
O51   O     O_2   0.155160 0.052114 0.745719 -0.574436
C92   C     C_2   0.171465 0.917945 0.368467 0.622895
H84   H     H_    0.171368 0.879366 0.362086 0.019519
O52   O     O_2   0.160269 0.941120 0.243490 -0.559390
C93   C     C_3   0.411620 0.479816 0.179182 -0.363384
C94   C     C_3   0.498288 0.476657 0.286521 -0.855286
H85   H     H_    0.515230 0.439178 0.317993 0.268272
H86   H     H_    0.540995 0.492074 0.221034 0.281817
H87   H     H_    0.503894 0.497442 0.399721 0.261502
H88   H     H_    0.408210 0.462903 0.059927 0.201379
H89   H     H_    0.398627 0.518368 0.160901 0.223102
C95   C     C_3   0.418846 0.527766 0.690051 -0.218894
C96   C     C_3   0.449630 0.476965 0.730650 -0.881117
H90   H     H_    0.477602 0.473409 0.862966 0.259794
H91   H     H_    0.400353 0.450312 0.690931 0.276913
H92   H     H_    0.497470 0.468982 0.667217 0.259539
H93   H     H_    0.396356 0.532027 0.556340 0.190573
H94   H     H_    0.473063 0.551253 0.731158 0.214043
C97   C     C_3   0.911427 0.997527 0.135277 -0.367646
C98   C     C_3   0.995369 0.003833 0.253122 -0.856986
H95   H     H_    0.021826 0.968662 0.294477 0.272472
H96   H     H_    0.036287 0.022966 0.192006 0.265107
H97   H     H_    0.991250 0.025144 0.359956 0.252382
H98   H     H_    0.919778 0.981670 0.023133 0.194878
H99   H     H_    0.883842 0.033319 0.105947 0.228890
C99   C     C_3   0.971793 0.983088 0.675439 -0.433089
C100  C     C_3   0.016948 0.955656 0.826610 -0.818792
H100  H     H_    0.072752 0.939508 0.804736 0.272999
H101  H     H_    0.036091 0.980072 0.931671 0.278764
H102  H     H_    0.978651 0.926572 0.855502 0.230003
H103  H     H_    0.959597 0.958014 0.571705 0.183912
H104  H     H_    0.014458 0.010349 0.651557 0.264534
C101  C     C_3   0.350440 0.401310 0.240313 -0.362104
C102  C     C_3   0.337527 0.376962 0.391479 -0.811170
H105  H     H_    0.392574 0.381327 0.494399 0.246534
H106  H     H_    0.285871 0.393382 0.426730 0.278354
H107  H     H_    0.324955 0.338518 0.367708 0.272269
H108  H     H_    0.303054 0.389777 0.131918 0.175262
H109  H     H_    0.409082 0.388644 0.221464 0.259783
C103  C     C_3   0.353880 0.597595 0.803934 -0.394241
C104  C     C_3   0.359188 0.626506 0.655939 -0.874433
H110  H     H_    0.422109 0.626360 0.640702 0.246183
H111  H     H_    0.317461 0.611398 0.545667 0.249347
H112  H     H_    0.342414 0.663764 0.672231 0.285569
H113  H     H_    0.299068 0.608462 0.842909 0.246953
H114  H     H_    0.407671 0.606678 0.905543 0.200591
C105  C     C_3   0.868823 0.911780 0.157791 -0.500295
C106  C     C_3   0.852711 0.877524 0.284206 -0.833603
H115  H     H_    0.897927 0.883396 0.402699 0.239293
H116  H     H_    0.790692 0.882411 0.300379 0.283237
H117  H     H_    0.858577 0.840584 0.243968 0.287473
H118  H     H_    0.829263 0.903264 0.036661 0.203742
H119  H     H_    0.932574 0.906475 0.151266 0.235283
C107  C     C_3   0.867980 0.049215 0.572220 -0.288568
C108  C     C_3   0.915879 0.094496 0.636979 -0.926730
H120  H     H_    0.900575 0.106658 0.749498 0.294902
H121  H     H_    0.982543 0.088624 0.663236 0.267906
H122  H     H_    0.899707 0.123058 0.544637 0.261800
H123  H     H_    0.879120 0.040532 0.453598 0.223001
H124  H     H_    0.802309 0.057536 0.551239 0.212113
C109  C     C_2   0.901804 0.785837 0.556590 0.473073
H125  H     H_    0.951977 0.803840 0.524310 0.044866
O53   O     O_2   0.831698 0.797083 0.491536 -0.593855
C110  C     C_2   0.949603 0.201884 0.062098 0.578044
H126  H     H_    0.012309 0.189814 0.094969 0.054453
O54   O     O_2   0.898263 0.179789 0.961471 -0.617715
C111  C     C_2   0.490173 0.293987 0.518753 0.661360
H127  H     H_    0.538612 0.303370 0.624809 0.051901
O55   O     O_2   0.483428 0.316645 0.393952 -0.634284
C112  C     C_2   0.415361 0.712840 0.034956 0.503590
H128  H     H_    0.467712 0.694707 0.013712 0.060063
O56   O     O_2   0.347208 0.703407 0.951271 -0.585506
C113  C     C_2   0.090552 0.575982 0.438765 0.790178
H129  H     H_    0.114661 0.550802 0.533568 -0.020659
O57   O     O_2   0.020092 0.572276 0.361701 -0.564888
C114  C     C_2   0.090943 0.423755 0.939427 0.766602
H130  H     H_    0.110505 0.448716 0.037331 -0.002538
O58   O     O_2   0.021922 0.426156 0.854596 -0.565539
C115  C     C_2   0.611047 0.069218 0.475313 0.745517
H131  H     H_    0.639549 0.048274 0.580026 0.063751
O59   O     O_2   0.540067 0.062508 0.404228 -0.546272
C116  C     C_2   0.591435 0.923968 0.938403 0.743799
H132  H     H_    0.607178 0.951717 0.027929 0.013855
O60   O     O_2   0.522490 0.922015 0.852683 -0.574337
C117  C     C_3   0.993304 0.761697 0.240367 -0.393317
C118  C     C_3   0.000110 0.808067 0.150706 -0.891325
H133  H     H_    0.058209 0.810508 0.114706 0.256934
H134  H     H_    0.947831 0.811765 0.041948 0.273217
H135  H     H_    0.000337 0.838080 0.234942 0.246555
H136  H     H_    0.932794 0.760474 0.267126 0.191955
H137  H     H_    0.040224 0.762093 0.358192 0.157852
C119  C     C_3   0.988901 0.223560 0.662414 -0.339251
C120  C     C_3   0.060129 0.203868 0.794763 -0.992719
H138  H     H_    0.043552 0.168349 0.833681 0.270857
H139  H     H_    0.114663 0.199265 0.747419 0.266088
H140  H     H_    0.075322 0.228117 0.901321 0.272717
H141  H     H_    0.931979 0.218785 0.701583 0.226100
H142  H     H_    0.982589 0.202139 0.550097 0.197600
C121  C     C_3   0.528956 0.221420 0.211798 -0.367737
C122  C     C_3   0.604924 0.250697 0.289668 -0.902211
H143  H     H_    0.656950 0.238798 0.244033 0.254956
H144  H     H_    0.595797 0.289253 0.264513 0.287962
H145  H     H_    0.617753 0.246702 0.422608 0.279441
H146  H     H_    0.477097 0.235972 0.251231 0.231083
H147  H     H_    0.539407 0.184208 0.255819 0.161517
C123  C     C_3   0.501141 0.726117 0.679445 -0.383351
C124  C     C_3   0.573747 0.709001 0.813967 -0.997284
H148  H     H_    0.629363 0.706477 0.769138 0.272060
H149  H     H_    0.584625 0.733340 0.920001 0.289516
H150  H     H_    0.560813 0.672789 0.853418 0.254721
H151  H     H_    0.445872 0.720219 0.722391 0.188345
H152  H     H_    0.495922 0.703679 0.569721 0.208443

loop_
_geom_bond_atom_site_label_1
_geom_bond_atom_site_label_2
_geom_bond_distance
_ccdc_geom_bond_type
C25   H49   1.110862 S    
C95   H94   1.110980 S    
C70   C78   1.479180 S    
Ba3   O47   2.866107 S    
C11   H19   1.088171 S    
C105  C106  1.520345 S    
C2    H10   1.103659 S    
C28   H52   1.102257 S    
C120  H138  1.109685 S    
P8    Ba4   3.437572 S    
O27   Ba3   2.890200 S    
C27   H51   1.102963 S    
C75   C87   1.480927 S    
C103  C104  1.521674 S    
C15   H27   1.107025 S    
C67   C75   1.487950 S    
C94   H86   1.110022 S    
C100  H100  1.110870 S    
C20   C92   1.501571 S    
C65   C73   1.481722 S    
C29   H53   1.112833 S    
C32   H56   1.112673 S    
C110  O54   1.220240 D    
Ba4   O48   2.873551 S    
O42   C6    1.410152 S    
O23   C31   1.413646 S    
C117  H136  1.109331 S    
C116  H132  1.074077 S    
C31   H55   1.107828 S    
P4    O8    1.607122 S    
C2    C110  1.494135 S    
P7    C48   1.853749 S    
P8    C47   1.849485 S    
Ba2   O45   2.975615 S    
C94   H87   1.109885 S    
C16   C20   1.531546 S    
C103  H114  1.112408 S    
C72   C80   1.479708 S    
P9    O41   1.748515 S    
C19   C91   1.499373 S    
P11   O43   1.759319 S    
C66   H78   1.082735 S    
C35   H71   1.072078 S    
C5    C9    1.526463 S    
O18   C22   1.392247 S    
P6    O45   1.617764 S    
C2    C30   1.534156 S    
O40   C15   1.401367 S    
C118  H133  1.108546 S    
C115  H131  1.074637 S    
O3    Ba3   2.879176 S    
C13   H29   1.112370 S    
C112  H128  1.081683 S    
C62   H74   1.083912 S    
P12   O44   1.753618 S    
C80   C84   1.343856 D    
C74   C86   1.482561 S    
C50   C54   1.451108 A    
C93   H89   1.109280 S    
C4    C112  1.492345 S    
C16   H32   1.112205 S    
P5    O46   1.623162 S    
C4    H12   1.108920 S    
C107  C108  1.531095 S    
C33   C49   1.340312 D    
C120  H140  1.109909 S    
C42   C46   1.399074 A    
O24   P15   1.759707 S    
C12   H20   1.104030 S    
C119  C120  1.529560 S    
C11   H23   1.111721 S    
O15   P16   1.547517 D    
C106  H116  1.106313 S    
Ba1   O46   2.974255 S    
P10   O42   1.748667 S    
C104  H111  1.103395 S    
C6    C119  1.541042 S    
P2    O18   1.754434 S    
C38   C82   1.486280 S    
O13   P14   1.547559 D    
C123  C124  1.529001 S    
P3    O7    1.601910 S    
C3    C111  1.507108 S    
P13   C86   1.856785 S    
C14   H30   1.112118 S    
C63   H75   1.074116 S    
C17   C89   1.499805 S    
C1    C29   1.533395 S    
C54   C62   1.527792 S    
C7    H15   1.109903 S    
C52   C56   1.453880 A    
C64   C66   1.348860 D    
C101  H108  1.103728 S    
C79   H67   1.082109 S    
C124  H148  1.109368 S    
C39   C87   1.405305 A    
C35   C47   1.470700 S    
C124  H150  1.110398 S    
C25   C101  1.543688 S    
C93   C94   1.521410 S    
C17   H37   1.109119 S    
O12   Ba4   2.826539 S    
O11   P16   1.752035 S    
C10   H58   1.102359 S    
P9    O29   1.758129 S    
C24   H48   1.110232 S    
O21   C29   1.407942 S    
C96   H90   1.108558 S    
C22   C26   1.551098 S    
C119  H142  1.111476 S    
P12   O32   1.757483 S    
C98   H95   1.106472 S    
C109  O53   1.219046 D    
C70   C74   1.476134 S    
C36   C48   1.477938 S    
C123  H152  1.111529 S    
C3    H11   1.109374 S    
C44   H64   1.085098 S    
P5    O25   1.553148 D    
C101  C102  1.522909 S    
C79   C83   1.343267 D    
O5    Ba2   2.871867 S    
C40   C116  1.454711 S    
O7    Ba4   2.871867 S    
C90   O50   1.220341 D    
C34   H70   1.072206 S    
C15   H31   1.112769 S    
P3    C83   1.872094 S    
P1    C81   1.865959 S    
C4    C32   1.531888 S    
O19   C23   1.387515 S    
H1    C29   1.107398 S    
C118  H135  1.106602 S    
C26   C103  1.542186 S    
C23   C27   1.538298 S    
C115  O59   1.214806 D    
C114  O58   1.209486 D    
C21   H41   1.111373 S    
O8    Ba3   2.879317 S    
H3    C31   1.112390 S    
C78   C82   1.344018 D    
C23   H43   1.111054 S    
H4    C32   1.109413 S    
C72   C76   1.477901 S    
P1    Ba1   3.436297 S    
P3    Ba3   3.436297 S    
O38   C13   1.397119 S    
C37   C85   1.407224 A    
C111  O55   1.219023 D    
P5    O37   1.751651 S    
C68   C76   1.485548 S    
C25   C93   1.541906 S    
Ba1   O45   2.866107 S    
P5    Ba1   3.441253 S    
C17   H33   1.111956 S    
C92   H84   1.085380 S    
C5    H13   1.115764 S    
C8    C123  1.543327 S    
C19   H35   1.107420 S    
C99   H103  1.106357 S    
C8    H16   1.115699 S    
C80   H68   1.081187 S    
C76   C88   1.481449 S    
C96   H92   1.109729 S    
C40   C88   1.403394 A    
O26   Ba2   2.882525 S    
P12   C51   1.858112 S    
O6    Ba1   2.879317 S    
Ba1   Ba2   4.688085 S    
C35   C51   1.341884 D    
C123  H151  1.104209 S    
C78   H66   1.078612 S    
C98   H97   1.106724 S    
C49   C53   1.450127 A    
C16   H28   1.108129 S    
C90   H82   1.085298 S    
O11   Ba3   2.823598 S    
C107  H123  1.102568 S    
C108  H122  1.108186 S    
C34   C50   1.339284 D    
C97   H99   1.111988 S    
C122  H143  1.106415 S    
C41   C45   1.400037 A    
C102  H105  1.110058 S    
C116  O60   1.209983 D    
C12   H24   1.108288 S    
C43   H63   1.084554 S    
C44   C48   1.398408 A    
C100  H102  1.109171 S    
C41   H61   1.084471 S    
C13   H25   1.108630 S    
C69   C77   1.477944 S    
C111  H127  1.084299 S    
O14   P13   1.543816 D    
C8    C12   1.523760 S    
P2    Ba2   3.439768 S    
C97   C98   1.525911 S    
C27   C97   1.541417 S    
O10   P13   1.748218 S    
C118  H134  1.109990 S    
O12   P15   1.749023 S    
P1    O1    1.552190 D    
P6    O38   1.750825 S    
P3    O3    1.552190 D    
P4    O20   1.762866 S    
H2    C30   1.111363 S    
C14   H26   1.107349 S    
C112  O56   1.220025 D    
C91   H83   1.083943 S    
C66   C74   1.486554 S    
P6    Ba2   3.437572 S    
P8    O28   1.553492 D    
C54   C58   1.470315 A    
C113  O57   1.210816 D    
C53   C61   1.523283 S    
C37   C81   1.486945 S    
O23   P16   1.757728 S    
C102  H107  1.108728 S    
C56   C64   1.528545 S    
O41   C5    1.409683 S    
O21   P14   1.758569 S    
C36   C52   1.349581 D    
O44   C8    1.412461 S    
C24   H44   1.109098 S    
C9    H21   1.104408 S    
C93   H88   1.109203 S    
C18   C90   1.501154 S    
C95   H93   1.110125 S    
C71   C75   1.478034 S    
Ba3   O48   2.974255 S    
C67   H79   1.083514 S    
Ba4   O47   2.975615 S    
C3    C31   1.544777 S    
C6    C10   1.525489 S    
C65   H77   1.081481 S    
C120  H139  1.109895 S    
C97   H98   1.096272 S    
C9    H57   1.103429 S    
C24   C28   1.552621 S    
P10   O30   1.758159 S    
C51   C55   1.451937 A    
O22   C30   1.407413 S    
P10   C49   1.854182 S    
P11   O35   1.539166 D    
P12   O36   1.545047 D    
C68   H80   1.080688 S    
C94   H85   1.107337 S    
C10   H18   1.105007 S    
P7    O48   1.623162 S    
C1    H5    1.112983 S    
C20   H36   1.110215 S    
P8    O47   1.617764 S    
C3    H7    1.110192 S    
C108  H120  1.110272 S    
C63   C65   1.336790 D    
C104  H110  1.109510 S    
C55   C59   1.465778 A    
C33   C45   1.468348 S    
C61   C67   1.349410 D    
C122  H145  1.102128 S    
C42   C58   1.433135 A    
C117  H137  1.108170 S    
P6    C45   1.851847 S    
P1    O5    1.601910 S    
P8    O40   1.750142 S    
C73   C85   1.478103 S    
C15   C19   1.529725 S    
C103  H113  1.110254 S    
O29   Ba1   2.831623 S    
P9    C50   1.846862 S    
C64   H76   1.084846 S    
O31   Ba3   2.831623 S    
C23   H47   1.106499 S    
C21   H45   1.108268 S    
O9    Ba1   2.823598 S    
Ba3   Ba4   4.688085 S    
C124  H149  1.109097 S    
C10   H22   1.108327 S    
C1    H9    1.105501 S    
C20   H40   1.108843 S    
C105  H118  1.101292 S    
C26   C95   1.555876 S    
P5    C46   1.846180 S    
P9    O33   1.544485 D    
C7    C11   1.534654 S    
C121  H147  1.110133 S    
O32   Ba4   2.828779 S    
C61   H73   1.084381 S    
P14   C85   1.858410 S    
C39   C83   1.491969 S    
C98   H96   1.107955 S    
C109  H125  1.084318 S    
C6    H14   1.114200 S    
C99   C100  1.527603 S    
C37   C113  1.454491 S    
C121  C122  1.526376 S    
P1    O17   1.748490 S    
C117  C118  1.529313 S    
C40   C84   1.484516 S    
P3    O19   1.739504 S    
O30   Ba2   2.828779 S    
P4    O4    1.551852 D    
C5    C117  1.535981 S    
C18   H38   1.107692 S    
C7    C121  1.534500 S    
C106  H115  1.110478 S    
C104  H112  1.104233 S    
O25   Ba1   2.890200 S    
O20   C24   1.411234 S    
C13   C17   1.530396 S    
C91   O51   1.219886 D    
C69   C73   1.478342 S    
C62   C68   1.345590 D    
P7    Ba3   3.441253 S    
C101  H109  1.109188 S    
C121  H146  1.100946 S    
O28   Ba4   2.882525 S    
P6    O26   1.553492 D    
P2    O2    1.551852 D    
O9    P14   1.744605 S    
P7    O39   1.752021 S    
C28   C107  1.547332 S    
C33   H69   1.070017 S    
C92   O52   1.220471 D    
P2    C82   1.873922 S    
C99   H104  1.106913 S    
C4    H8    1.113129 S    
P15   C88   1.857150 S    
C53   C57   1.468659 A    
O10   Ba2   2.826539 S    
C43   C47   1.399830 A    
C56   C60   1.469566 A    
O1    Ba1   2.879176 S    
C96   H91   1.106433 S    
C22   H42   1.109894 S    
O22   P13   1.758016 S    
C119  H141  1.109157 S    
C77   C81   1.343844 D    
C95   C96   1.530663 S    
C71   C79   1.478460 S    
O16   P15   1.545909 D    
C36   H72   1.076278 S    
C107  H124  1.108901 S    
C108  H121  1.108928 S    
C19   H39   1.106658 S    
C38   C86   1.408455 A    
O37   C14   1.399570 S    
C122  H144  1.108052 S    
O24   C32   1.408830 S    
C38   C114  1.454241 S    
C89   O49   1.220306 D    
O39   C16   1.398948 S    
P10   O34   1.543549 D    
C102  H106  1.101178 S    
P11   O31   1.767483 S    
C1    C109  1.486660 S    
P11   C52   1.854772 S    
P2    O6    1.607122 S    
P16   C87   1.866663 S    
C110  H126  1.084561 S    
O4    Ba4   2.886649 S    
P7    O27   1.553148 D    
C18   H34   1.107908 S    
C100  H101  1.106642 S    
C14   C18   1.530854 S    
C2    H6    1.111024 S    
C106  H117  1.106013 S    
Ba2   O46   2.873551 S    
C55   C63   1.508786 S    
C26   H50   1.099395 S    
C12   H60   1.099442 S    
C34   C46   1.468564 S    
P4    C84   1.867419 S    
C43   C59   1.433616 A    
C114  H130  1.073472 S    
C41   C57   1.434056 A    
O43   C7    1.409857 S    
C27   C105  1.535007 S    
C44   C60   1.430503 A    
C77   H65   1.082157 S    
C22   H46   1.108348 S    
O17   C21   1.392068 S    
C113  H129  1.073034 S    
C105  H119  1.109201 S    
C9    H17   1.105525 S    
C11   H59   1.111056 S    
C30   H54   1.110799 S    
P4    Ba4   3.439768 S    
C28   C99   1.557432 S    
C21   C25   1.543770 S    
C89   H81   1.085102 S    
C39   C115  1.451441 S    
O2    Ba2   2.886649 S    
C42   H62   1.084509 S    
