data_mof_unit_26549.cif
_audit_creation_date              2012-12-11T17:10:35-0500
_audit_creation_method            fapswitch 2.2
_symmetry_space_group_name_H-M    P1
_symmetry_Int_Tables_number       1
_space_group_crystal_system       triclinic
_cell_length_a                    14.909597
_cell_length_b                    14.847113
_cell_length_c                    14.97756
_cell_angle_alpha                 109.718772
_cell_angle_beta                  110.264384
_cell_angle_gamma                 108.976245
_cell_volume                      2534.6958122

loop_
_atom_site_label
_atom_site_type_symbol
_atom_type_description
_atom_site_fract_x
_atom_site_fract_y
_atom_site_fract_z
_atom_type_partial_charge
C1    C     C_R   0.199631 0.290975 0.194184 -0.149402
C2    C     C_R   0.470497 0.563706 0.249480 -0.143189
C3    C     C_R   0.495365 0.800697 0.590484 -0.139012
C4    C     C_R   0.601219 0.509891 0.806629 -0.158325
C5    C     C_R   0.703594 0.397054 0.409066 -0.131609
C6    C     C_R   0.431783 0.800992 0.497930 0.081646
C7    C     C_R   0.793922 0.419811 0.500427 0.069152
C8    C     C_R   0.538756 0.540720 0.213463 0.099529
C9    C     C_R   0.825799 0.825869 0.772785 0.051181
C10   C     C_R   0.933911 0.418701 0.159265 -0.122079
C11   C     C_R   0.959482 0.433960 0.264169 -0.155231
C12   C     C_R   0.573075 0.573394 0.870553 0.116321
C13   C     C_R   0.942777 0.344154 0.281738 0.101719
C14   C     C_R   0.899103 0.238848 0.192902 -0.171587
C15   C     C_R   0.873787 0.224040 0.088108 -0.111932
C16   C     C_R   0.431953 0.185346 0.406356 -0.147274
C17   C     C_R   0.890399 0.313730 0.071193 -0.105303
C18   C     C_R   0.863813 0.331510 0.395198 -0.228518
C19   C     C_R   0.871046 0.378760 0.497030 0.043553
C20   C     C_R   0.968125 0.414980 0.593237 0.037160
C21   C     C_R   0.063536 0.432797 0.587742 -0.248756
C22   C     C_R   0.062360 0.415151 0.488872 0.068422
C23   C     C_R   0.448773 0.172527 0.497095 0.069287
C24   C     C_R   0.958807 0.358439 0.389640 0.027320
C25   C     C_R   0.055445 0.529131 0.798810 -0.168408
C26   C     C_R   0.058811 0.543296 0.897331 -0.109259
C27   C     C_R   0.978579 0.460606 0.896102 -0.124378
C28   C     C_R   0.273935 0.534009 0.589160 -0.126110
C29   C     C_R   0.894532 0.363749 0.796290 -0.114392
C30   C     C_R   0.890749 0.349234 0.697541 -0.143346
C31   C     C_R   0.971474 0.431721 0.697989 0.115583
C32   C     C_R   0.673128 0.581656 0.049452 0.173470
C33   C     C_R   0.610140 0.613866 0.987445 -0.041129
C34   C     C_R   0.168936 0.459994 0.493829 0.055028
C35   C     C_R   0.554436 0.658981 0.028832 -0.355925
C36   C     C_R   0.521542 0.626722 0.094211 0.567057
C37   C     C_R   0.575143 0.581359 0.148838 -0.164468
C38   C     C_R   0.658682 0.569452 0.132047 0.123297
C39   C     C_3   0.679617 0.474196 0.107593 -0.477035
C40   C     C_R   0.526866 0.276118 0.590956 -0.124823
C41   C     C_3   0.694320 0.487284 0.017198 -0.515590
C42   C     C_R   0.336849 0.872988 0.393864 0.142163
C43   C     C_R   0.391245 0.877657 0.493953 0.034412
C44   C     C_R   0.421870 0.968912 0.591635 -0.205023
C45   C     C_R   0.401874 0.706529 0.407580 -0.160993
C46   C     C_R   0.425083 0.063933 0.590916 -0.201826
C47   C     C_R   0.398795 0.067476 0.492802 0.036963
C48   C     C_R   0.341088 0.966922 0.393214 0.163659
C49   C     C_3   0.349928 0.935801 0.291627 -0.525964
C50   C     C_3   0.344480 0.832944 0.292092 -0.489752
C51   C     C_R   0.023335 0.123484 0.963311 0.143160
C52   C     C_R   0.184343 0.438336 0.404519 -0.135742
C53   C     C_R   0.118963 0.119096 0.012888 0.042335
C54   C     C_R   0.124191 0.024998 0.958289 -0.196146
C55   C     C_R   0.029431 0.930809 0.865334 -0.187172
C56   C     C_R   0.797049 0.489874 0.591655 -0.150745
C57   C     C_R   0.928380 0.929396 0.827631 0.053774
C58   C     C_R   0.927651 0.028488 0.871069 0.114465
C59   C     C_3   0.908596 0.089626 0.811596 -0.475025
C60   C     C_3   0.012738 0.191579 0.910487 -0.499604
C61   C     C_R   0.506591 0.598257 0.804214 -0.154499
C62   C     C_R   0.291660 0.200095 0.194710 -0.139907
C63   C     C_R   0.198602 0.198317 0.129784 0.063047
C64   C     C_3   0.333784 0.515753 0.013116 0.172377
C65   C     C_3   0.289943 0.484308 0.891750 -0.327807
C66   C     C_3   0.188221 0.368754 0.815588 -0.988586
C67   C     C_R   0.559685 0.468123 0.244959 -0.140943
C68   C     C_R   0.722870 0.815176 0.747947 -0.131005
C69   C     C_R   0.814872 0.722522 0.747619 -0.121401
H1    H     H_    0.147814 0.323355 0.164778 0.106045
H2    H     H_    0.946382 0.487939 0.145917 0.102910
H3    H     H_    0.990807 0.515142 0.331346 0.116596
H4    H     H_    0.666757 0.492105 0.835592 0.103295
H5    H     H_    0.883737 0.168468 0.204715 0.119608
H6    H     H_    0.839903 0.142789 0.019679 0.111616
H7    H     H_    0.786602 0.291025 0.318939 0.125254
H8    H     H_    0.139522 0.465399 0.662229 0.130490
H9    H     H_    0.117830 0.594265 0.801072 0.106251
H10   H     H_    0.123843 0.618301 0.974700 0.113302
H11   H     H_    0.981556 0.471615 0.972481 0.096714
H12   H     H_    0.848986 0.516647 0.676847 0.117083
H13   H     H_    0.832463 0.299742 0.795456 0.107319
H14   H     H_    0.825427 0.273498 0.620889 0.116054
H15   H     H_    0.511222 0.693231 0.990044 0.158914
H16   H     H_    0.373333 0.124050 0.320734 0.111745
H17   H     H_    0.756892 0.493760 0.176694 0.196602
H18   H     H_    0.605806 0.394096 0.073578 0.188939
H19   H     H_    0.780024 0.514248 0.033741 0.188055
H20   H     H_    0.628124 0.414405 0.934382 0.191237
H21   H     H_    0.456455 0.973125 0.670384 0.124693
H22   H     H_    0.461814 0.137604 0.669123 0.126035
H23   H     H_    0.612920 0.435765 0.236014 0.108438
H24   H     H_    0.276443 0.918117 0.219581 0.191210
H25   H     H_    0.431157 0.991801 0.306763 0.201389
H26   H     H_    0.267510 0.756133 0.220724 0.185614
H27   H     H_    0.294739 0.569480 0.674284 0.090946
H28   H     H_    0.422285 0.831357 0.307106 0.211581
H29   H     H_    0.197862 0.019678 0.992183 0.120608
H30   H     H_    0.033863 0.856664 0.831202 0.121899
H31   H     H_    0.914532 0.060261 0.736121 0.204276
H32   H     H_    0.833037 0.095252 0.799008 0.179394
H33   H     H_    0.080228 0.220875 0.893406 0.202967
H34   H     H_    0.701757 0.879513 0.757637 0.100039
H35   H     H_    0.998545 0.257302 0.954576 0.187323
H36   H     H_    0.559038 0.297735 0.676327 0.092367
H37   H     H_    0.125778 0.381121 0.318505 0.127213
H38   H     H_    0.482873 0.659468 0.829573 0.088704
H39   H     H_    0.325656 0.149844 0.167148 0.084699
H40   H     H_    0.336479 0.669235 0.323737 0.102538
H41   H     H_    0.266892 0.512280 0.031271 0.128886
H42   H     H_    0.351587 0.452066 0.024905 0.099133
H43   H     H_    0.268936 0.545579 0.878265 0.203573
H44   H     H_    0.353686 0.483663 0.869910 0.203608
H45   H     H_    0.877967 0.699966 0.756519 0.095963
H46   H     H_    0.208856 0.307042 0.828557 0.259023
H47   H     H_    0.159162 0.345619 0.728103 0.272488
H48   H     H_    0.120518 0.366047 0.831908 0.283931
H49   H     H_    0.443048 0.621902 0.246862 0.157047
H50   H     H_    0.518822 0.852982 0.674489 0.083872
H51   H     H_    0.666025 0.334727 0.324108 0.084673
H52   H     H_    0.868686 0.301770 0.989644 0.094064
N1    N     N_R   0.291070 0.347930 0.293870 -0.039187
N2    N     N_R   0.497240 0.291100 0.443210 -0.040280
N3    N     N_R   0.347890 0.554050 0.556810 -0.039054
N4    N     N_R   0.554050 0.347900 0.556830 -0.039012
N5    N     N_R   0.291070 0.497250 0.443190 -0.041386
N6    N     N_R   0.497240 0.554030 0.706140 -0.037271
N7    N     N_R   0.347890 0.291110 0.293870 -0.037107
N8    N     N_R   0.445950 0.652100 0.443170 -0.038725
N9    N     N_R   0.708930 0.502750 0.556810 -0.040287
N10   N     N_R   0.502760 0.445970 0.293860 -0.041455
N11   N     N_R   0.652110 0.708890 0.706130 -0.040194
N12   N     N_R   0.708930 0.652070 0.706130 -0.040397
N13   N     N_R   0.445950 0.502780 0.293850 -0.048477
N14   N     N_R   0.502760 0.708900 0.556790 -0.037112
N15   N     N_R   0.652110 0.445950 0.443190 -0.038546
N16   N     N_R   0.554050 0.497220 0.706150 -0.039062
Ni1   Ni    Ni4+2 0.369690 0.500010 0.369700 0.206179
Ni2   Ni    Ni4+2 0.630310 0.499990 0.630300 0.214649
Ni3   Ni    Ni4+2 0.500000 0.369720 0.369720 0.205983
Ni4   Ni    Ni4+2 0.500000 0.630280 0.630280 0.210274
O1    O     O_3   0.425823 0.624935 0.087659 -0.682622

loop_
_geom_bond_atom_site_label_1
_geom_bond_atom_site_label_2
_ccdc_geom_bond_type
C25   C31   A    
C5    N15   A    
C15   H6    S    
C45   N8    A    
C6    C45   A    
C27   C29   A    
C53   C63   S    
C41   H20   S    
C35   C36   A    
C68   H34   S    
C39   H18   S    
N15   Ni3   S    
N10   N13   A    
C2    H49   S    
C56   H12   S    
C39   C41   S    
C53   C54   A    
N4    Ni2   S    
N16   Ni2   S    
C26   C27   A    
C2    N13   A    
C66   H47   S    
C18   C24   A    
C14   H5    S    
C36   C37   A    
C16   N2    A    
C9    C69   A    
C30   C31   A    
C45   H40   S    
C50   H26   S    
N2    N4    A    
C62   H39   S    
C10   C17   A    
C23   C40   A    
C18   C19   A    
N6    Ni4   S    
C30   H14   S    
C68   N11   A    
C36   O1    S    
C1    N1    A    
N10   Ni3   S    
C4    N16   A    
N8    N14   A    
N8    Ni1   S    
C19   C20   A    
N11   N12   A    
C66   H48   S    
C18   H7    S    
C32   C41   S    
C32   C38   A    
C49   H25   S    
C4    C12   A    
C29   C30   A    
C3    N14   A    
C10   H2    S    
C3    C6    A    
C52   H37   S    
C59   C60   S    
C13   C14   A    
N1    N7    A    
C59   H31   S    
N9    N15   A    
C7    C56   A    
C60   H33   S    
N9    Ni2   S    
C1    C63   A    
C44   C46   A    
C22   C34   S    
C2    C8    A    
C69   H45   S    
C23   C47   S    
C66   H46   S    
C5    H51   S    
C25   H9    S    
C59   H32   S    
N1    Ni1   S    
C27   H11   S    
C5    C7    A    
C52   N5    A    
C11   H3    S    
C64   H42   S    
C46   H22   S    
C25   C26   A    
N2    Ni3   S    
C13   C24   S    
C51   C53   A    
C37   C38   A    
C43   C44   A    
C65   H43   S    
C62   C63   A    
C64   H41   S    
C47   C48   A    
C61   N6    A    
C51   C58   A    
C42   C48   A    
C4    H4    S    
C3    H50   S    
C42   C50   S    
C17   H52   S    
C48   C49   S    
N12   Ni2   S    
C16   C23   A    
C7    C19   S    
C6    C43   S    
C55   C57   A    
C16   H16   S    
C49   C50   S    
C22   C24   A    
N3    Ni4   S    
C8    C37   S    
C21   H8    S    
C44   H21   S    
N3    N5    A    
N11   Ni4   S    
C15   C17   A    
C41   H19   S    
C54   C55   A    
N5    Ni1   S    
C50   H28   S    
C69   N12   A    
C65   H44   S    
C67   N10   A    
C1    H1    S    
N13   Ni1   S    
C35   H15   S    
C28   N3    A    
C34   C52   A    
C26   H10   S    
C28   H27   S    
C64   C65   S    
C58   C59   S    
C9    C68   A    
C29   H13   S    
C60   H35   S    
C32   C33   A    
C62   N7    A    
C12   C61   A    
C11   C13   A    
C57   C58   A    
C38   C39   S    
C64   O1    S    
C40   N4    A    
C67   H23   S    
C33   C35   A    
C9    C57   S    
N7    Ni3   S    
C61   H38   S    
C46   C47   A    
C10   C11   A    
C28   C34   A    
N14   Ni4   S    
C20   C21   A    
C8    C67   A    
C65   C66   S    
C42   C43   A    
C55   H30   S    
C14   C15   A    
C54   H29   S    
C51   C60   S    
N6    N16   A    
C39   H17   S    
C49   H24   S    
C12   C33   S    
C21   C22   A    
C56   N9    A    
C40   H36   S    
C20   C31   S    
