data_mof_unit_56692.cif
_audit_creation_date              2012-12-11T15:53:34-0500
_audit_creation_method            fapswitch 2.2
_symmetry_space_group_name_H-M    P1
_symmetry_Int_Tables_number       1
_space_group_crystal_system       triclinic
_cell_length_a                    6.922659
_cell_length_b                    14.426252
_cell_length_c                    16.115083
_cell_angle_alpha                 90.270454
_cell_angle_beta                  89.907272
_cell_angle_gamma                 90.034439
_cell_volume                      1609.36116301

loop_
_atom_site_label
_atom_site_type_symbol
_atom_type_description
_atom_site_fract_x
_atom_site_fract_y
_atom_site_fract_z
_atom_type_partial_charge
O1    O     O_R   0.361600 0.167310 0.164620 -0.528502
O2    O     O_R   0.638400 0.832690 0.835380 -0.560390
O3    O     O_R   0.691080 0.157570 0.338750 -0.494400
O4    O     O_R   0.308920 0.842430 0.661250 -0.491413
O5    O     O_R   0.861410 0.336420 0.339360 -0.516742
O6    O     O_R   0.138590 0.663580 0.660640 -0.514135
C1    C     C_R   0.521887 0.133414 0.365868 0.875812
C2    C     C_R   0.478084 0.866464 0.634023 0.891399
O7    O     O_R   0.691320 0.156280 0.165240 -0.530740
O8    O     O_R   0.308680 0.843720 0.834760 -0.520361
O9    O     O_R   0.861640 0.335130 0.164600 -0.557611
O10   O     O_R   0.138360 0.664870 0.835400 -0.554580
C3    C     C_R   0.522784 0.134243 0.135896 0.816105
C4    C     C_R   0.477434 0.865337 0.864586 0.774084
O11   O     O_R   0.361370 0.168600 0.339370 -0.544128
O12   O     O_R   0.638630 0.831400 0.660630 -0.540044
O13   O     O_3   0.527990 0.310540 0.251980 -0.390526
O14   O     O_3   0.472010 0.689460 0.748020 -0.385198
V1    V     V_3+5 0.802830 0.240980 0.251990 1.638761
V2    V     V_3+5 0.197170 0.759020 0.748010 1.617047
O15   O     O_R   0.191360 0.346160 0.165220 -0.554180
O16   O     O_R   0.808640 0.653840 0.834780 -0.560843
C5    C     C_R   0.023164 0.369237 0.136882 0.677149
C6    C     C_R   0.976827 0.630795 0.863141 0.661443
O17   O     O_R   0.191130 0.347440 0.338740 -0.547632
O18   O     O_R   0.808870 0.652560 0.661260 -0.544670
C7    C     C_R   0.022254 0.369394 0.367507 0.803097
C8    C     C_R   0.977743 0.630623 0.632478 0.813829
V3    V     V_3+5 0.302840 0.262750 0.251990 1.540583
V4    V     V_3+5 0.697160 0.737250 0.748010 1.503513
O19   O     O_3   0.027820 0.193180 0.251990 -0.347779
O20   O     O_3   0.972180 0.806820 0.748010 -0.354053
C9    C     C_3   0.908369 0.422343 0.521402 0.460050
C10   C     C_3   0.091625 0.577700 0.478563 0.461201
C11   C     C_3   0.081716 0.465410 0.566760 0.086073
C12   C     C_3   0.918279 0.534628 0.433207 0.085307
C13   C     C_3   0.988158 0.561814 0.562327 -0.232185
C14   C     C_3   0.011838 0.438224 0.437641 -0.229234
C15   C     C_3   0.811153 0.519171 0.516312 -0.234102
C16   C     C_3   0.188845 0.480870 0.483655 -0.233944
H1    H     H_    0.656708 0.534742 0.528568 0.199200
H2    H     H_    0.343290 0.465300 0.471398 0.198760
C17   C     C_R   0.836430 0.497367 0.948216 0.206769
C18   C     C_R   0.163501 0.502726 0.051852 0.208934
C19   C     C_R   0.853051 0.436093 0.014924 -0.134106
C20   C     C_R   0.146895 0.563992 0.985135 -0.126721
H3    H     H_    0.738442 0.386116 0.024869 0.139772
H4    H     H_    0.261496 0.613974 0.975190 0.137777
C21   C     C_R   0.014686 0.437179 0.067535 -0.147436
C22   C     C_R   0.985275 0.562891 0.932514 -0.145714
C23   C     C_R   0.596980 0.974896 0.426371 0.406502
C24   C     C_R   0.401971 0.024900 0.573410 0.468402
C25   C     C_R   0.587101 0.913049 0.493347 -0.174972
C26   C     C_R   0.412886 0.086937 0.506590 -0.174529
H5    H     H_    0.651781 0.844955 0.487695 0.212250
H6    H     H_    0.347358 0.154864 0.512027 0.210674
C27   C     C_R   0.488673 0.936304 0.566642 -0.235332
C28   C     C_R   0.511385 0.063681 0.433328 -0.236356
C29   C     C_R   0.652538 0.994732 0.058357 0.176557
C30   C     C_R   0.347093 0.004201 0.943268 0.172923
C31   C     C_R   0.639824 0.928871 0.993837 0.075276
C32   C     C_R   0.361812 0.070820 0.007712 0.083771
C33   C     C_R   0.488225 0.933658 0.934629 -0.124729
C34   C     C_R   0.512785 0.065602 0.066377 -0.105597
N1    N     N_3   0.172826 0.427596 0.640595 -0.593450
H7    H     H_    0.217476 0.360239 0.626177 0.309791
H8    H     H_    0.066485 0.422217 0.686409 0.253662
N2    N     N_3   0.827153 0.572429 0.359370 -0.592934
H9    H     H_    0.782423 0.639770 0.373796 0.310544
H10   H     H_    0.933503 0.577842 0.313563 0.255079
S1    S     S_3+6 0.784188 0.319323 0.550995 -0.003186
O21   O     O_2   0.608857 0.307510 0.497132 -0.367079
O22   O     O_2   0.915720 0.237302 0.540195 -0.318675
O23   O     O_3   0.715531 0.328118 0.650814 -0.500822
H11   H     H_    0.642054 0.270533 0.661912 0.396072
S2    S     S_3+6 0.215726 0.680745 0.448961 -0.004695
O24   O     O_2   0.084144 0.762741 0.459815 -0.316969
O25   O     O_2   0.391114 0.692566 0.502786 -0.368153
O26   O     O_3   0.284274 0.672006 0.349124 -0.499977
H12   H     H_    0.356687 0.729865 0.337886 0.386782
N3    N     N_3   0.668786 0.488924 0.896660 -0.645736
H13   H     H_    0.712524 0.480986 0.834901 0.250655
H14   H     H_    0.584956 0.548740 0.903008 0.242531
N4    N     N_3   0.331081 0.511204 0.103441 -0.645578
H15   H     H_    0.287265 0.519116 0.165193 0.249367
H16   H     H_    0.414986 0.451412 0.097104 0.243878
S3    S     S_3+6 0.696383 0.935249 0.331666 0.019748
O27   O     O_2   0.879071 0.987620 0.313330 -0.297176
O28   O     O_2   0.741483 0.833411 0.335057 -0.316790
O29   O     O_3   0.535194 0.954394 0.255778 -0.527829
H17   H     H_    0.418620 0.919152 0.272354 0.340471
S4    S     S_3+6 0.293184 0.062956 0.666701 0.006752
O30   O     O_2   0.427810 0.042879 0.737366 -0.368094
O31   O     O_2   0.253990 0.165413 0.663840 -0.327775
O32   O     O_3   0.083932 0.005716 0.680618 -0.480267
H18   H     H_    0.010241 0.043286 0.721349 0.367312
N5    N     N_3   0.808082 0.988458 0.116878 -0.544497
H19   H     H_    0.804142 0.922908 0.144188 0.322492
H20   H     H_    0.938479 0.993846 0.084513 0.224310
N6    N     N_3   0.188658 0.008611 0.886059 -0.595824
H21   H     H_    0.187538 0.073745 0.858080 0.277251
H22   H     H_    0.059903 0.000882 0.919194 0.208184
N7    N     N_3   0.778602 0.854813 0.993004 -0.668849
H23   H     H_    0.870121 0.861946 0.941880 0.248769
H24   H     H_    0.706352 0.791204 0.990192 0.234241
N8    N     N_3   0.228281 0.146987 0.011618 -0.661159
H25   H     H_    0.241223 0.186096 0.957474 0.239964
H26   H     H_    0.087470 0.121456 0.015873 0.227520

loop_
_geom_bond_atom_site_label_1
_geom_bond_atom_site_label_2
_ccdc_geom_bond_type
C18   C21   A    
C14   C16   S    
S3    O27   D    
C10   C13   S    
O13   V3    S    
C25   H5    S    
O32   H18   S    
S2    O26   S    
O4    C2    A    
V1    O19   S    
N5    H19   S    
O29   H17   S    
C15   H1    S    
O9    V1    S    
C29   C34   A    
C9    C15   S    
C30   C33   A    
C10   C16   S    
C31   N7    S    
N4    H16   S    
O3    C1    A    
C26   C28   A    
C9    C11   S    
C5    C21   S    
N8    H25   S    
C11   N1    S    
C7    C14   S    
O12   V4    S    
C30   C32   A    
C31   C33   A    
O7    C3    A    
S4    O30   D    
C32   C34   A    
N5    H20   S    
O5    C7    A    
O7    V1    S    
O6    C8    A    
C18   C20   A    
N2    H9    S    
N1    H8    S    
O3    V1    S    
O14   V4    S    
O8    V2    S    
C1    C28   S    
C10   C12   S    
C1    O11   A    
C2    O12   A    
O17   V3    S    
N6    H22   S    
N3    H14   S    
C24   C26   A    
O11   V3    S    
C20   H4    S    
C19   H3    S    
C6    C22   S    
C13   C15   S    
C26   H6    S    
C29   C31   A    
O23   H11   S    
S2    O24   D    
O8    C4    A    
C23   S3    S    
S1    O22   D    
C25   C27   A    
C30   N6    S    
O15   V3    S    
S4    O32   S    
N3    H13   S    
C23   C25   A    
C2    C27   S    
C19   C21   A    
O10   V2    S    
S4    O31   D    
N7    H24   S    
C23   C28   A    
N4    H15   S    
C17   C19   A    
C32   N8    S    
O18   V4    S    
O15   C5    A    
C29   N5    S    
O16   C6    A    
C24   S4    S    
O1    C3    A    
V2    O20   S    
O10   C6    A    
O16   V4    S    
C11   C13   S    
C12   C15   S    
S2    O25   D    
C16   H2    S    
C18   N4    S    
S1    O23   S    
C12   N2    S    
C17   C22   A    
O5    V1    S    
O17   C7    A    
O6    V2    S    
C20   C22   A    
O18   C8    A    
C9    C14   S    
O2    V4    S    
C12   C14   S    
C11   C16   S    
S1    O21   D    
V3    O19   S    
V4    O20   S    
O1    V3    S    
C3    C34   S    
N8    H26   S    
C8    C13   S    
C17   N3    S    
C4    C33   S    
O9    C5    A    
N6    H21   S    
O13   V1    S    
O14   V2    S    
O2    C4    A    
C24   C27   A    
C9    S1    S    
O26   H12   S    
O4    V2    S    
N2    H10   S    
N1    H7    S    
S3    O29   S    
N7    H23   S    
S3    O28   D    
C10   S2    S    
