data_mof_unit_7862.cif
_audit_creation_date              2012-12-10T17:16:42-0500
_audit_creation_method            fapswitch 2.2
_symmetry_space_group_name_H-M    P1
_symmetry_Int_Tables_number       1
_space_group_crystal_system       triclinic
_cell_length_a                    10.097541
_cell_length_b                    10.531915
_cell_length_c                    10.865324
_cell_angle_alpha                 89.71118
_cell_angle_beta                  95.151748
_cell_angle_gamma                 84.108842
_cell_volume                      1144.62440991

loop_
_atom_site_label
_atom_site_type_symbol
_atom_type_description
_atom_site_fract_x
_atom_site_fract_y
_atom_site_fract_z
_atom_type_partial_charge
C1    C     C_R   0.443953 0.506192 0.267808 0.950243
C2    C     C_R   0.500166 0.740573 0.484436 0.879651
C3    C     C_R   0.733824 0.086079 0.621643 -0.097702
C4    C     C_R   0.266036 0.916277 0.391323 -0.098127
C5    C     C_R   0.855808 0.011974 0.620759 -0.130296
C6    C     C_R   0.143283 0.987153 0.399969 -0.175832
C7    C     C_R   0.868256 0.909021 0.541153 -0.241615
C8    C     C_R   0.133610 0.087406 0.482802 -0.228908
C9    C     C_R   0.755403 0.872538 0.469455 -0.058021
C10   C     C_R   0.248870 0.125294 0.548894 0.053874
C11   C     C_R   0.626648 0.930358 0.494665 0.043371
C12   C     C_R   0.555826 0.489865 0.732240 0.947043
C13   C     C_R   0.376108 0.069945 0.518247 0.012924
C14   C     C_R   0.619140 0.047487 0.555095 0.056533
C15   C     C_R   0.382660 0.954238 0.455632 0.052489
C16   C     C_R   0.505050 0.876971 0.462496 -0.177251
C17   C     C_R   0.497055 0.124612 0.546217 -0.164349
C18   C     C_2   0.772682 0.796775 0.354159 0.969335
C19   C     C_2   0.233737 0.204626 0.661179 0.933686
C20   C     C_2   0.411846 0.503864 0.136270 -0.343445
C21   C     C_2   0.587008 0.477036 0.863784 -0.326010
C22   C     C_2   0.511379 0.474712 0.065641 -0.117943
C23   C     C_2   0.485677 0.480514 0.934412 -0.155203
C24   C     C_2   0.078384 0.475151 0.498350 0.392284
C25   C     C_2   0.935499 0.478379 0.529852 0.369946
C26   C     C_R   0.500563 0.260046 0.517965 0.887839
H1    H     H_    0.035600 0.133252 0.497457 0.168712
H2    H     H_    0.309153 0.527026 0.097207 0.161426
H3    H     H_    0.867429 0.431564 0.360143 0.143482
H4    H     H_    0.119272 0.619028 0.610289 0.112835
H5    H     H_    0.959479 0.711182 0.407436 0.276978
H6    H     H_    0.320418 0.271826 0.818930 0.341741
H7    H     H_    0.981834 0.509614 0.703145 0.324518
H8    H     H_    0.064016 0.329834 0.390517 0.300073
H9    H     H_    0.967612 0.863608 0.532964 0.138316
H10   H     H_    0.728140 0.171692 0.676656 0.154525
H11   H     H_    0.270292 0.832670 0.333527 0.151252
H12   H     H_    0.942953 0.039810 0.675228 0.172833
H13   H     H_    0.054307 0.959048 0.348698 0.167555
H14   H     H_    0.381813 0.492711 0.895910 0.188048
H15   H     H_    0.614300 0.451287 0.104234 0.197207
H16   H     H_    0.690621 0.465438 0.902780 0.170042
N1    N     N_2   0.157300 0.551390 0.551120 -0.204634
N2    N     N_2   0.842700 0.448610 0.448880 -0.191228
O1    O     O_R   0.568940 0.489660 0.307530 -0.611297
O2    O     O_R   0.890470 0.720584 0.334230 -0.789123
O3    O     O_2   0.123411 0.253655 0.683154 -0.679661
O4    O     O_R   0.344340 0.217865 0.745586 -0.813306
O5    O     O_3   0.900244 0.516525 0.644721 -0.720854
O6    O     O_3   0.129126 0.391671 0.412625 -0.714976
O7    O     O_R   0.431060 0.510340 0.692470 -0.618233
O8    O     O_R   0.348880 0.522640 0.340350 -0.566835
O9    O     O_R   0.651120 0.477360 0.659650 -0.545935
O10   O     O_R   0.610030 0.300280 0.483580 -0.620684
O11   O     O_R   0.389970 0.699720 0.516420 -0.618358
O12   O     O_R   0.389970 0.333270 0.516400 -0.560705
O13   O     O_R   0.610030 0.666730 0.483600 -0.593838
O14   O     O_2   0.681872 0.804214 0.271383 -0.586426
Zn1   Zn    Zn3+2 0.646940 0.477980 0.478080 1.022641
Zn2   Zn    Zn3+2 0.353060 0.522020 0.521920 1.009391

loop_
_geom_bond_atom_site_label_1
_geom_bond_atom_site_label_2
_ccdc_geom_bond_type
C21   H16   S    
C10   C13   A    
C2    C16   S    
C11   C16   A    
C20   H2    S    
C12   O9    A    
C13   C17   A    
C10   C19   S    
C2    O11   A    
C7    C9    A    
C4    C15   A    
C21   C23   D    
O9    Zn1   S    
C2    O13   A    
O11   Zn2   S    
C24   C25   S    
C9    C11   A    
C14   C17   A    
C1    O1    A    
H6    O4    S    
C3    C14   A    
N1    Zn2   S    
C17   C26   S    
C3    H10   S    
C25   N2    D    
C8    C10   A    
C11   C14   A    
C20   C22   D    
C19   O3    D    
O10   Zn1   S    
C13   C15   A    
H3    N2    S    
C24   O6    S    
C24   N1    D    
C1    O8    A    
C25   O5    S    
H4    N1    S    
H8    O6    S    
C22   H15   S    
O13   Zn1   S    
N2    Zn1   S    
H7    O5    S    
C15   C16   A    
C18   O2    S    
C26   O10   A    
C9    C18   S    
C12   O7    A    
O12   Zn2   S    
C4    H11   S    
C4    C6    A    
C5    C7    A    
C8    H1    S    
C6    H13   S    
O1    Zn1   S    
C1    C20   S    
C6    C8    A    
O7    Zn2   S    
O8    Zn2   S    
C5    H12   S    
C7    H9    S    
C12   C21   S    
C18   O14   D    
C22   C23   S    
C23   H14   S    
C19   O4    S    
C3    C5    A    
H5    O2    S    
C26   O12   A    
