data_mof_unit_57055.cif
_audit_creation_date              2012-12-11T16:04:56-0500
_audit_creation_method            fapswitch 2.2
_symmetry_space_group_name_H-M    P1
_symmetry_Int_Tables_number       1
_space_group_crystal_system       triclinic
_cell_length_a                    10.568816
_cell_length_b                    10.635222
_cell_length_c                    16.813376
_cell_angle_alpha                 98.501591
_cell_angle_beta                  98.525878
_cell_angle_gamma                 61.444257
_cell_volume                      1635.15503366

loop_
_atom_site_label
_atom_site_type_symbol
_atom_type_description
_atom_site_fract_x
_atom_site_fract_y
_atom_site_fract_z
_atom_type_partial_charge
C1    C     C_R   0.350343 0.784243 0.402594 0.543342
C2    C     C_3   0.676300 0.330706 0.234884 -0.126707
C3    C     C_3   0.741498 0.389928 0.308861 0.048975
C4    C     C_3   0.895085 0.283046 0.288828 -0.117952
C5    C     C_3   0.893556 0.395515 0.240523 -0.111205
C6    C     C_3   0.739284 0.503116 0.261447 -0.119530
C7    C     C_3   0.675208 0.443796 0.185653 -0.141447
C8    C     C_3   0.828909 0.336451 0.165840 0.056475
C9    C     C_3   0.436158 0.831339 0.224657 -0.119517
C10   C     C_3   0.375185 0.741011 0.252961 -0.114609
C11   C     C_3   0.328568 0.847285 0.328148 0.055274
C12   C     C_R   0.366521 0.343520 0.360103 0.529628
C13   C     C_3   0.390256 0.937030 0.301433 -0.125933
C14   C     C_3   0.239896 0.027782 0.257032 -0.151689
C15   C     C_3   0.179606 0.936538 0.285501 -0.125081
C16   C     C_3   0.226067 0.830657 0.209926 -0.094812
C17   C     C_3   0.286777 0.920870 0.182191 0.050759
C18   C     C_3   0.433790 0.217174 0.760988 0.287253
C19   C     C_3   0.379920 0.366118 0.734393 0.292604
C20   C     C_3   0.320540 0.317627 0.653387 0.027077
C21   C     C_3   0.373593 0.167094 0.680974 -0.155591
C22   C     C_3   0.225919 0.223452 0.715796 -0.191853
C23   C     C_R   0.703918 0.417189 0.390980 0.566049
C24   C     C_3   0.172630 0.373898 0.685502 -0.170798
C25   C     C_3   0.232290 0.423683 0.767040 -0.131413
C26   C     C_3   0.287442 0.273513 0.795769 0.012865
C27   C     C_1   0.847368 0.328418 0.705614 -0.057952
C28   C     C_1   0.893867 0.294781 0.773010 -0.086360
C29   C     C_1   0.357064 0.767191 0.714084 -0.008853
C30   C     C_1   0.325603 0.814308 0.781606 -0.052668
C31   C     C_R   0.890581 0.311278 0.090427 0.532010
C32   C     C_R   0.291649 0.262382 0.122976 0.544779
C33   C     C_R   0.256188 0.959569 0.099531 0.545068
C34   C     C_R   0.379605 0.715763 0.631806 0.606975
C35   C     C_R   0.943054 0.275802 0.856000 0.530390
C36   C     C_R   0.276407 0.250179 0.877216 0.548054
C37   C     C_R   0.281860 0.881766 0.859306 0.525854
C38   C     C_R   0.362915 0.342430 0.581688 0.569737
C39   C     C_R   0.779244 0.377116 0.628602 0.565754
C40   C     C_1   0.325832 0.318527 0.278089 -0.068235
C41   C     C_1   0.306128 0.294501 0.207158 -0.070777
C42   C     C_3   0.831668 0.222773 0.213416 -0.110800
Cr1   Cr    Cr6+3 0.608340 0.611040 0.520430 0.997914
Cr2   Cr    Cr6+3 0.287650 0.601120 0.489350 1.022518
Cr3   Cr    Cr6+3 0.604040 0.287870 0.490280 1.011761
Cr4   Cr    Cr6+3 0.054020 0.052700 0.970850 0.999692
Cr5   Cr    Cr6+3 0.059230 0.375120 0.993390 0.998591
Cr6   Cr    Cr6+3 0.374950 0.061200 0.992340 1.019482
H1    H     H_    0.586268 0.305071 0.234861 0.135934
H2    H     H_    0.183662 0.145890 0.255950 0.092186
H3    H     H_    0.076100 0.975312 0.312322 0.120637
H4    H     H_    0.159198 0.785442 0.172302 0.140030
H5    H     H_    0.427692 0.064912 0.642626 0.122024
H6    H     H_    0.164468 0.161917 0.710292 0.118288
H7    H     H_    0.066796 0.436893 0.651679 0.139652
H8    H     H_    0.870603 0.107589 0.191849 0.127193
H9    H     H_    0.981093 0.223948 0.335611 0.120723
H10   H     H_    0.704262 0.616741 0.284993 0.124385
H11   H     H_    0.587049 0.507873 0.141177 0.112044
H12   H     H_    0.426323 0.622847 0.254244 0.109228
H13   H     H_    0.539026 0.790282 0.196676 0.123405
H14   H     H_    0.456930 0.980144 0.341164 0.133223
O1    O     O_R   0.751220 0.499230 0.435170 -0.518133
O2    O     O_R   0.297880 0.469080 0.560050 -0.492820
O3    O     O_R   0.489720 0.254590 0.564810 -0.525343
O4    O     O_R   0.725220 0.304230 0.585080 -0.483097
O5    O     O_3   0.500010 0.500010 0.500020 -0.280853
O6    O     O_R   0.171830 0.913880 0.057510 -0.516614
O7    O     O_R   0.940690 0.186050 0.054730 -0.510707
O8    O     O_R   0.920470 0.405720 0.075010 -0.523475
O9    O     O_R   0.196690 0.370460 0.084120 -0.484987
O10   O     O_R   0.412990 0.180750 0.091610 -0.502905
O11   O     O_R   0.366620 0.943130 0.065760 -0.515248
O12   O     O_R   0.477220 0.727600 0.436870 -0.521565
O13   O     O_R   0.160510 0.906330 0.879210 -0.516737
O14   O     O_R   0.930190 0.179050 0.889450 -0.498700
O15   O     O_R   0.909140 0.398170 0.896710 -0.515911
O16   O     O_R   0.186190 0.363460 0.918830 -0.516093
O17   O     O_R   0.401670 0.173200 0.913310 -0.449124
O18   O     O_R   0.356120 0.936130 0.900470 -0.507624
O19   O     O_3   0.162740 0.163010 0.985530 -0.326129
O20   O     O_R   0.258650 0.745120 0.411470 -0.513131
O21   O     O_R   0.297070 0.467240 0.395960 -0.498801
O22   O     O_R   0.488830 0.252610 0.387790 -0.528922
O23   O     O_R   0.724400 0.302390 0.420980 -0.500576
O24   O     O_R   0.752100 0.501210 0.612190 -0.522929
O25   O     O_R   0.478040 0.729440 0.600970 -0.513197
O26   O     O_R   0.259530 0.747110 0.588490 -0.512511
O27   O     O_3   0.452481 0.449567 0.737705 -0.591433
C43   C     C_3   0.537940 0.444723 0.811666 0.007957
H15   H     H_    0.591892 0.510576 0.806956 0.160268
H16   H     H_    0.626316 0.334904 0.819977 0.185397
C44   C     C_3   0.450304 0.506436 0.885974 -0.278039
H17   H     H_    0.347071 0.602777 0.871550 0.176568
H18   H     H_    0.424976 0.425248 0.903831 0.194718
C45   C     C_3   0.534188 0.547019 0.957865 -0.430686
H19   H     H_    0.635601 0.450516 0.975344 0.174399
H20   H     H_    0.466885 0.592461 0.009789 0.157856
H21   H     H_    0.560915 0.629370 0.942847 0.167716
O28   O     O_3   0.568104 0.136142 0.804585 -0.557562
C46   C     C_3   0.680063 0.058904 0.752709 -0.002331
H22   H     H_    0.775999 0.070877 0.780924 0.168963
H23   H     H_    0.654869 0.100026 0.692025 0.148703
C47   C     C_3   0.720421 0.899130 0.744972 -0.259741
H24   H     H_    0.751726 0.859359 0.806023 0.182007
H25   H     H_    0.625716 0.883910 0.717915 0.174440
C48   C     C_3   0.846179 0.810464 0.692773 -0.460216
H26   H     H_    0.816349 0.846298 0.630842 0.147776
H27   H     H_    0.872945 0.695414 0.688850 0.164250
H28   H     H_    0.943361 0.821446 0.719713 0.161014
H29   H     H_    0.173098 0.527923 0.802712 0.127754
H30   H     H_    0.983924 0.421421 0.241629 0.122306

loop_
_geom_bond_atom_site_label_1
_geom_bond_atom_site_label_2
_ccdc_geom_bond_type
C44   H17   S    
C18   C21   S    
C6    H10   S    
C3    C23   S    
C2    C7    S    
C1    C11   S    
C3    C6    S    
Cr4   O14   S    
Cr1   O1    S    
C7    C8    S    
C22   H6    S    
Cr2   O2    S    
C24   H7    S    
C46   H22   S    
C18   O28   S    
C9    H13   S    
C1    O12   A    
Cr6   O17   S    
C8    C42   S    
Cr2   O20   S    
C5    C6    S    
C15   C16   S    
C45   H21   S    
C26   C36   S    
Cr6   O19   S    
C12   O22   A    
C18   C19   S    
C7    H11   S    
C9    C13   S    
C47   H24   S    
Cr4   O7    S    
C42   H8    S    
C18   C26   S    
C11   C15   S    
C31   O8    A    
C13   H14   S    
C20   C24   S    
C28   C35   S    
C27   C39   S    
C16   C17   S    
C45   H20   S    
C4    H9    S    
Cr3   O5    S    
C32   C41   S    
C15   H3    S    
C9    C10   S    
Cr2   O21   S    
Cr1   O12   S    
C23   O1    A    
C37   O13   A    
C44   H18   S    
C13   C14   S    
C48   H27   S    
C14   C17   S    
C17   C33   S    
Cr6   O10   S    
C47   H25   S    
Cr4   O13   S    
C32   O9    A    
C38   O2    A    
C37   O18   A    
C35   O14   A    
C24   C25   S    
C32   O10   A    
C1    O20   A    
C29   C34   S    
C35   O15   A    
C12   O21   A    
C12   C40   S    
Cr3   O23   S    
Cr5   O8    S    
Cr4   O6    S    
C29   C30   T    
C19   O27   S    
C2    H1    S    
Cr4   O19   S    
C20   C38   S    
C43   H16   S    
C38   O3    A    
C48   H26   S    
C45   H19   S    
Cr1   O5    S    
C34   O26   A    
Cr5   O9    S    
C33   O11   A    
C40   C41   T    
C46   C47   S    
Cr3   O3    S    
C48   H28   S    
C22   C24   S    
Cr3   O22   S    
Cr5   O15   S    
C3    C4    S    
Cr3   O4    S    
C43   C44   S    
C9    C17   S    
C10   H12   S    
C8    C31   S    
Cr6   O11   S    
C16   H4    S    
C4    C5    S    
C36   O17   A    
C5    C8    S    
C6    C7    S    
C5    H30   S    
C44   C45   S    
C39   O24   A    
Cr1   O25   S    
Cr6   O18   S    
C19   C20   S    
C2    C3    S    
C25   C26   S    
C23   O23   A    
C36   O16   A    
C21   H5    S    
C11   C13   S    
C43   H15   S    
C14   H2    S    
C4    C42   S    
C2    C42   S    
O28   C46   S    
C39   O4    A    
Cr2   O26   S    
C34   O25   A    
Cr5   O19   S    
C19   C25   S    
Cr1   O24   S    
C10   C11   S    
C25   H29   S    
C31   O7    A    
C20   C21   S    
C30   C37   S    
C46   H23   S    
C22   C26   S    
C27   C28   T    
C14   C15   S    
Cr2   O5    S    
C10   C16   S    
Cr5   O16   S    
O27   C43   S    
C21   C22   S    
C47   C48   S    
C33   O6    A    
