data_mof_unit_16553.cif
_audit_creation_date              2012-12-10T17:15:51-0500
_audit_creation_method            fapswitch 2.2
_symmetry_space_group_name_H-M    P1
_symmetry_Int_Tables_number       1
_space_group_crystal_system       triclinic
_cell_length_a                    10.126914
_cell_length_b                    10.682342
_cell_length_c                    10.676143
_cell_angle_alpha                 89.330701
_cell_angle_beta                  95.330639
_cell_angle_gamma                 82.333437
_cell_volume                      1139.3229413

loop_
_atom_site_label
_atom_site_type_symbol
_atom_type_description
_atom_site_fract_x
_atom_site_fract_y
_atom_site_fract_z
_atom_type_partial_charge
C1    C     C_R   0.443499 0.510189 0.266171 0.785612
C2    C     C_R   0.521530 0.066382 0.388154 0.081688
C3    C     C_R   0.492858 0.129336 0.499848 -0.153561
C4    C     C_R   0.471854 0.065460 0.611156 -0.055628
C5    C     C_R   0.476377 0.934637 0.609153 -0.078436
C6    C     C_R   0.506521 0.871522 0.498021 -0.160490
C7    C     C_2   0.410385 0.525198 0.131106 -0.237830
C8    C     C_2   0.502867 0.570046 0.066933 -0.113346
C9    C     C_2   0.589936 0.502285 0.868621 -0.231121
C10   C     C_2   0.497819 0.571498 0.931732 -0.082455
C11   C     C_2   0.072368 0.489861 0.489582 -0.076288
C12   C     C_R   0.498972 0.260873 0.503600 0.909795
C13   C     C_2   0.927618 0.510272 0.510286 -0.096677
C14   C     C_R   0.556505 0.494166 0.733853 0.835346
C15   C     C_R   0.500912 0.739381 0.495854 0.843098
C16   C     C_R   0.538607 0.132774 0.276499 -0.238727
C17   C     C_R   0.584658 0.070202 0.171622 -0.018930
C18   C     C_R   0.605958 0.936961 0.174094 0.034489
C19   C     C_R   0.576925 0.870801 0.280627 -0.196313
C20   C     C_R   0.535518 0.934876 0.388924 0.066094
H1    H     H_    0.879275 0.384594 0.384823 0.195436
N1    N     N_2   0.157290 0.551390 0.551110 -0.172281
N2    N     N_2   0.842740 0.448550 0.448960 -0.179407
O1    O     O_R   0.568950 0.489660 0.307530 -0.582541
O2    O     O_R   0.348880 0.522640 0.340350 -0.619385
O3    O     O_R   0.610060 0.300270 0.483590 -0.611757
O4    O     O_R   0.389990 0.333260 0.516410 -0.561736
O5    O     O_R   0.651120 0.477360 0.659650 -0.627629
O6    O     O_R   0.431050 0.510340 0.692470 -0.543988
O7    O     O_R   0.610010 0.666740 0.483590 -0.618558
O8    O     O_R   0.389940 0.699730 0.516410 -0.595311
Zn1   Zn    Zn3+2 0.646940 0.477980 0.478090 0.980129
Zn2   Zn    Zn3+2 0.353060 0.522020 0.521910 1.023400
C21   C     C_2   0.458596 0.131309 0.732982 0.467072
H2    H     H_    0.508708 0.086255 0.819085 0.091065
O9    O     O_2   0.387732 0.232230 0.739735 -0.522486
C22   C     C_2   0.283608 0.483674 0.074412 0.457230
H3    H     H_    0.217073 0.446968 0.135429 0.078795
O10   O     O_2   0.251913 0.488488 0.961176 -0.526289
H4    H     H_    0.892247 0.578438 0.578374 0.167810
H5    H     H_    0.107707 0.421838 0.421349 0.159557
H6    H     H_    0.120779 0.615221 0.615367 0.192949
H7    H     H_    0.520702 0.234892 0.271154 0.132395
C23   C     C_2   0.615252 0.149401 0.065705 0.373103
H8    H     H_    0.563751 0.245059 0.051250 0.102866
O11   O     O_2   0.702217 0.112185 0.997881 -0.588172
C24   C     C_2   0.654944 0.865251 0.065944 0.458724
H9    H     H_    0.625764 0.900683 0.970452 0.092368
O12   O     O_2   0.731380 0.766846 0.082813 -0.562240
H10   H     H_    0.587938 0.768955 0.277546 0.171617
C25   C     C_2   0.454289 0.861427 0.723710 0.379027
H11   H     H_    0.512627 0.769883 0.745222 0.040221
O13   O     O_2   0.368505 0.900696 0.792089 -0.565882
H12   H     H_    0.408468 0.623916 0.882161 0.216270
H13   H     H_    0.591960 0.598219 0.116493 0.240386
C26   C     C_2   0.717745 0.429965 0.926449 0.483454
H14   H     H_    0.780898 0.371027 0.867511 0.100258
O14   O     O_2   0.754631 0.434573 0.038203 -0.542793

loop_
_geom_bond_atom_site_label_1
_geom_bond_atom_site_label_2
_ccdc_geom_bond_type
O7    Zn1   S    
C9    C14   S    
O1    Zn1   S    
C15   O8    A    
C22   H3    S    
C6    C20   A    
C9    C10   D    
C11   N1    D    
C19   C20   A    
C16   H7    S    
N2    Zn1   S    
O8    Zn2   S    
C17   C18   A    
C7    C22   S    
C17   C23   S    
C7    C8    D    
C24   O12   D    
C9    C26   S    
C18   C24   S    
C1    O2    A    
C11   C13   S    
C19   H10   S    
N1    H6    S    
C15   O7    A    
C8    H13   S    
C8    C10   S    
C26   O14   D    
C2    C3    A    
C21   O9    D    
H1    N2    S    
C5    C6    A    
C10   H12   S    
C4    C21   S    
C16   C17   A    
C12   O4    A    
C2    C20   A    
C25   H11   S    
C24   H9    S    
O6    Zn2   S    
O5    Zn1   S    
C2    C16   A    
C26   H14   S    
C13   N2    D    
C1    O1    A    
C22   O10   D    
C21   H2    S    
C11   H5    S    
C12   O3    A    
O4    Zn2   S    
N1    Zn2   S    
O3    Zn1   S    
C18   C19   A    
C13   H4    S    
C3    C12   S    
C14   O6    A    
C14   O5    A    
C6    C15   S    
C1    C7    S    
C23   O11   D    
C5    C25   S    
C23   H8    S    
C3    C4    A    
O2    Zn2   S    
C4    C5    A    
C25   O13   D    
