data_mof_unit_58562.cif
_audit_creation_date              2012-12-10T19:27:37-0500
_audit_creation_method            fapswitch 2.2
_symmetry_space_group_name_H-M    P1
_symmetry_Int_Tables_number       1
_space_group_crystal_system       triclinic
_cell_length_a                    23.187449
_cell_length_b                    10.535918
_cell_length_c                    9.854021
_cell_angle_alpha                 87.399774
_cell_angle_beta                  88.975731
_cell_angle_gamma                 89.477856
_cell_volume                      2404.40183247

loop_
_atom_site_label
_atom_site_type_symbol
_atom_type_description
_atom_site_fract_x
_atom_site_fract_y
_atom_site_fract_z
_atom_type_partial_charge
C1    C     C_R   0.499214 0.258163 0.502685 0.929895
C2    C     C_R   0.501978 0.741838 0.497424 0.903189
C3    C     C_R   0.233263 0.502814 0.414704 0.160197
C4    C     C_R   0.754714 0.399318 0.626614 0.100659
C5    C     C_R   0.292451 0.524869 0.409698 -0.313800
C6    C     C_R   0.695713 0.408049 0.607614 -0.309149
C7    C     C_R   0.328402 0.464182 0.505327 -0.123863
C8    C     C_R   0.673087 0.488357 0.504143 -0.089432
C9    C     C_R   0.305643 0.371841 0.599893 0.079652
C10   C     C_R   0.710284 0.561841 0.418020 -0.000780
C11   C     C_R   0.246244 0.354195 0.609410 0.103355
C12   C     C_R   0.770110 0.549707 0.434113 0.118181
C13   C     C_R   0.209923 0.421640 0.518139 0.228328
C14   C     C_R   0.791951 0.468488 0.538517 0.284897
C15   C     C_3   0.485460 0.029434 0.624420 0.089437
C16   C     C_3   0.517387 0.971418 0.375716 0.035027
C17   C     C_3   0.540143 0.951927 0.592767 -0.387072
C18   C     C_3   0.462512 0.049037 0.408240 -0.375607
C19   C     C_3   0.503484 0.876626 0.494297 -0.174959
C20   C     C_3   0.499217 0.123559 0.506445 -0.136382
C21   C     C_3   0.449389 0.953844 0.529046 0.522087
C22   C     C_3   0.553334 0.046602 0.471743 0.494937
C23   C     C_R   0.389738 0.492642 0.501420 0.859494
C24   C     C_R   0.610549 0.499849 0.499519 0.862187
C25   C     C_3   0.469883 0.407265 0.054113 0.554953
C26   C     C_3   0.530543 0.592260 0.946061 0.511460
C27   C     C_3   0.521463 0.395828 0.956968 -0.061904
C28   C     C_3   0.478795 0.603342 0.042958 0.028947
C29   C     C_3   0.448718 0.511789 0.954862 -0.000326
C30   C     C_3   0.551630 0.487941 0.046382 -0.043088
C31   C     C_R   0.882351 0.555589 0.604583 0.586724
C32   C     C_R   0.118162 0.315781 0.511491 0.547134
C33   C     C_R   0.878978 0.343636 0.529413 0.545431
C34   C     C_R   0.123706 0.524630 0.595449 0.538462
C35   C     C_R   0.937847 0.326512 0.552950 -0.153286
C36   C     C_R   0.063924 0.528703 0.618937 -0.144714
C37   C     C_R   0.970481 0.432312 0.585926 -0.126968
C38   C     C_R   0.031028 0.423985 0.582571 -0.123489
C39   C     C_R   0.942671 0.547289 0.617680 -0.060413
C40   C     C_R   0.058424 0.312503 0.537557 -0.059598
C41   C     C_R   0.965287 0.207166 0.542646 0.482966
C42   C     C_R   0.035832 0.635590 0.673357 0.455217
C43   C     C_R   0.025344 0.201880 0.522927 0.016317
C44   C     C_R   0.975792 0.648866 0.661795 0.024049
H1    H     H_    0.310099 0.591606 0.333235 0.161047
H2    H     H_    0.667355 0.352848 0.675641 0.160759
H3    H     H_    0.571385 0.912212 0.667620 0.176675
H4    H     H_    0.432213 0.091356 0.332769 0.181483
N1    N     N_R   0.852722 0.456287 0.556312 -0.335917
N2    N     N_R   0.148957 0.420371 0.541226 -0.346297
N3    N     N_3   0.499960 0.500030 0.863290 -0.137984
N4    N     N_3   0.500040 0.499970 0.136710 -0.121187
O1    O     O_R   0.500000 0.313960 0.616610 -0.611383
O2    O     O_R   0.500000 0.686040 0.383390 -0.621733
O3    O     O_R   0.500030 0.313950 0.383350 -0.576074
O4    O     O_R   0.499970 0.686050 0.616650 -0.573531
O5    O     O_R   0.416140 0.499970 0.616650 -0.612327
O6    O     O_R   0.583860 0.500030 0.383350 -0.605608
O7    O     O_R   0.416170 0.499960 0.383400 -0.582329
O8    O     O_R   0.583830 0.500040 0.616600 -0.651439
O9    O     O_2   0.853144 0.661132 0.638837 -0.558787
O10   O     O_2   0.145384 0.217411 0.454164 -0.557597
O11   O     O_2   0.848296 0.249886 0.476714 -0.536660
O12   O     O_2   0.156591 0.625292 0.622025 -0.539847
Zn1   Zn    Zn3+2 0.499980 0.500010 0.655740 0.965820
Zn2   Zn    Zn3+2 0.500020 0.499990 0.344260 0.999062
O13   O     O_3   0.935133 0.093882 0.556309 -0.623792
C45   C     C_3   0.909938 0.078324 0.688927 0.116784
H5    H     H_    0.885857 0.987633 0.692987 0.194894
H6    H     H_    0.877246 0.152986 0.709052 0.164859
C46   C     C_3   0.954632 0.073174 0.803271 -0.466955
H7    H     H_    0.989137 0.003121 0.781530 0.231657
H8    H     H_    0.975025 0.167630 0.810353 0.224314
C47   C     C_3   0.926364 0.037345 0.940583 -0.910650
H9    H     H_    0.892920 0.108907 0.966375 0.272212
H10   H     H_    0.959507 0.034230 0.020656 0.272405
H11   H     H_    0.906106 0.942361 0.938598 0.262587
O14   O     O_3   0.066254 0.733897 0.727045 -0.625140
C48   C     C_3   0.088007 0.695154 0.856409 0.158946
H12   H     H_    0.128214 0.749137 0.870820 0.190950
H13   H     H_    0.100281 0.592492 0.865447 0.121800
C49   C     C_3   0.045076 0.726117 0.970438 -0.451392
H14   H     H_    0.032504 0.828116 0.960526 0.240886
H15   H     H_    0.005871 0.667281 0.962476 0.221237
C50   C     C_3   0.071084 0.698800 0.110140 -0.893135
H16   H     H_    0.083363 0.596856 0.123168 0.267511
H17   H     H_    0.038877 0.721397 0.190441 0.275124
H18   H     H_    0.109839 0.758135 0.122499 0.263038
N5    N     N_3   0.546896 0.280971 0.904478 -0.452094
H19   H     H_    0.561056 0.224775 0.987631 0.160533
H20   H     H_    0.583541 0.307657 0.847313 0.195950
N6    N     N_3   0.452795 0.718153 0.093916 -0.432131
H21   H     H_    0.436970 0.771358 0.010379 0.171182
H22   H     H_    0.486348 0.770404 0.131015 0.238974
O15   O     O_3   0.435154 0.313874 0.121190 -0.628367
C51   C     C_3   0.420852 0.218370 0.031944 0.055810
H23   H     H_    0.451228 0.137082 0.048335 0.163042
H24   H     H_    0.423095 0.250512 0.922636 0.166391
C52   C     C_3   0.359291 0.174398 0.064078 -0.334050
H25   H     H_    0.354892 0.146736 0.173828 0.228732
H26   H     H_    0.328824 0.254263 0.041091 0.234063
C53   C     C_3   0.343343 0.061493 0.980993 -0.927645
H27   H     H_    0.348033 0.085988 0.870629 0.296876
H28   H     H_    0.297778 0.035161 0.003067 0.267656
H29   H     H_    0.371420 0.978490 0.007890 0.253136
O16   O     O_3   0.557420 0.701238 0.885818 -0.651190
C54   C     C_3   0.613404 0.672553 0.836449 0.152036
H30   H     H_    0.617095 0.710380 0.729646 0.153106
H31   H     H_    0.623369 0.569182 0.834348 0.140448
C55   C     C_3   0.658210 0.738783 0.919667 -0.424274
H32   H     H_    0.653007 0.843437 0.904403 0.220726
H33   H     H_    0.651209 0.713417 0.029194 0.239997
C56   C     C_3   0.719427 0.700432 0.877924 -0.892257
H34   H     H_    0.726235 0.596862 0.898380 0.259335
H35   H     H_    0.750992 0.752737 0.937225 0.269112
H36   H     H_    0.727207 0.723517 0.768121 0.278183
N7    N     N_3   0.390824 0.527992 0.901990 -0.441817
H37   H     H_    0.389055 0.616720 0.850290 0.220527
H38   H     H_    0.362450 0.532201 0.985282 0.188037
N8    N     N_3   0.608642 0.465922 0.102564 -0.448030
H39   H     H_    0.637064 0.445331 0.023104 0.151240
H40   H     H_    0.606390 0.382720 0.164246 0.227135
N9    N     N_3   0.052556 0.082947 0.494208 -0.361792
H41   H     H_    0.044060 0.017678 0.574873 0.210401
H42   H     H_    0.034227 0.049052 0.406824 0.215165
N10   N     N_3   0.948990 0.767774 0.690302 -0.381480
H43   H     H_    0.955823 0.786629 0.791651 0.191763
H44   H     H_    0.968632 0.838342 0.628002 0.225833
N11   N     N_3   0.196108 0.566503 0.318560 -0.441431
H45   H     H_    0.209752 0.542833 0.221148 0.177611
H46   H     H_    0.201228 0.664372 0.325953 0.199740
N12   N     N_3   0.777212 0.321799 0.736912 -0.466451
H47   H     H_    0.763421 0.228614 0.726511 0.187871
H48   H     H_    0.759333 0.353927 0.827410 0.175899
N13   N     N_3   0.341928 0.291207 0.683529 -0.436564
H49   H     H_    0.361605 0.345460 0.754929 0.233148
H50   H     H_    0.373519 0.249732 0.622344 0.183072
N14   N     N_3   0.688572 0.653191 0.319216 -0.482387
H51   H     H_    0.666829 0.604773 0.246306 0.232312
H52   H     H_    0.659173 0.712722 0.367289 0.158799
N15   N     N_3   0.223318 0.271780 0.716668 -0.436076
H53   H     H_    0.193391 0.322892 0.773614 0.173949
H54   H     H_    0.202233 0.196447 0.674104 0.225442
N16   N     N_3   0.809240 0.619868 0.345637 -0.436592
H55   H     H_    0.800438 0.716727 0.354047 0.219120
H56   H     H_    0.801321 0.596433 0.245728 0.197068
N17   N     N_3   0.466289 0.062353 0.759679 -0.446636
H57   H     H_    0.503141 0.083731 0.812881 0.201507
H58   H     H_    0.449745 0.979860 0.808049 0.213597
N18   N     N_3   0.536607 0.940072 0.239911 -0.461211
H59   H     H_    0.548072 0.024933 0.187737 0.196720
H60   H     H_    0.574043 0.884658 0.249041 0.173512
O17   O     O_3   0.396552 0.899603 0.574238 -0.647009
C57   C     C_3   0.360445 0.877480 0.464131 0.067933
H61   H     H_    0.338184 0.785935 0.487314 0.172873
H62   H     H_    0.384176 0.866466 0.365734 0.134956
C58   C     C_3   0.314871 0.983293 0.451301 -0.330042
H63   H     H_    0.291717 0.991677 0.550318 0.254737
H64   H     H_    0.335994 0.075549 0.425188 0.206474
C59   C     C_3   0.271212 0.956156 0.342649 -0.920990
H65   H     H_    0.293484 0.942696 0.243655 0.256379
H66   H     H_    0.240523 0.037289 0.331050 0.299119
H67   H     H_    0.246570 0.869168 0.372523 0.270173
O18   O     O_3   0.606364 0.106373 0.439090 -0.651066
C60   C     C_3   0.651617 0.015781 0.432762 0.078673
H68   H     H_    0.673969 0.029860 0.332613 0.165237
H69   H     H_    0.637205 0.915061 0.440644 0.104211
C61   C     C_3   0.694501 0.037488 0.545212 -0.368730
H70   H     H_    0.710774 0.136313 0.534184 0.253117
H71   H     H_    0.672351 0.024678 0.645807 0.207253
C62   C     C_3   0.745500 0.945162 0.538864 -0.859661
H72   H     H_    0.730244 0.845449 0.547533 0.254219
H73   H     H_    0.774951 0.961016 0.623979 0.268109
H74   H     H_    0.769847 0.960540 0.441493 0.279120

loop_
_geom_bond_atom_site_label_1
_geom_bond_atom_site_label_2
_ccdc_geom_bond_type
C38   C40   A    
C62   H72   S    
C60   H68   S    
C18   C21   S    
C41   C43   A    
C31   O9    S    
C36   C42   A    
O15   C51   S    
C26   O16   S    
N7    H38   S    
N9    H41   S    
C41   O13   S    
C50   H16   S    
C23   O7    A    
C62   H73   S    
C44   N10   S    
O2    Zn2   S    
C58   H63   S    
C47   H10   S    
O18   C60   S    
N17   H58   S    
N11   H45   S    
C45   C46   S    
O7    Zn2   S    
N9    H42   S    
C14   N1    S    
O16   C54   S    
C33   N1    A    
O4    Zn1   S    
C51   C52   S    
C13   N2    S    
C53   H29   S    
N13   H50   S    
N3    Zn1   S    
C1    O1    A    
C55   H32   S    
C8    C24   S    
N15   H53   S    
O6    Zn2   S    
C61   C62   S    
N17   H57   S    
C27   N3    S    
C45   H5    S    
C47   H11   S    
C51   H24   S    
C16   C22   S    
C54   H30   S    
N5    H20   S    
O1    Zn1   S    
C57   H62   S    
C3    C13   A    
C24   O8    A    
C56   H36   S    
C61   H71   S    
C24   O6    A    
C60   H69   S    
C27   C30   S    
C54   H31   S    
C30   N8    S    
C42   C44   A    
C31   N1    A    
C18   C20   S    
C34   O12   S    
N8    H40   S    
C50   H17   S    
C25   C29   S    
C15   C20   S    
C62   H74   S    
C34   N2    A    
C47   H9    S    
O13   C45   S    
C59   H67   S    
N13   H49   S    
C57   C58   S    
C4    C6    A    
C2    O2    A    
C5    C7    A    
O14   C48   S    
N12   H47   S    
C6    C8    A    
C5    H1    S    
C12   N16   S    
C59   H66   S    
C37   C38   A    
C4    N12   S    
C48   C49   S    
C22   O18   S    
C52   H25   S    
C33   O11   S    
C51   H23   S    
C40   C43   A    
N6    H22   S    
C28   N6    S    
C16   C18   S    
C53   H28   S    
C11   N15   S    
C55   C56   S    
C32   N2    A    
C57   H61   S    
C10   C12   A    
N12   H48   S    
C23   O5    A    
C9    N13   S    
N16   H56   S    
C61   H70   S    
C52   H26   S    
C12   C14   A    
O8    Zn1   S    
C42   O14   S    
C58   C59   S    
C49   H15   S    
C9    C11   A    
C28   N4    S    
C54   C55   S    
N18   H60   S    
C25   C27   S    
C20   C22   S    
C17   C19   S    
N5    H19   S    
C43   N9    S    
O3    Zn2   S    
N4    Zn2   S    
N8    H39   S    
C35   C37   A    
C48   H13   S    
C56   H34   S    
C29   N3    S    
C50   H18   S    
C15   C17   S    
C30   N4    S    
C28   C29   S    
C1    C20   S    
N10   H44   S    
C6    H2    S    
C19   C21   S    
C2    C19   S    
C3    N11   S    
C8    C10   A    
C17   H3    S    
O5    Zn1   S    
N16   H55   S    
C3    C5    A    
C18   H4    S    
C46   C47   S    
C25   O15   S    
C39   C44   A    
N14   H52   S    
C60   C61   S    
C49   C50   S    
C26   C28   S    
C17   C22   S    
C59   H65   S    
N15   H54   S    
C1    O3    A    
C25   N4    S    
C32   O10   S    
C46   H7    S    
C37   C39   A    
C2    O4    A    
C26   N3    S    
C15   N17   S    
C11   C13   A    
C29   N7    S    
N10   H43   S    
C7    C23   S    
C36   C38   A    
N6    H21   S    
C33   C35   A    
C31   C39   A    
C27   N5    S    
C34   C36   A    
C32   C40   A    
C4    C14   A    
C53   H27   S    
C35   C41   A    
C55   H33   S    
N14   H51   S    
C48   H12   S    
C7    C9    A    
C15   C21   S    
C52   C53   S    
C58   H64   S    
C49   H14   S    
C46   H8    S    
C45   H6    S    
C21   O17   S    
N18   H59   S    
C16   N18   S    
C10   N14   S    
C56   H35   S    
O17   C57   S    
N7    H37   S    
N11   H46   S    
C26   C30   S    
C16   C19   S    
