data_mof_unit_52250.cif
_audit_creation_date              2013-03-05T15:41:55-0500
_audit_creation_method            fapswitch 2.2
_symmetry_space_group_name_H-M    P1
_symmetry_Int_Tables_number       1
_space_group_crystal_system       triclinic
_cell_length_a                    25.07513
_cell_length_b                    16.804697
_cell_length_c                    15.729189
_cell_angle_alpha                 90.019817
_cell_angle_beta                  49.260445
_cell_angle_gamma                 90.008818
_cell_volume                      5021.90255551

loop_
_atom_site_label
_atom_site_type_symbol
_atom_site_description
_atom_site_fract_x
_atom_site_fract_y
_atom_site_fract_z
_atom_type_partial_charge
C1    C     C_R   0.358034 0.151720 0.744669 0.014299
C2    C     C_R   0.643616 0.849498 0.252311 -0.033343
C3    C     C_R   0.666553 0.109419 0.195439 -0.012213
C4    C     C_R   0.360364 0.846701 0.740092 0.006726
C5    C     C_R   0.832826 0.607962 0.805264 -0.011990
C6    C     C_R   0.166432 0.389635 0.196035 -0.062996
C7    C     C_R   0.167168 0.608432 0.195099 -0.045523
C8    C     C_R   0.852881 0.352407 0.754670 -0.031267
H1    H     H_    0.320089 0.175284 0.740349 0.145902
H2    H     H_    0.687202 0.830470 0.245609 0.142474
H3    H     H_    0.719469 0.103400 0.163579 0.168469
H4    H     H_    0.321498 0.823767 0.737536 0.140916
H5    H     H_    0.780137 0.601099 0.836395 0.170506
H6    H     H_    0.219240 0.394490 0.164630 0.162331
H7    H     H_    0.219765 0.602015 0.164203 0.158318
H8    H     H_    0.808931 0.333878 0.761969 0.144582
N1    N     N_R   0.389620 0.081040 0.705440 -0.043199
N2    N     N_R   0.610380 0.918960 0.294560 -0.047996
N3    N     N_R   0.610380 0.081040 0.294560 -0.065545
N4    N     N_R   0.389620 0.918960 0.705440 -0.040353
N5    N     N_R   0.889620 0.581040 0.705440 -0.065483
N6    N     N_R   0.110380 0.418960 0.294560 -0.067273
N7    N     N_R   0.110380 0.581040 0.294560 -0.067354
N8    N     N_R   0.889620 0.418960 0.705440 -0.049413
C9    C     C_R   0.593115 0.144440 0.592050 -0.195848
C10   C     C_R   0.385098 0.893756 0.407912 -0.170639
C11   C     C_R   0.386168 0.105184 0.406232 -0.135369
C12   C     C_R   0.615469 0.893257 0.590990 -0.161692
C13   C     C_R   0.086691 0.649274 0.592391 -0.167050
C14   C     C_R   0.885466 0.393549 0.407780 -0.120912
C15   C     C_R   0.914126 0.649137 0.406480 -0.159882
C16   C     C_R   0.094221 0.355492 0.590536 -0.165015
H9    H     H_    0.573920 0.153727 0.675586 0.134907
H10   H     H_    0.407041 0.894688 0.321669 0.127413
H11   H     H_    0.409648 0.105623 0.319181 0.124185
H12   H     H_    0.594008 0.893909 0.676974 0.128919
H13   H     H_    0.058180 0.664745 0.679120 0.138652
H14   H     H_    0.908136 0.392854 0.321138 0.124180
H15   H     H_    0.942559 0.663734 0.319539 0.139293
H16   H     H_    0.074172 0.344608 0.674286 0.130995
N9    N     N_R   0.582320 0.079840 0.556630 -0.070159
N10   N     N_R   0.417680 0.920160 0.443370 -0.070513
N11   N     N_R   0.417680 0.079840 0.443370 -0.067494
N12   N     N_R   0.582320 0.920160 0.556630 -0.070201
N13   N     N_R   0.082320 0.579840 0.556630 -0.067071
N14   N     N_R   0.917680 0.420160 0.443370 -0.066164
N15   N     N_R   0.917680 0.579840 0.443370 -0.074427
N16   N     N_R   0.082320 0.420160 0.556630 -0.064760
C17   C     C_R   0.665127 0.146270 0.406122 0.346467
C18   C     C_R   0.309196 0.896627 0.593729 0.288248
C19   C     C_R   0.309076 0.100947 0.592065 0.296773
C20   C     C_R   0.690744 0.896671 0.405062 0.322574
C21   C     C_R   0.164237 0.646669 0.405492 0.347819
C22   C     C_R   0.809328 0.397864 0.594059 0.329090
C23   C     C_R   0.837713 0.648395 0.592823 0.323037
C24   C     C_R   0.168185 0.356665 0.403807 0.340393
N17   N     N_R   0.627920 0.078930 0.443400 -0.097613
N18   N     N_R   0.372080 0.921070 0.556600 -0.103484
N19   N     N_R   0.372080 0.078930 0.556600 -0.102512
N20   N     N_R   0.627920 0.921070 0.443400 -0.096932
N21   N     N_R   0.127920 0.578930 0.443400 -0.090496
N22   N     N_R   0.872080 0.421070 0.556600 -0.094632
N23   N     N_R   0.872080 0.578930 0.556600 -0.094208
N24   N     N_R   0.127920 0.421070 0.443400 -0.088378
C25   C     C_R   0.577300 0.108768 0.197501 -0.080547
C26   C     C_R   0.444529 0.853743 0.750420 -0.086619
C27   C     C_R   0.437252 0.141235 0.765149 -0.088195
C28   C     C_R   0.556798 0.854399 0.247176 -0.092882
C29   C     C_R   0.079070 0.606353 0.194995 -0.118255
C30   C     C_R   0.935965 0.360023 0.767774 -0.102436
C31   C     C_R   0.921252 0.606535 0.804664 -0.113233
C32   C     C_R   0.077529 0.391182 0.197279 -0.085570
H17   H     H_    0.548299 0.105352 0.168601 0.112019
H18   H     H_    0.480335 0.839044 0.764117 0.119157
H19   H     H_    0.464185 0.150741 0.796394 0.112438
H20   H     H_    0.520689 0.839013 0.234327 0.119902
H21   H     H_    0.051200 0.601175 0.164281 0.112615
H22   H     H_    0.964150 0.349728 0.796703 0.110755
H23   H     H_    0.949397 0.601699 0.834936 0.118577
H24   H     H_    0.048788 0.394925 0.167949 0.108711
N25   N     N_R   0.555090 0.077730 0.294590 -0.055879
N26   N     N_R   0.444910 0.922270 0.705410 -0.056832
N27   N     N_R   0.444910 0.077730 0.705410 -0.055644
N28   N     N_R   0.555090 0.922270 0.294590 -0.059021
N29   N     N_R   0.055090 0.577730 0.294590 -0.052265
N30   N     N_R   0.944910 0.422270 0.705410 -0.055268
N31   N     N_R   0.944910 0.577730 0.705410 -0.054588
N32   N     N_R   0.055090 0.422270 0.294590 -0.052450
C33   C     C_R   0.386125 0.190730 0.784486 0.078576
C34   C     C_R   0.611012 0.807112 0.222003 0.093117
C35   C     C_R   0.647696 0.127211 0.132562 0.082670
C36   C     C_R   0.392374 0.804832 0.771630 0.074546
C37   C     C_R   0.850728 0.624657 0.869549 0.088573
C38   C     C_R   0.147887 0.372219 0.132686 0.102559
C39   C     C_R   0.149600 0.624785 0.130367 0.109823
C40   C     C_R   0.881812 0.312950 0.792926 0.099419
C41   C     C_R   0.642389 0.189370 0.499079 0.031748
C42   C     C_R   0.316672 0.878882 0.501065 0.003659
C43   C     C_R   0.317446 0.117423 0.498357 -0.013291
C44   C     C_R   0.683896 0.878032 0.496915 0.002302
C45   C     C_R   0.138477 0.692823 0.498264 0.025923
C46   C     C_R   0.816857 0.380122 0.501359 -0.018601
C47   C     C_R   0.863368 0.693823 0.499540 0.022906
C48   C     C_R   0.145595 0.312614 0.495799 0.003644
Ni1   Ni    Ni4+2 0.382970 0.000000 0.629840 0.340353
Ni2   Ni    Ni4+2 0.617030 0.000000 0.370160 0.310719
Ni3   Ni    Ni4+2 0.882970 0.500000 0.629840 0.313772
Ni4   Ni    Ni4+2 0.117030 0.500000 0.370160 0.293620
Ni5   Ni    Ni4+2 0.514540 0.000000 0.629840 0.226204
Ni6   Ni    Ni4+2 0.485460 0.000000 0.370160 0.206278
Ni7   Ni    Ni4+2 0.014540 0.500000 0.629840 0.227451
Ni8   Ni    Ni4+2 0.985460 0.500000 0.370160 0.211424
C49   C     C_3   0.288061 0.195079 0.388629 -0.207803
C50   C     C_3   0.719206 0.809381 0.604548 -0.211335
C51   C     C_3   0.665133 0.282465 0.607115 -0.217244
C52   C     C_3   0.283289 0.806538 0.392725 -0.216248
C53   C     C_3   0.839212 0.785236 0.390082 -0.190895
C54   C     C_3   0.165625 0.213988 0.602161 -0.199000
C55   C     C_3   0.161142 0.787845 0.606616 -0.197228
C56   C     C_3   0.783350 0.310124 0.392393 -0.212813
C57   C     C_3   0.809966 0.868265 0.447572 -0.197743
C58   C     C_3   0.194961 0.132954 0.539024 -0.193924
C59   C     C_3   0.192446 0.869285 0.544919 -0.209536
C60   C     C_3   0.757508 0.227129 0.448465 -0.240484
C61   C     C_3   0.259102 0.275510 0.451851 -0.228000
C62   C     C_3   0.748007 0.727204 0.546733 -0.249916
C63   C     C_3   0.691472 0.366171 0.551252 -0.206245
C64   C     C_3   0.252509 0.725919 0.454576 -0.244873
H25   H     H_    0.833681 0.927331 0.409610 0.203726
H26   H     H_    0.170270 0.073485 0.571175 0.187186
H27   H     H_    0.169233 0.929070 0.579285 0.187849
H28   H     H_    0.784082 0.169313 0.409016 0.203071
H29   H     H_    0.284369 0.334744 0.418582 0.200504
H30   H     H_    0.722835 0.668576 0.584511 0.202081
H31   H     H_    0.666234 0.424490 0.590547 0.198810
H32   H     H_    0.276803 0.666418 0.420136 0.202177
H33   H     H_    0.337617 0.186293 0.300916 0.186710
H34   H     H_    0.670662 0.819847 0.692671 0.185546
H35   H     H_    0.617001 0.271065 0.695263 0.187683
H36   H     H_    0.332698 0.814953 0.304781 0.181296
H37   H     H_    0.888058 0.774909 0.302166 0.191771
H38   H     H_    0.115692 0.222097 0.689697 0.185659
H39   H     H_    0.111345 0.779762 0.694285 0.191173
H40   H     H_    0.831028 0.322537 0.304257 0.180318
C65   C     C_3   0.735816 0.840860 0.497392 -0.040306
C66   C     C_3   0.268207 0.157634 0.495486 -0.036258
C67   C     C_3   0.265464 0.841124 0.499465 -0.022230
C68   C     C_3   0.682255 0.250310 0.499909 -0.044714
C69   C     C_3   0.185709 0.251821 0.495537 -0.051597
C70   C     C_3   0.822457 0.753461 0.497221 -0.045714
C71   C     C_3   0.766411 0.341733 0.499752 -0.023239
C72   C     C_3   0.179105 0.752933 0.500001 -0.043669
C73   C     C_3   0.214063 0.172672 0.434082 0.411760
C74   C     C_3   0.793942 0.834447 0.553319 0.422231
C75   C     C_3   0.740294 0.260001 0.553983 0.420653
C76   C     C_3   0.209588 0.832389 0.439820 0.413678
C77   C     C_3   0.764831 0.759926 0.441449 0.416709
C78   C     C_3   0.239135 0.236977 0.556710 0.414167
C79   C     C_3   0.234502 0.761689 0.559366 0.420558
C80   C     C_3   0.707699 0.332108 0.445497 0.424437
H41   H     H_    0.297456 0.703810 0.803968 0.171823
H42   H     H_    0.787463 0.107333 0.981688 0.152997
H43   H     H_    0.702595 0.704746 0.195949 0.172714
H44   H     H_    0.298873 0.296603 0.803151 0.176428
H45   H     H_    0.799185 0.205492 0.803662 0.176538
H46   H     H_    0.291033 0.612862 0.982919 0.144403
H47   H     H_    0.288019 0.391661 0.982714 0.143793
H48   H     H_    0.709779 0.610909 0.018034 0.151353
C81   C     C_2   0.696007 0.148624 0.013607 -0.157130
C82   C     C_2   0.368762 0.727870 0.830089 -0.154051
C83   C     C_2   0.361295 0.266517 0.845210 -0.160808
C84   C     C_2   0.634512 0.730274 0.163792 -0.163715
C85   C     C_2   0.199050 0.645267 0.010539 -0.156029
C86   C     C_2   0.856861 0.237522 0.853772 -0.173095
C87   C     C_2   0.801736 0.645400 0.989131 -0.155195
C88   C     C_2   0.196689 0.351241 0.013391 -0.152549
C89   C     C_2   0.765568 0.139400 0.950818 -0.062925
C90   C     C_2   0.315762 0.688109 0.848006 -0.056513
C91   C     C_2   0.313559 0.310192 0.852886 -0.058866
C92   C     C_2   0.685434 0.689103 0.150163 -0.054410
C93   C     C_2   0.268965 0.640097 0.949391 -0.103815
C94   C     C_2   0.812145 0.192075 0.855839 -0.055227
C95   C     C_2   0.731909 0.639385 0.050789 -0.066035
C96   C     C_2   0.266307 0.360476 0.950940 -0.105399
H49   H     H_    0.385977 0.711623 0.875767 0.161554
H50   H     H_    0.675017 0.181284 0.981426 0.173787
H51   H     H_    0.618225 0.714252 0.116710 0.164731
H52   H     H_    0.374424 0.280435 0.897185 0.166130
H53   H     H_    0.868642 0.223971 0.907603 0.168403
H54   H     H_    0.177936 0.672813 0.975414 0.177660
H55   H     H_    0.175904 0.319691 0.980122 0.179173
H56   H     H_    0.822973 0.674320 0.023308 0.174144
N33   N     N_R   0.731437 0.156758 0.295715 0.204770
O1    O     O_R   0.748734 0.225658 0.246524 -0.384200
O2    O     O_R   0.778484 0.100736 0.250382 -0.357935
N34   N     N_R   0.243829 0.905688 0.707413 0.247447
O3    O     O_R   0.183647 0.897561 0.731905 -0.348143
O4    O     O_R   0.243440 0.925732 0.787505 -0.341186
N35   N     N_R   0.242914 0.089710 0.704240 0.249112
O5    O     O_R   0.184180 0.087045 0.723203 -0.355189
O6    O     O_R   0.240525 0.077725 0.788153 -0.339801
N36   N     N_R   0.755028 0.910588 0.292306 0.239693
O7    O     O_R   0.815108 0.884851 0.257983 -0.361661
O8    O     O_R   0.753798 0.949861 0.222403 -0.384040
N37   N     N_R   0.232501 0.654259 0.296989 0.205360
O9    O     O_R   0.254139 0.722343 0.245277 -0.379927
O10   O     O_R   0.274454 0.593134 0.250929 -0.375992
N38   N     N_R   0.744853 0.412697 0.706244 0.237961
O11   O     O_R   0.685037 0.385460 0.741101 -0.371087
O12   O     O_R   0.745749 0.453772 0.775355 -0.389208
N39   N     N_R   0.771555 0.660903 0.702712 0.205112
O13   O     O_R   0.756948 0.729476 0.751825 -0.377302
O14   O     O_R   0.722714 0.606948 0.748689 -0.363287
N40   N     N_R   0.236834 0.353267 0.295292 0.205412
O15   O     O_R   0.262618 0.286284 0.241409 -0.381758
O16   O     O_R   0.274272 0.417784 0.249993 -0.372963
N41   N     N_R   0.197356 0.137951 0.369107 0.269060
O17   O     O_R   0.247511 0.115956 0.265803 -0.293398
O18   O     O_R   0.132119 0.124975 0.416207 -0.329515
N42   N     N_R   0.812466 0.875461 0.612423 0.263662
O19   O     O_R   0.763451 0.901777 0.713823 -0.327141
O20   O     O_R   0.878141 0.889867 0.561505 -0.328764
N43   N     N_R   0.759523 0.219654 0.612711 0.236281
O21   O     O_R   0.711292 0.199934 0.717626 -0.379573
O22   O     O_R   0.824861 0.201069 0.559331 -0.381886
N44   N     N_R   0.194430 0.872417 0.375587 0.267031
O23   O     O_R   0.226821 0.938245 0.323157 -0.321876
O24   O     O_R   0.145445 0.845724 0.376329 -0.319788
N45   N     N_R   0.747414 0.718128 0.381085 0.239384
O25   O     O_R   0.796678 0.699208 0.276108 -0.372830
O26   O     O_R   0.682669 0.697605 0.432993 -0.392590
N46   N     N_R   0.254043 0.273183 0.623541 0.233104
O27   O     O_R   0.203273 0.286909 0.729840 -0.386652
O28   O     O_R   0.318047 0.293737 0.576370 -0.400831
N47   N     N_R   0.249525 0.721940 0.624106 0.235639
O29   O     O_R   0.198944 0.706667 0.729975 -0.380339
O30   O     O_R   0.313472 0.700032 0.575514 -0.403343
N48   N     N_R   0.688125 0.372488 0.387449 0.262473
O31   O     O_R   0.716419 0.440754 0.339460 -0.341632
O32   O     O_R   0.638640 0.343869 0.390672 -0.346223

loop_
_geom_bond_atom_site_label_1
_geom_bond_atom_site_label_2
_geom_bond_distance
_ccdc_geom_bond_type
C48   C69   1.431912 S    
N5    N31   1.387218 A    
C27   N27   1.350009 A    
C1    C33   1.376070 A    
N14   Ni8   1.860267 S    
C2    N2    1.332531 A    
C55   H39   1.109860 S    
C38   C88   1.464680 S    
C29   H21   1.081649 S    
N43   O21   1.300384 A    
C8    C40   1.377739 A    
N29   Ni8   1.859865 S    
C67   C79   1.522557 S    
C86   C94   1.339288 D    
C31   H23   1.081686 S    
C28   N28   1.347810 A    
C77   N45   1.458178 S    
N6    Ni4   1.885230 S    
C28   C34   1.390617 A    
N37   O9    1.299792 A    
C8    N8    1.329766 A    
C60   C68   1.540858 S    
C11   C43   1.360954 A    
N19   Ni1   1.890179 S    
N36   O8    1.300081 A    
C83   H52   1.087476 S    
N14   N22   1.349660 A    
H45   C94   1.085484 S    
C31   C37   1.380513 A    
C56   H40   1.109732 S    
C63   H31   1.110045 S    
C81   H50   1.087436 S    
N4    Ni1   1.885861 S    
N4    N26   1.387201 A    
C64   H32   1.110593 S    
C54   C58   1.558069 S    
C50   C62   1.548491 S    
N40   O16   1.300616 A    
N16   N24   1.349671 A    
C30   H22   1.075319 S    
C42   C67   1.447035 S    
C84   H51   1.087330 S    
C61   H29   1.110628 S    
N15   Ni8   1.860070 S    
C6    N6    1.332895 A    
C23   C47   1.384955 A    
C85   H54   1.087133 S    
C27   C33   1.385305 A    
C25   H17   1.081774 S    
C60   H28   1.110446 S    
C3    C35   1.379034 A    
C68   C80   1.522125 S    
C2    C34   1.382505 A    
N21   Ni4   1.889559 S    
C69   C73   1.520307 S    
H42   C89   1.084334 S    
C53   C57   1.560819 S    
C20   N20   1.331728 A    
C47   C70   1.451644 S    
C63   C71   1.539188 S    
C75   N43   1.458553 S    
C10   H10   1.081187 S    
C72   C76   1.522936 S    
C36   C82   1.469257 S    
N38   O11   1.298612 A    
C6    C38   1.378173 A    
C23   N23   1.337506 A    
C21   N37   1.430385 S    
N47   O29   1.300365 A    
C24   N24   1.325820 A    
C3    N3    1.332722 A    
C53   C70   1.542072 S    
N11   Ni6   1.860070 S    
C71   C75   1.521299 S    
C4    H4    1.072823 S    
C5    H5    1.074329 S    
C92   C95   1.456423 S    
N11   N19   1.349670 A    
C46   C71   1.434691 S    
N44   O24   1.300467 A    
C32   C38   1.380817 A    
N12   Ni5   1.860070 S    
C84   C92   1.340885 D    
N10   Ni6   1.860267 S    
C7    H7    1.072702 S    
N17   Ni2   1.889559 S    
C51   C63   1.558863 S    
C85   C93   1.343588 D    
N35   O5    1.298681 A    
C8    H8    1.076776 S    
C49   C61   1.549178 S    
C15   N15   1.329940 A    
N47   O30   1.300466 A    
N10   N18   1.349660 A    
H46   C93   1.083933 S    
C18   N34   1.442767 S    
C22   N38   1.437299 S    
C81   C89   1.339149 D    
N42   O19   1.300399 A    
C32   N32   1.344520 A    
C20   N36   1.437783 S    
C64   C72   1.545280 S    
N24   Ni4   1.890177 S    
C19   N19   1.339296 A    
C59   C76   1.540750 S    
N37   O10   1.300650 A    
C19   C43   1.374670 A    
C53   H37   1.109829 S    
N48   O32   1.300475 A    
C54   H38   1.109860 S    
C18   C42   1.375337 A    
C57   C74   1.542476 S    
C35   C81   1.462771 S    
C53   C77   1.531477 S    
C73   N41   1.455615 S    
C18   N18   1.339454 A    
N26   Ni5   1.859864 S    
C1    H1    1.072951 S    
C33   C83   1.464616 S    
N34   O4    1.297799 A    
N36   O7    1.298666 A    
C9    N9    1.326071 A    
C87   H56   1.087260 S    
C88   C96   1.340987 D    
N40   O15   1.299118 A    
C88   H55   1.087294 S    
C26   C36   1.388357 A    
N22   Ni3   1.889561 S    
C22   N22   1.328539 A    
N33   O2    1.299355 A    
N41   O17   1.300373 A    
C17   C41   1.377956 A    
C51   C68   1.540866 S    
C12   N12   1.331937 A    
N28   Ni6   1.859664 S    
C19   N35   1.442424 S    
N8    N30   1.387201 A    
C13   N13   1.330366 A    
N1    N27   1.387218 A    
C5    N5    1.333888 A    
C15   C47   1.376314 A    
C49   C66   1.541841 S    
C54   C69   1.539062 S    
C30   C40   1.387403 A    
N2    Ni2   1.885230 S    
N45   O25   1.300368 A    
N1    Ni1   1.885230 S    
C6    H6    1.072517 S    
C26   H18   1.079876 S    
C65   C77   1.522259 S    
C25   N25   1.343392 A    
N39   O13   1.299636 A    
C15   H15   1.079895 S    
N45   O26   1.300451 A    
C44   C65   1.448530 S    
C62   H30   1.110327 S    
H48   C95   1.084111 S    
C11   H11   1.081329 S    
C14   C46   1.368237 A    
C16   C48   1.375923 A    
C13   C45   1.380153 A    
N8    Ni3   1.885861 S    
N25   Ni6   1.859865 S    
C89   C94   1.450058 S    
C24   C48   1.375985 A    
N5    Ni3   1.885230 S    
H44   C91   1.084266 S    
C80   N48   1.456210 S    
C10   C42   1.368212 A    
C31   N31   1.346948 A    
C50   H34   1.109754 S    
C9    C41   1.370142 A    
N39   O14   1.299639 A    
C43   C66   1.433925 S    
C59   C67   1.542358 S    
N44   O23   1.299838 A    
N6    N32   1.387221 A    
N7    N29   1.387204 A    
C13   H13   1.080051 S    
C41   C68   1.436977 S    
C57   C65   1.543196 S    
C54   C78   1.529062 S    
C27   H19   1.075327 S    
C52   C64   1.548583 S    
C21   N21   1.331179 A    
C30   N30   1.349146 A    
C16   H16   1.075748 S    
C29   N29   1.348302 A    
C10   N10   1.330375 A    
C87   C95   1.341675 D    
C91   C96   1.452874 S    
C40   C86   1.460523 S    
C62   C77   1.520349 S    
C76   N44   1.455827 S    
C55   C72   1.540382 S    
C25   C35   1.379103 A    
N48   O31   1.300187 A    
C57   H25   1.110033 S    
C56   C71   1.541901 S    
C78   N46   1.458528 S    
C59   H27   1.108831 S    
N46   O28   1.300498 A    
C61   C78   1.520895 S    
C24   N40   1.429938 S    
C22   C46   1.375135 A    
C50   C65   1.542201 S    
C49   C73   1.537624 S    
N34   O3    1.298293 A    
C29   C39   1.382224 A    
C52   C67   1.541538 S    
C5    C37   1.376536 A    
N43   O22   1.300461 A    
C66   C78   1.523058 S    
N20   Ni2   1.890177 S    
C55   C59   1.561159 S    
C52   H36   1.109767 S    
C28   H20   1.079948 S    
C58   H26   1.108727 S    
C7    C39   1.375470 A    
N27   Ni5   1.859664 S    
C45   C72   1.447414 S    
C21   C45   1.384642 A    
C14   N14   1.325056 A    
N42   O20   1.300195 A    
N18   Ni1   1.889561 S    
C79   N47   1.458167 S    
C83   C91   1.340738 D    
N30   Ni7   1.859864 S    
C51   C75   1.528759 S    
N9    N17   1.349661 A    
N2    N28   1.387221 A    
C32   H24   1.081766 S    
N38   O12   1.300003 A    
N3    N25   1.387204 A    
N13   Ni7   1.860267 S    
N32   Ni8   1.859664 S    
N15   N23   1.349670 A    
C62   C70   1.545525 S    
C12   C44   1.372951 A    
C16   N16   1.327662 A    
C17   N33   1.429264 S    
N12   N20   1.349671 A    
C7    N7    1.334027 A    
N7    Ni4   1.885861 S    
C82   H49   1.087242 S    
N13   N21   1.349661 A    
N46   O27   1.300385 A    
C58   C73   1.538915 S    
C37   C87   1.467048 S    
C49   H33   1.109765 S    
C58   C66   1.540294 S    
C39   C85   1.469126 S    
N41   O18   1.300195 A    
C61   C69   1.538465 S    
N35   O6    1.297403 A    
C52   C76   1.538179 S    
C90   C93   1.459152 S    
C3    H3    1.074279 S    
C56   C60   1.548411 S    
C86   H53   1.087512 S    
C23   N39   1.428636 S    
C4    N4    1.337176 A    
N3    Ni2   1.885861 S    
C11   N11   1.322771 A    
C17   N17   1.334515 A    
N16   Ni7   1.860070 S    
N31   Ni7   1.859664 S    
C1    N1    1.334426 A    
C12   H12   1.081151 S    
C55   C79   1.531313 S    
N33   O1    1.299934 A    
C70   C74   1.522496 S    
C60   C75   1.520022 S    
C34   C84   1.465627 S    
H43   C92   1.084999 S    
C56   C80   1.537680 S    
C20   C44   1.375284 A    
C74   N42   1.455393 S    
N9    Ni5   1.860267 S    
C14   H14   1.081356 S    
C4    C36   1.380411 A    
H41   C90   1.084112 S    
C51   H35   1.109803 S    
N23   Ni3   1.890179 S    
C63   C80   1.541503 S    
C50   C74   1.538717 S    
H47   C96   1.084288 S    
C26   N26   1.348758 A    
C64   C79   1.519856 S    
C9    H9    1.075599 S    
C82   C90   1.342765 D    
C2    H2    1.075889 S    
