data_mof_unit_33324.cif
_audit_creation_date              2012-12-10T20:58:06-0500
_audit_creation_method            fapswitch 2.2
_symmetry_space_group_name_H-M    P1
_symmetry_Int_Tables_number       1
_space_group_crystal_system       triclinic
_cell_length_a                    18.196346
_cell_length_b                    18.26364
_cell_length_c                    18.440475
_cell_angle_alpha                 120.297929
_cell_angle_beta                  90.045059
_cell_angle_gamma                 119.904123
_cell_volume                      4318.35686461

loop_
_atom_site_label
_atom_site_type_symbol
_atom_type_description
_atom_site_fract_x
_atom_site_fract_y
_atom_site_fract_z
_atom_type_partial_charge
C1    C     C_R   0.360561 0.220262 0.360687 0.798355
C2    C     C_3   0.796824 0.941329 0.693268 0.393286
C3    C     C_3   0.274797 0.092319 0.534564 0.105264
C4    C     C_3   0.179686 0.021853 0.529374 -0.812239
C5    C     C_3   0.222791 0.270379 0.139466 -0.242624
C6    C     C_3   0.067513 0.876726 0.701135 0.077723
C7    C     C_3   0.116388 0.992968 0.748868 -0.841166
C8    C     C_3   0.434288 0.960970 0.704994 0.081623
C9    C     C_3   0.437707 0.021152 0.669285 -0.865630
C10   C     C_3   0.442916 0.825640 0.909228 0.083866
C11   C     C_3   0.520046 0.861381 0.979669 -0.831704
C12   C     C_3   0.123006 0.673286 0.593055 -0.327228
C13   C     C_3   0.699094 0.897445 0.696372 -0.005191
C14   C     C_3   0.389171 0.764390 0.485765 -0.208746
C15   C     C_R   0.640994 0.780925 0.638719 0.849661
C16   C     C_3   0.799242 0.102260 0.801050 -0.021830
C17   C     C_3   0.765357 0.058635 0.857066 0.259581
C18   C     C_3   0.854055 0.061490 0.751833 -0.391787
C19   C     C_3   0.641082 0.400509 0.203661 -0.452118
C20   C     C_3   0.701131 0.397634 0.144660 0.267128
C21   C     C_3   0.739502 0.596208 0.301576 -0.407166
C22   C     C_3   0.774371 0.496936 0.335196 -0.434005
C23   C     C_3   0.292724 0.593373 0.360011 0.323354
C24   C     C_3   0.697644 0.498381 0.301145 0.087989
C25   C     C_3   0.799492 0.497886 0.200410 0.072940
C26   C     C_3   0.795901 0.593424 0.238811 -0.469490
C27   C     C_R   0.360253 0.501565 0.641648 0.819509
C28   C     C_3   0.838474 0.503358 0.279976 0.375909
C29   C     C_R   0.560463 0.218490 0.480675 -0.116200
C30   C     C_R   0.486213 0.167142 0.408474 -0.213043
C31   C     C_R   0.398189 0.104796 0.405326 0.033092
C32   C     C_R   0.385474 0.094669 0.476143 0.518774
C33   C     C_R   0.460962 0.145337 0.547640 -0.251744
C34   C     C_3   0.300928 0.500766 0.301518 -0.079052
C35   C     C_R   0.547871 0.207327 0.550008 -0.170869
C36   C     C_R   0.261916 0.944485 0.274763 -0.173058
C37   C     C_R   0.192033 0.892311 0.197888 -0.072103
C38   C     C_R   0.178204 0.947992 0.174110 -0.006455
C39   C     C_R   0.640643 0.499573 0.359214 0.793276
C40   C     C_R   0.236530 0.055782 0.227699 -0.251838
C41   C     C_R   0.306111 0.107872 0.304603 -0.064233
C42   C     C_R   0.320147 0.052388 0.328465 0.030153
C43   C     C_R   0.115823 0.914413 0.030987 -0.147326
C44   C     C_R   0.042967 0.866453 0.958851 -0.147977
C45   C     C_3   0.198326 0.500715 0.200336 -0.007619
C46   C     C_R   0.955051 0.801289 0.952663 -0.091087
C47   C     C_R   0.939802 0.783852 0.018396 -0.126090
C48   C     C_R   0.012315 0.831451 0.090518 -0.130143
C49   C     C_R   0.101071 0.896670 0.097132 0.153184
C50   C     C_R   0.881038 0.550750 0.525762 -0.238712
C51   C     C_R   0.641885 0.500089 0.640088 0.806929
C52   C     C_R   0.834717 0.513351 0.572427 -0.153642
C53   C     C_R   0.834254 0.581356 0.654788 0.087292
C54   C     C_R   0.881657 0.687405 0.691024 -0.178333
C55   C     C_R   0.929656 0.725615 0.645132 0.522205
C56   C     C_3   0.144768 0.394850 0.187569 -0.614309
C57   C     C_R   0.926939 0.656065 0.561035 -0.270514
C58   C     C_R   0.838526 0.540914 0.760816 -0.256548
C59   C     C_R   0.799979 0.502940 0.810002 -0.055424
C60   C     C_R   0.709957 0.466781 0.805286 -0.033244
C61   C     C_R   0.659645 0.466158 0.748394 -0.257278
C62   C     C_R   0.698095 0.502939 0.698195 -0.048641
C63   C     C_R   0.358331 0.500387 0.359275 0.855368
C64   C     C_R   0.788961 0.542388 0.705737 -0.006189
C65   C     C_R   0.605916 0.327421 0.823391 -0.116657
C66   C     C_R   0.559253 0.295981 0.873543 -0.159556
C67   C     C_3   0.227077 0.587665 0.300749 -0.404441
C68   C     C_R   0.571946 0.370141 0.960361 -0.136871
C69   C     C_R   0.632804 0.475914 0.997996 -0.148342
C70   C     C_R   0.680241 0.507664 0.948401 -0.146493
C71   C     C_R   0.666729 0.433491 0.860665 0.165413
C72   C     C_R   0.401891 0.821134 0.746537 -0.492435
C73   C     C_R   0.383541 0.746289 0.761215 0.508538
C74   C     C_R   0.301917 0.646782 0.708474 -0.017813
C75   C     C_3   0.343997 0.517053 0.233396 -0.415197
C76   C     C_R   0.239653 0.623322 0.642110 -0.425193
C77   C     C_R   0.256410 0.699073 0.629600 0.522853
C78   C     C_3   0.659702 0.939498 0.665600 -0.432736
C79   C     C_R   0.337448 0.798958 0.681498 0.393890
C80   C     C_R   0.220615 0.564667 0.779583 -0.286189
C81   C     C_R   0.196510 0.499075 0.806546 -0.059991
C82   C     C_R   0.229778 0.437215 0.781715 -0.008392
C83   C     C_R   0.283112 0.440150 0.728077 -0.272919
C84   C     C_R   0.306081 0.504846 0.700108 -0.029859
C85   C     C_R   0.276487 0.570236 0.728580 0.097199
C86   C     C_R   0.283668 0.410010 0.884127 -0.171523
C87   C     C_3   0.284635 0.519201 0.174909 0.411110
C88   C     C_R   0.269629 0.351484 0.916902 -0.158043
C89   C     C_3   0.715786 0.059944 0.729545 0.331737
C90   C     C_R   0.187450 0.255373 0.879079 -0.096032
C91   C     C_R   0.119943 0.216400 0.806929 -0.117240
C92   C     C_R   0.133776 0.274523 0.773698 -0.102728
C93   C     C_R   0.215145 0.372827 0.813600 0.153624
C94   C     C_R   0.856997 0.498937 0.142821 0.775279
C95   C     C_R   0.138957 0.499702 0.861903 0.793282
C96   C     C_R   0.856841 0.219014 0.861301 0.863203
C97   C     C_R   0.137367 0.779814 0.141608 0.783626
C98   C     C_R   0.855917 0.501590 0.863956 0.805478
C99   C     C_3   0.202976 0.397451 0.251762 0.353408
C100  C     C_3   0.702898 0.937925 0.794206 -0.580684
C101  C     C_R   0.140019 0.500291 0.142885 0.850000
C102  C     C_3   0.681077 0.114208 0.652903 -0.314280
C103  C     C_3   0.863868 0.888747 0.588795 -0.261362
C104  C     C_3   0.822983 0.106239 0.998334 0.087650
C105  C     C_3   0.895373 0.118569 0.054069 -0.802104
C106  C     C_3   0.631184 0.223736 0.026334 0.120121
C107  C     C_3   0.608622 0.122381 0.007460 -0.885627
C108  C     C_3   0.366539 0.612240 0.118718 -0.347965
C109  C     C_3   0.991221 0.586264 0.351103 0.079821
C110  C     C_3   0.082155 0.691589 0.402664 -0.738199
H1    H     H_    0.355512 0.457005 0.190744 0.117457
H2    H     H_    0.826297 0.917033 0.722544 0.108788
H3    H     H_    0.507897 0.089308 0.694416 0.187954
H4    H     H_    0.414539 0.971376 0.595279 0.263217
H5    H     H_    0.378304 0.775904 0.914401 0.147010
H6    H     H_    0.448939 0.895855 0.923823 0.135942
H7    H     H_    0.585489 0.912092 0.976495 0.249954
H8    H     H_    0.516996 0.905954 0.047014 0.206331
H9    H     H_    0.515150 0.793071 0.968314 0.256498
H10   H     H_    0.147116 0.748261 0.657628 0.161483
H11   H     H_    0.083086 0.607326 0.598442 0.164873
H12   H     H_    0.077695 0.662275 0.543090 0.190882
H13   H     H_    0.412720 0.590972 0.269528 0.234672
H14   H     H_    0.394864 0.744761 0.532571 0.183439
H15   H     H_    0.332812 0.772954 0.484882 0.193068
H16   H     H_    0.452684 0.840268 0.510359 0.166151
H17   H     H_    0.878155 0.090807 0.710475 0.216599
H18   H     H_    0.915059 0.091867 0.800884 0.179121
H19   H     H_    0.727002 0.904908 0.816539 0.205484
H20   H     H_    0.586936 0.400769 0.175841 0.149365
H21   H     H_    0.607454 0.329273 0.202284 0.202078
H22   H     H_    0.675388 0.398693 0.090538 0.100085
H23   H     H_    0.685443 0.600220 0.279575 0.163935
H24   H     H_    0.765613 0.589464 0.183428 0.148160
H25   H     H_    0.166221 0.570778 0.320927 0.131104
H26   H     H_    0.812769 0.564209 0.405852 0.224175
H27   H     H_    0.745650 0.425229 0.332353 0.128131
H28   H     H_    0.840795 0.434437 0.252165 0.061972
H29   H     H_    0.783186 0.667499 0.370500 0.197647
H30   H     H_    0.864912 0.666924 0.275948 0.229345
H31   H     H_    0.605560 0.246427 0.605459 0.145222
H32   H     H_    0.627886 0.266709 0.482704 0.122018
H33   H     H_    0.497261 0.175998 0.354857 0.124137
H34   H     H_    0.262309 0.453478 0.103746 0.067311
H35   H     H_    0.452157 0.136734 0.601474 0.144716
H36   H     H_    0.172269 0.403528 0.304990 0.091055
H37   H     H_    0.273163 0.900727 0.291093 0.175109
H38   H     H_    0.225518 0.099626 0.211271 0.170323
H39   H     H_    0.183645 0.964676 0.034983 0.119223
H40   H     H_    0.054633 0.879912 0.907833 0.127206
H41   H     H_    0.898611 0.764499 0.897202 0.125401
H42   H     H_    0.871744 0.733747 0.013637 0.108453
H43   H     H_    0.999328 0.817826 0.141343 0.100777
H44   H     H_    0.959973 0.683633 0.522885 0.164369
H45   H     H_    0.880400 0.497589 0.461774 0.145871
H46   H     H_    0.799409 0.431673 0.544651 0.124023
H47   H     H_    0.081850 0.380519 0.203270 0.160543
H48   H     H_    0.881881 0.740365 0.754980 0.126963
H49   H     H_    0.907725 0.568664 0.764151 0.175339
H50   H     H_    0.590385 0.438366 0.744655 0.173847
H51   H     H_    0.594252 0.269685 0.755451 0.099509
H52   H     H_    0.512439 0.214308 0.845046 0.125721
H53   H     H_    0.534753 0.345623 0.998565 0.104984
H54   H     H_    0.642379 0.533240 0.065198 0.117515
H55   H     H_    0.121961 0.330421 0.116608 0.207147
H56   H     H_    0.725588 0.589704 0.977453 0.103389
H57   H     H_    0.465720 0.896260 0.787770 0.151440
H58   H     H_    0.589038 0.906675 0.664492 0.133734
H59   H     H_    0.176841 0.546585 0.601240 0.183701
H60   H     H_    0.197244 0.614047 0.799660 0.168205
H61   H     H_    0.307316 0.391638 0.708762 0.171007
H62   H     H_    0.347367 0.484880 0.914399 0.121291
H63   H     H_    0.322199 0.380939 0.972031 0.113793
H64   H     H_    0.263492 0.584525 0.410825 0.093923
H65   H     H_    0.176388 0.211164 0.905643 0.112229
H66   H     H_    0.056903 0.141306 0.776915 0.112363
H67   H     H_    0.080792 0.244141 0.718336 0.115293
H68   H     H_    0.258565 0.664210 0.311714 0.246019
H69   H     H_    0.657776 0.913373 0.596086 0.240453
H70   H     H_    0.678661 0.175043 0.711280 0.165693
H71   H     H_    0.613019 0.039304 0.614231 0.157361
H72   H     H_    0.702000 0.139694 0.608765 0.194165
H73   H     H_    0.849725 0.822389 0.589296 0.217741
H74   H     H_    0.930861 0.960539 0.638590 0.151593
H75   H     H_    0.866207 0.869685 0.521800 0.178572
H76   H     H_    0.756385 0.038384 0.983751 0.138497
H77   H     H_    0.825123 0.178070 0.037754 0.142012
H78   H     H_    0.962714 0.185463 0.069541 0.257394
H79   H     H_    0.883734 0.132440 0.117522 0.204290
H80   H     H_    0.673139 0.081804 0.766091 0.059903
H81   H     H_    0.893605 0.046990 0.016854 0.255698
H82   H     H_    0.654810 0.231020 0.973202 0.168276
H83   H     H_    0.568041 0.219967 0.024174 0.118551
H84   H     H_    0.576720 0.108875 0.054753 0.255518
H85   H     H_    0.561362 0.057096 0.938267 0.196128
H86   H     H_    0.670555 0.125264 0.015128 0.246723
H87   H     H_    0.309645 0.566867 0.057393 0.176724
H88   H     H_    0.405756 0.578480 0.106509 0.150537
H89   H     H_    0.412117 0.692047 0.136621 0.198357
H90   H     H_    0.994833 0.533238 0.287345 0.154652
H91   H     H_    0.633983 0.910528 0.798230 0.192189
H92   H     H_    0.977390 0.553899 0.390605 0.113456
H93   H     H_    0.079272 0.748839 0.463810 0.234397
H94   H     H_    0.134849 0.685021 0.422690 0.221471
H95   H     H_    0.100774 0.720314 0.360378 0.274456
H96   H     H_    0.275706 0.144237 0.518921 0.157726
H97   H     H_    0.320401 0.140185 0.604079 0.133680
H98   H     H_    0.176943 0.970018 0.545865 0.259230
H99   H     H_    0.159169 0.069586 0.577653 0.201110
H100  H     H_    0.131930 0.973620 0.461043 0.261355
H101  H     H_    0.223088 0.302296 0.101949 0.118363
H102  H     H_    0.725345 0.087657 0.890685 0.056452
H103  H     H_    0.175541 0.184612 0.092327 0.169803
H104  H     H_    0.290472 0.288634 0.159291 0.188341
H105  H     H_    0.084879 0.846648 0.639472 0.145902
H106  H     H_    0.092057 0.863751 0.746027 0.130296
H107  H     H_    0.099440 0.025260 0.810238 0.248407
H108  H     H_    0.190286 0.031473 0.767453 0.215503
H109  H     H_    0.095912 0.008584 0.704421 0.250209
H110  H     H_    0.482871 0.940980 0.685721 0.121582
H111  H     H_    0.453889 0.011599 0.778885 0.139298
H112  H     H_    0.393855 0.048062 0.691374 0.260328
O1    O     O_3   0.500000 0.500000 0.500000 -0.482981
O2    O     O_R   0.113800 0.731630 0.056520 -0.632588
O3    O     O_R   0.819390 0.439310 0.886160 -0.642583
O4    O     O_R   0.383400 0.268380 0.323710 -0.645121
O5    O     O_R   0.115110 0.560720 0.179280 -0.657312
O6    O     O_R   0.941380 0.560750 0.885620 -0.640994
O7    O     O_R   0.115110 0.439270 0.057830 -0.650861
O8    O     O_R   0.942690 0.268390 0.886930 -0.630073
O9    O     O_R   0.114340 0.731630 0.178520 -0.640419
O10   O     O_R   0.820160 0.439310 0.057830 -0.646790
O11   O     O_R   0.113800 0.560730 0.885620 -0.649115
O12   O     O_R   0.383400 0.560740 0.616060 -0.632186
O13   O     O_R   0.555060 0.731630 0.615290 -0.644387
O14   O     O_R   0.383950 0.439280 0.616600 -0.660707
O15   O     O_R   0.677590 0.560710 0.444390 -0.641632
O16   O     O_R   0.556370 0.439260 0.616600 -0.644392
O17   O     O_R   0.382640 0.439290 0.322940 -0.631254
O18   O     O_R   0.678360 0.560700 0.616060 -0.641861
O19   O     O_R   0.382640 0.560750 0.444390 -0.651950
O20   O     O_3   0.744902 0.102982 0.680528 -0.585588
O21   O     O_3   0.794484 0.902899 0.603752 -0.606493
O22   O     O_3   0.840488 0.092093 0.919355 -0.594336
O23   O     O_R   0.555060 0.439270 0.322940 -0.658011
O24   O     O_3   0.700322 0.307828 0.110016 -0.621756
O25   O     O_3   0.334361 0.617840 0.189518 -0.579335
O26   O     O_3   0.924259 0.599853 0.335993 -0.603348
O27   O     O_3   0.299682 0.030501 0.472639 -0.625781
O28   O     O_3   0.195734 0.303205 0.215188 -0.584661
O29   O     O_3   0.973925 0.829823 0.680887 -0.643354
O30   O     O_3   0.345844 0.870773 0.667552 -0.586867
O31   O     O_3   0.447605 0.768859 0.824106 -0.605350
O32   O     O_3   0.194612 0.674599 0.563348 -0.607344
O33   O     O_3   0.378962 0.688988 0.399938 -0.583230
O34   O     O_R   0.383950 0.268380 0.445700 -0.646118
O35   O     O_R   0.677590 0.731610 0.615290 -0.639681
O36   O     O_3   0.997750 0.500010 0.002220 -0.484265
O37   O     O_R   0.942690 0.560750 0.179280 -0.621669
O38   O     O_R   0.114340 0.439270 0.886160 -0.639548
O39   O     O_R   0.820160 0.268410 0.886930 -0.664019
Zn1   Zn    Zn3+2 0.456040 0.586770 0.543190 0.983368
Zn2   Zn    Zn3+2 0.456820 0.413240 0.543960 0.957882
Zn3   Zn    Zn3+2 0.631110 0.586750 0.543190 0.976645
Zn4   Zn    Zn3+2 0.456040 0.413240 0.369660 0.958594
Zn5   Zn    Zn3+2 0.041710 0.413240 0.959030 0.983090
Zn6   Zn    Zn3+2 0.866640 0.413270 0.959030 0.965310
Zn7   Zn    Zn3+2 0.040930 0.586780 0.958260 0.969293
Zn8   Zn    Zn3+2 0.041710 0.586770 0.132560 0.962071

loop_
_geom_bond_atom_site_label_1
_geom_bond_atom_site_label_2
_ccdc_geom_bond_type
C1    O4    A    
C66   C68   A    
C21   C26   S    
C41   C42   A    
C96   O39   A    
C31   C42   S    
C8    H111  S    
C8    H110  S    
C2    C18   S    
C10   O31   S    
C102  H70   S    
C79   O30   S    
C105  H81   S    
C36   C42   A    
C19   C20   S    
C103  H75   S    
C69   H54   S    
C106  H82   S    
C48   H43   S    
C17   H102  S    
C11   H9    S    
C37   C97   S    
C81   C82   A    
C94   O10   A    
C76   H59   S    
C38   C49   S    
C97   O9    A    
C53   C54   A    
C25   C28   S    
C108  O25   S    
C2    H2    S    
C37   C38   A    
C14   H15   S    
C74   C76   A    
C6    O29   S    
C83   C84   A    
C75   H13   S    
C9    H4    S    
C105  H78   S    
C92   C93   A    
C36   C37   A    
C45   C87   S    
O18   Zn3   S    
O39   Zn6   S    
C72   C79   A    
C26   H30   S    
C58   H49   S    
C70   H56   S    
C63   O17   A    
C30   C31   A    
C81   C95   S    
C53   C64   S    
C86   C88   A    
C106  O24   S    
C106  C107  S    
C29   H32   S    
C109  H92   S    
C63   O19   A    
C24   C39   S    
C4    H100  S    
C66   H52   S    
C110  H94   S    
C73   C74   A    
C22   C24   S    
C23   C67   S    
C108  H87   S    
C2    C13   S    
O36   Zn8   S    
O1    Zn3   S    
C62   C64   A    
O6    Zn7   S    
C27   O12   A    
C18   H18   S    
C12   H10   S    
C7    H108  S    
C9    H112  S    
C21   H23   S    
C8    O30   S    
C12   H11   S    
C47   C48   A    
C17   O22   S    
C8    C9    S    
C83   H61   S    
C56   H55   S    
C45   C67   S    
C50   C52   A    
C89   H80   S    
C70   C71   A    
C102  O20   S    
C80   H60   S    
C87   H34   S    
C110  H95   S    
C29   C30   A    
C2    O21   S    
O37   Zn8   S    
C1    O34   A    
C34   C75   S    
C72   C73   A    
O35   Zn3   S    
C7    H109  S    
C19   H20   S    
C20   O24   S    
C46   H41   S    
O36   Zn7   S    
C59   C60   A    
C82   C93   S    
C22   C28   S    
O15   Zn3   S    
C58   C64   A    
C3    H96   S    
O16   Zn2   S    
C69   C70   A    
C51   C62   S    
O1    Zn2   S    
C20   H22   S    
C99   O28   S    
O36   Zn6   S    
C107  H85   S    
C107  H86   S    
C44   C46   A    
C4    H98   S    
C106  H83   S    
C98   O6    A    
C77   C79   A    
C78   C89   S    
C19   H21   S    
C95   O38   A    
C5    H101  S    
C16   C96   S    
C6    H106  S    
C12   O32   S    
C6    H105  S    
C78   H69   S    
C102  H72   S    
C105  H79   S    
C14   H14   S    
C84   C85   A    
C109  O26   S    
C23   O33   S    
C10   C11   S    
C61   H50   S    
C91   C92   A    
C23   H64   S    
C40   H38   S    
C100  H19   S    
C43   C49   A    
C60   C71   S    
C58   C59   A    
C65   C71   A    
C32   O27   S    
C39   O23   A    
C4    H99   S    
C103  H74   S    
C22   H26   S    
C60   C61   A    
C7    H107  S    
C67   H25   S    
C43   C44   A    
C80   C85   A    
C26   H24   S    
C86   C93   A    
C18   H17   S    
C54   H48   S    
C56   H47   S    
C100  H91   S    
C36   H37   S    
C103  O21   S    
C94   O37   A    
C22   H27   S    
O12   Zn1   S    
C50   H45   S    
C23   C34   S    
C5    H103  S    
C34   C99   S    
C28   H28   S    
C46   C47   A    
C76   C77   A    
C87   O25   S    
C51   O18   A    
C45   C101  S    
C27   O14   A    
C35   H31   S    
C73   O31   S    
C1    C41   S    
C40   C41   A    
C99   H36   S    
C88   C90   A    
C82   C83   A    
O13   Zn1   S    
C96   O8    A    
O19   Zn1   S    
C55   C57   A    
C86   H62   S    
C72   H57   S    
C103  H73   S    
C21   C24   S    
C88   H63   S    
C21   H29   S    
O5    Zn8   S    
O38   Zn5   S    
C3    C4    S    
C11   H7    S    
C39   O15   A    
C10   H6    S    
C52   C53   A    
O8    Zn5   S    
C68   H53   S    
C75   C87   S    
C104  H77   S    
C45   C56   S    
C54   C55   A    
C27   C84   S    
C102  H71   S    
C78   H58   S    
C5    O28   S    
C68   C69   A    
C31   C32   A    
O23   Zn4   S    
C77   O32   S    
C3    O27   S    
C80   C81   A    
C67   H68   S    
C43   H39   S    
C104  C105  S    
O2    Zn7   S    
O7    Zn5   S    
O10   Zn6   S    
C28   O26   S    
C6    C7    S    
C52   H46   S    
C104  H76   S    
C57   H44   S    
C29   C35   A    
C75   H1    S    
C14   H16   S    
C97   O2    A    
C101  O5    A    
C3    H97   S    
C32   C33   A    
C98   O3    A    
C13   C100  S    
C13   C15   S    
C19   C24   S    
C25   C26   S    
C9    H3    S    
C91   H66   S    
C104  O22   S    
C109  C110  S    
O11   Zn7   S    
C38   C40   A    
O17   Zn4   S    
C50   C57   A    
C65   H51   S    
C90   C91   A    
C16   C17   S    
C108  H89   S    
C48   C49   A    
C5    H104  S    
O9    Zn8   S    
C34   C63   S    
C33   C35   A    
C90   H65   S    
C15   O35   A    
C51   O16   A    
C55   O29   S    
O1    Zn1   S    
C74   C85   S    
C108  H88   S    
C61   C62   A    
C17   C100  S    
C44   H40   S    
O1    Zn4   S    
C92   H67   S    
C13   C78   S    
O4    Zn4   S    
C14   O33   S    
C25   C94   S    
C12   H12   S    
C47   H42   S    
C30   H33   S    
O14   Zn2   S    
C16   C18   S    
C65   C66   A    
C20   C25   S    
O34   Zn2   S    
C15   O13   A    
C59   C98   S    
C89   O20   S    
C110  H93   S    
C109  H90   S    
C101  O7    A    
C95   O11   A    
C56   C99   S    
C11   H8    S    
O3    Zn6   S    
C107  H84   S    
C10   H5    S    
C33   H35   S    
C16   C89   S    
O36   Zn5   S    
