data_mof_unit_52216.cif
_audit_creation_date              2013-03-05T16:32:33-0500
_audit_creation_method            fapswitch 2.2
_symmetry_space_group_name_H-M    P1
_symmetry_Int_Tables_number       1
_space_group_crystal_system       triclinic
_cell_length_a                    15.887716
_cell_length_b                    10.857497
_cell_length_c                    9.531844
_cell_angle_alpha                 89.512568
_cell_angle_beta                  89.639648
_cell_angle_gamma                 89.931961
_cell_volume                      1644.15791417

loop_
_atom_site_label
_atom_site_type_symbol
_atom_site_description
_atom_site_fract_x
_atom_site_fract_y
_atom_site_fract_z
_atom_type_partial_charge
O1    O     O_R   0.500000 0.319640 0.618810 -0.579977
O2    O     O_R   0.500010 0.319680 0.381230 -0.594787
C1    C     C_R   0.498885 0.262561 0.500394 0.805910
O3    O     O_R   0.379070 0.499970 0.618770 -0.567098
O4    O     O_R   0.379080 0.500010 0.381190 -0.566810
C2    C     C_R   0.340020 0.500488 0.500535 0.820390
Cu1   Cu    Cu3+1 0.500000 0.499980 0.640670 0.959344
Cu2   Cu    Cu3+1 0.500000 0.500020 0.359330 0.951885
O5    O     O_R   0.499990 0.680320 0.618770 -0.576731
O6    O     O_R   0.500000 0.680360 0.381190 -0.587193
O7    O     O_R   0.620920 0.499990 0.618810 -0.583555
O8    O     O_R   0.620930 0.500030 0.381230 -0.579914
C3    C     C_R   0.500719 0.737257 0.499321 0.812517
C4    C     C_R   0.660073 0.499969 0.499612 0.819492
C5    C     C_3   0.970644 0.487582 0.634214 0.427573
C6    C     C_3   0.028757 0.394560 0.560115 0.313094
H1    H     H_    0.951151 0.322875 0.361890 0.172900
C7    C     C_1   0.250782 0.501744 0.502542 -0.116457
C8    C     C_1   0.749497 0.499423 0.498734 -0.190799
C9    C     C_3   0.025516 0.593484 0.578176 0.267970
C10   C     C_3   0.084170 0.501154 0.505647 -0.147069
C11   C     C_3   0.970749 0.605735 0.445333 -0.289853
C12   C     C_3   0.916252 0.497678 0.501502 -0.058743
C13   C     C_3   0.028464 0.509587 0.374339 0.308046
C14   C     C_3   0.972862 0.401124 0.426495 -0.372868
C15   C     C_1   0.175534 0.502340 0.504846 0.130730
C16   C     C_1   0.824850 0.498699 0.499047 0.032358
H2    H     H_    0.947676 0.692799 0.397182 0.191504
C17   C     C_R   0.488108 0.059892 0.620933 0.099384
C18   C     C_R   0.499061 0.129768 0.499256 -0.115868
C19   C     C_R   0.511852 0.065780 0.372211 -0.225991
H3    H     H_    0.520743 0.114782 0.273771 0.164026
C20   C     C_R   0.512790 0.936617 0.371079 -0.207740
H4    H     H_    0.521635 0.889973 0.272048 0.160994
C21   C     C_R   0.502257 0.869704 0.497327 -0.073472
C22   C     C_R   0.492076 0.936019 0.619616 0.050105
C23   C     C_3   0.474039 0.921396 0.771644 -0.516648
C24   C     C_3   0.468866 0.063370 0.774969 0.302380
H5    H     H_    0.413171 0.873253 0.789487 0.222174
H6    H     H_    0.528600 0.883026 0.829977 0.158465
H7    H     H_    0.519645 0.110497 0.834181 0.068030
C25   C     C_R   0.546101 0.585075 0.072405 0.249996
N1    N     N_R   0.500530 0.500930 0.147930 -0.184118
C26   C     C_R   0.447603 0.425268 0.075667 -0.065804
H8    H     H_    0.406452 0.363001 0.132671 0.138742
C27   C     C_R   0.447425 0.425732 0.926576 -0.071416
H9    H     H_    0.405859 0.365046 0.870823 0.158987
N2    N     N_R   0.500530 0.500890 0.852020 -0.187367
C28   C     C_R   0.545987 0.585171 0.924960 0.254497
C29   C     C_3   0.638892 0.602976 0.917627 -0.494665
C30   C     C_3   0.639156 0.602512 0.076793 -0.497498
H10   H     H_    0.672172 0.522474 0.872241 0.225444
H11   H     H_    0.656169 0.693635 0.870715 0.200108
H12   H     H_    0.672897 0.521761 0.121862 0.225780
H13   H     H_    0.656707 0.692913 0.121953 0.197944
O9    O     O_3   0.059259 0.288408 0.629646 -0.599589
C31   C     C_3   0.099392 0.209392 0.533273 0.051282
H14   H     H_    0.141117 0.260550 0.458727 0.149462
H15   H     H_    0.051126 0.158639 0.472616 0.156102
C32   C     C_3   0.153220 0.116920 0.615060 -0.294938
H16   H     H_    0.197841 0.167577 0.683036 0.242038
H17   H     H_    0.111888 0.059270 0.683443 0.252155
C33   C     C_3   0.203471 0.033570 0.517286 -0.831470
H18   H     H_    0.160481 0.981756 0.447768 0.264501
H19   H     H_    0.240635 0.966677 0.580337 0.283835
H20   H     H_    0.247696 0.089340 0.452221 0.245341
O10   O     O_3   0.385824 0.105691 0.799334 -0.590018
C34   C     C_3   0.370660 0.122442 0.944661 0.047226
H21   H     H_    0.321317 0.194518 0.954347 0.171798
H22   H     H_    0.426626 0.157082 0.002108 0.103661
C35   C     C_3   0.337670 0.004285 0.014918 -0.333932
H23   H     H_    0.287439 0.963374 0.949406 0.251902
H24   H     H_    0.389783 0.936716 0.025804 0.206187
C36   C     C_3   0.302129 0.030037 0.160907 -0.892006
H25   H     H_    0.350740 0.073331 0.227525 0.254740
H26   H     H_    0.281906 0.942251 0.211292 0.275224
H27   H     H_    0.246794 0.092370 0.153763 0.261429
O11   O     O_3   0.941882 0.484859 0.774821 -0.544975
C37   C     C_3   0.897551 0.374592 0.802852 0.116142
H28   H     H_    0.942334 0.296359 0.813012 0.191721
H29   H     H_    0.851545 0.353465 0.718957 0.124865
C38   C     C_3   0.849608 0.387650 0.941563 -0.294988
H30   H     H_    0.895047 0.389829 0.029523 0.261797
H31   H     H_    0.813952 0.475706 0.941222 0.238760
C39   C     C_3   0.788396 0.281285 0.965928 -0.965415
H32   H     H_    0.740534 0.279255 0.881440 0.258744
H33   H     H_    0.755463 0.293503 0.067995 0.262652
H34   H     H_    0.822902 0.192237 0.968337 0.272062
N3    N     N_R   0.058764 0.522700 0.230318 0.150117
O12   O     O_R   0.005474 0.542333 0.129658 -0.324102
O13   O     O_R   0.138844 0.518393 0.201769 -0.352099
N4    N     N_R   0.051484 0.697971 0.662512 0.167496
O14   O     O_R   0.994872 0.769225 0.718398 -0.321586
O15   O     O_R   0.130837 0.721713 0.680859 -0.354445

loop_
_geom_bond_atom_site_label_1
_geom_bond_atom_site_label_2
_geom_bond_distance
_ccdc_geom_bond_type
C10   C15   1.451604 S    
C33   H19   1.110557 S    
C6    C10   1.539646 S    
C21   C22   1.383814 A    
C7    C15   1.195592 T    
Cu2   N1    2.014938 S    
C13   N3    1.457763 S    
Cu1   Cu2   2.681684 S    
C39   H32   1.111457 S    
Cu1   O7    1.931104 S    
C9    N4    1.457488 S    
C17   C22   1.346510 A    
C23   C24   1.544162 S    
C36   H26   1.110553 S    
C32   C33   1.525849 S    
C22   C23   1.482639 S    
C3    C21   1.438239 S    
C23   H6    1.111476 S    
C18   C19   1.414675 A    
O7    C4    1.291886 A    
C31   H15   1.112639 S    
C5    O11   1.413363 S    
C5    C6    1.540497 S    
O9    C31   1.411087 S    
C32   H17   1.111992 S    
O5    C3    1.290933 A    
C35   C36   1.526370 S    
C34   H21   1.111007 S    
C36   H27   1.110912 S    
C17   C24   1.498640 S    
C29   H10   1.110478 S    
C19   C20   1.402585 A    
C12   C16   1.452529 S    
N3    O13   1.300261 A    
C8    C16   1.197229 T    
C25   C30   1.491619 S    
C5    C12   1.539530 S    
C33   H20   1.110910 S    
C11   H2    1.110189 S    
O3    Cu1   1.933913 S    
C26   C27   1.421097 A    
C29   C30   1.517143 S    
C39   H33   1.110634 S    
C5    C9    1.534114 S    
C2    C7    1.417852 S    
C27   N2    1.366392 A    
C29   H11   1.111668 S    
C36   H25   1.110298 S    
O10   C34   1.417744 S    
C13   C14   1.549629 S    
C24   H7    1.114834 S    
O3    C2    1.289859 A    
C37   H29   1.112304 S    
O11   C37   1.412434 S    
C31   C32   1.529772 S    
C37   H28   1.111369 S    
C32   H16   1.112507 S    
O1    C1    1.292512 A    
C1    C18   1.441935 S    
N1    C26   1.369284 A    
C6    O9    1.411440 S    
C17   C18   1.390623 A    
O4    Cu2   1.931107 S    
C19   H3    1.083263 S    
Cu2   O8    1.933912 S    
N4    O15   1.300315 A    
C20   H4    1.083306 S    
C24   O10   1.415020 S    
C34   H22   1.114604 S    
N2    C28   1.364203 A    
O8    C4    1.291836 A    
C38   H30   1.110256 S    
C38   H31   1.110713 S    
C11   C13   1.546110 S    
C25   N1    1.364161 A    
C26   H8    1.081705 S    
C35   H24   1.110325 S    
C39   H34   1.111017 S    
C6    C14   1.558345 S    
Cu1   O5    1.967371 S    
C27   H9    1.078928 S    
O1    Cu1   1.970858 S    
C4    C8    1.420727 S    
O2    Cu2   1.967369 S    
C9    C11   1.545609 S    
O6    C3    1.289060 A    
C37   C38   1.529278 S    
C38   C39   1.526013 S    
C30   H12   1.111747 S    
H1    C14   1.110071 S    
Cu1   N2    2.014735 S    
O2    C1    1.289521 A    
C35   H23   1.111744 S    
C23   H5    1.111292 S    
C31   H14   1.114058 S    
O4    C2    1.292454 A    
C34   C35   1.533476 S    
N4    O14   1.300232 A    
C20   C21   1.409539 A    
C30   H13   1.111665 S    
C12   C14   1.556118 S    
C25   C28   1.405423 A    
C33   H18   1.111318 S    
C9    C10   1.533874 S    
Cu2   O6    1.970858 S    
C28   C29   1.490005 S    
C10   C13   1.539486 S    
C11   C12   1.548753 S    
N3    O12   1.299685 A    
