data_mof_unit_12037.cif
_audit_creation_date              2012-12-11T17:43:37-0500
_audit_creation_method            fapswitch 2.2
_symmetry_space_group_name_H-M    P1
_symmetry_Int_Tables_number       1
_space_group_crystal_system       triclinic
_cell_length_a                    15.01393
_cell_length_b                    15.213093
_cell_length_c                    17.243613
_cell_angle_alpha                 108.21111
_cell_angle_beta                  105.923455
_cell_angle_gamma                 109.051863
_cell_volume                      3210.69350697

loop_
_atom_site_label
_atom_site_type_symbol
_atom_type_description
_atom_site_fract_x
_atom_site_fract_y
_atom_site_fract_z
_atom_type_partial_charge
Br1   Br    Br    0.495005 0.361918 0.329352 -0.434773
Br2   Br    Br    0.570719 0.708683 0.725817 -0.445219
Br3   Br    Br    0.101779 0.345710 0.344924 -0.534916
Br4   Br    Br    0.915211 0.591618 0.640951 -0.533462
Br5   Br    Br    0.813511 0.167665 0.262413 -0.385429
Br6   Br    Br    0.180961 0.766823 0.706489 -0.369398
C1    C     C_R   0.090101 0.281378 0.057023 -0.095562
C2    C     C_R   0.082017 0.071594 0.980464 -0.211300
C3    C     C_R   0.996254 0.894436 0.952240 0.065051
C4    C     C_R   0.004012 0.088375 0.002235 0.066695
C5    C     C_R   0.079510 0.974575 0.955144 0.089056
C6    C     C_R   0.920509 0.007644 0.998350 0.081847
C7    C     C_R   0.733089 0.954799 0.963144 -0.181022
C8    C     C_R   0.267349 0.031980 0.986299 -0.176029
C9    C     C_R   0.675877 0.019050 0.077493 0.449217
C10   C     C_R   0.320919 0.947283 0.876753 0.455697
C11   C     C_R   0.505190 0.648877 0.357072 0.491009
C12   C     C_R   0.913436 0.709596 0.921449 -0.113579
C13   C     C_R   0.507398 0.425833 0.738460 0.494783
C14   C     C_R   0.513992 0.653660 0.279460 -0.245448
C15   C     C_R   0.520926 0.450410 0.827456 -0.240842
C16   C     C_R   0.937909 0.457472 0.737720 -0.043787
C17   C     C_R   0.063136 0.496639 0.257756 -0.064732
C18   C     C_R   0.519167 0.572181 0.217049 0.012972
C19   C     C_R   0.551149 0.552741 0.887609 0.003545
C20   C     C_R   0.513720 0.485582 0.232678 -0.283042
C21   C     C_R   0.565663 0.629609 0.856944 -0.286205
C22   C     C_R   0.502802 0.480226 0.309216 0.360720
C23   C     C_R   0.031104 0.485421 0.730056 0.067620
C24   C     C_R   0.552088 0.604673 0.767849 0.359718
C25   C     C_R   0.498884 0.561975 0.371488 -0.224725
C26   C     C_R   0.523314 0.502974 0.708834 -0.247321
C27   C     C_R   0.616283 0.564201 0.122457 -0.221453
C28   C     C_R   0.489374 0.604461 0.001725 -0.199405
C29   C     C_R   0.626815 0.558864 0.043265 0.048712
C30   C     C_R   0.466997 0.592987 0.072615 0.050644
C31   C     C_R   0.561529 0.577931 0.981269 0.080495
C32   C     C_R   0.534145 0.578153 0.137046 0.098841
C33   C     C_R   0.653191 0.954576 0.989479 -0.158014
C34   C     C_R   0.970346 0.444971 0.260328 0.099080
C35   C     C_R   0.345633 0.025382 0.959634 -0.160786
C36   C     C_R   0.958545 0.436900 0.336933 0.034813
C37   C     C_R   0.037679 0.475735 0.647495 0.031267
C38   C     C_R   0.093407 0.408749 0.534811 -0.056159
C39   C     C_R   0.893615 0.489148 0.445708 -0.047939
C40   C     C_R   0.722475 0.215661 0.823194 0.436455
C41   C     C_R   0.270259 0.789467 0.181724 0.450723
C42   C     C_R   0.097117 0.430137 0.619860 -0.187607
C43   C     C_R   0.890275 0.470152 0.361835 -0.170752
C44   C     C_R   0.976426 0.504336 0.593070 0.304745
C45   C     C_R   0.672176 0.218661 0.745264 0.018201
C46   C     C_R   0.023061 0.410270 0.390577 0.302792
C47   C     C_R   0.965397 0.474716 0.505245 0.032715
C48   C     C_R   0.027136 0.429751 0.476292 0.043180
C49   C     C_R   0.592365 0.132350 0.664447 0.054351
C50   C     C_R   0.390887 0.876781 0.344468 0.068218
C51   C     C_R   0.564648 0.012009 0.432203 0.500802
C52   C     C_R   0.418717 0.996375 0.577158 0.491316
C53   C     C_R   0.488446 0.932732 0.350288 -0.124125
C54   C     C_R   0.495369 0.075700 0.659255 -0.053860
C55   C     C_R   0.366486 0.898289 0.418064 -0.097692
C56   C     C_R   0.312965 0.789991 0.263426 -0.035204
C57   C     C_R   0.616128 0.110271 0.590531 -0.152266
C58   C     C_R   0.441211 0.975575 0.500955 -0.019619
C59   C     C_R   0.541491 0.033079 0.507955 -0.007673
C60   C     C_R   0.779796 0.084557 0.139607 0.308359
C61   C     C_R   0.217146 0.873680 0.821041 0.326347
C62   C     C_R   0.860219 0.085310 0.112857 -0.264142
C63   C     C_R   0.138504 0.880056 0.848000 -0.273894
C64   C     C_R   0.301388 0.599871 0.008132 -0.126212
C65   C     C_R   0.733796 0.460236 0.043894 -0.097844
C66   C     C_R   0.837240 0.019500 0.024586 0.016639
C67   C     C_R   0.361033 0.569794 0.059672 0.062920
C68   C     C_R   0.162868 0.960222 0.930280 0.025361
C69   C     C_R   0.730243 0.310668 0.747445 -0.203651
C70   C     C_R   0.259771 0.694607 0.258537 -0.195508
C71   C     C_R   0.296357 0.501675 0.080524 -0.123608
C72   C     C_R   0.749800 0.561657 0.972618 -0.106429
C73   C     C_R   0.112055 0.548645 0.814095 -0.084680
C74   C     C_R   0.889698 0.409523 0.179533 -0.129030
C75   C     C_R   0.916843 0.196566 0.977649 -0.084191
C76   C     C_R   0.084464 0.795836 0.000765 -0.068897
C77   C     C_R   0.003844 0.185705 0.014464 0.038436
C78   C     C_R   0.704275 0.531494 0.024880 0.048163
C79   C     C_R   0.999391 0.800883 0.950862 0.036582
C80   C     C_R   0.916963 0.910986 0.971414 -0.198610
Cl1   Cl    Cl    0.505978 0.753056 0.438475 -0.622256
Cl2   Cl    Cl    0.468235 0.297853 0.663337 -0.637127
Cl3   Cl    Cl    0.687390 0.080800 0.436397 -0.545981
Cl4   Cl    Cl    0.296554 0.926616 0.573320 -0.523924
Cl5   Cl    Cl    0.572743 0.013727 0.108614 -0.519826
Cl6   Cl    Cl    0.420799 0.945513 0.842908 -0.506858
Cl7   Cl    Cl    0.661848 0.136392 0.866926 -0.637050
Cl8   Cl    Cl    0.330877 0.879005 0.146206 -0.638365
H1    H     H_    0.169507 0.300872 0.096497 0.117785
H2    H     H_    0.587602 0.708486 0.902233 0.163409
H3    H     H_    0.669189 0.552643 0.170810 0.140514
H4    H     H_    0.438561 0.615283 0.951356 0.138168
H5    H     H_    0.839129 0.488343 0.318553 0.141259
H6    H     H_    0.144745 0.409581 0.663581 0.153530
H7    H     H_    0.141342 0.374498 0.515542 0.193217
H8    H     H_    0.841195 0.517411 0.463368 0.191553
H9    H     H_    0.860683 0.411980 0.684044 0.134842
H10   H     H_    0.140938 0.527960 0.308237 0.143102
H11   H     H_    0.573590 0.902160 0.941829 0.221229
H12   H     H_    0.835608 0.684708 0.873990 0.123764
H13   H     H_    0.425496 0.082379 0.002842 0.209628
H14   H     H_    0.693622 0.155091 0.598409 0.182413
H15   H     H_    0.289019 0.852687 0.409782 0.181676
H16   H     H_    0.478747 0.094821 0.717964 0.209483
H17   H     H_    0.506011 0.912865 0.292148 0.203980
H18   H     H_    0.940217 0.133716 0.161524 0.210076
H19   H     H_    0.058369 0.824770 0.803628 0.212032
H20   H     H_    0.328331 0.662628 0.990240 0.138548
H21   H     H_    0.709594 0.419518 0.081393 0.108200
H22   H     H_    0.708291 0.340689 0.700002 0.177281
H23   H     H_    0.714065 0.902905 0.895165 0.205314
H24   H     H_    0.278537 0.666872 0.308427 0.175737
H25   H     H_    0.317599 0.467882 0.124684 0.115732
H26   H     H_    0.746274 0.618270 0.948500 0.111962
H27   H     H_    0.194088 0.586857 0.830980 0.122626
H28   H     H_    0.808939 0.358081 0.157596 0.136218
H29   H     H_    0.837984 0.137363 0.941550 0.181703
H30   H     H_    0.163866 0.851665 0.027137 0.182671
H31   H     H_    0.855278 0.850028 0.972515 0.132243
H32   H     H_    0.142996 0.133474 0.979664 0.135213
H33   H     H_    0.288120 0.094112 0.050223 0.178011
H34   H     H_    0.491927 0.558394 0.431416 0.208627
H35   H     H_    0.512400 0.483754 0.639834 0.206530
H36   H     H_    0.519227 0.721395 0.268878 0.169820
H37   H     H_    0.507481 0.390015 0.849703 0.173367
H38   H     H_    0.517337 0.422036 0.185096 0.168092
N1    N     N_R   0.055660 0.348550 0.045620 -0.048522
N2    N     N_R   0.185200 0.638170 0.176300 -0.069306
N3    N     N_R   0.201680 0.494570 0.045620 -0.047080
N4    N     N_R   0.798320 0.505430 0.954380 -0.047409
N5    N     N_R   0.068420 0.560530 0.871650 -0.049927
N6    N     N_R   0.931580 0.439470 0.128350 -0.048088
N7    N     N_R   0.948070 0.295860 0.997670 -0.047750
N8    N     N_R   0.051930 0.704140 0.002330 -0.049453
N9    N     N_R   0.944340 0.651450 0.954380 -0.050214
N10   N     N_R   0.960830 0.507850 0.823700 -0.044504
N11   N     N_R   0.039170 0.492150 0.176300 -0.051731
N12   N     N_R   0.811290 0.303410 0.871650 -0.091424
N13   N     N_R   0.188710 0.696590 0.128350 -0.088875
N14   N     N_R   0.205200 0.552990 0.997670 -0.050408
N15   N     N_R   0.794800 0.447010 0.002330 -0.040735
N16   N     N_R   0.814800 0.361830 0.823700 -0.075232
Ni1   Ni    Ni4+2 0.119340 0.493420 0.109960 0.225910
Ni2   Ni    Ni4+2 0.880660 0.506580 0.890040 0.237185
Ni3   Ni    Ni4+2 0.872590 0.372590 0.000000 0.270910
Ni4   Ni    Ni4+2 0.127410 0.627410 0.000000 0.256440

loop_
_geom_bond_atom_site_label_1
_geom_bond_atom_site_label_2
_ccdc_geom_bond_type
C60   C62   A    
N5    N10   A    
C57   C59   A    
C16   C23   A    
C28   C31   A    
C1    C77   A    
N12   N16   A    
C55   H15   S    
C41   C56   A    
C41   N13   A    
C74   H28   S    
C47   C48   A    
C64   H20   S    
C73   H27   S    
C63   H19   S    
C15   C19   A    
C51   Cl3   S    
C75   H29   S    
C8    C68   A    
C13   C15   A    
C45   C69   A    
C1    N1    A    
N12   Ni3   S    
N6    N11   A    
C27   C29   A    
C51   C53   A    
C52   C54   A    
C17   C34   A    
C4    C77   S    
C11   C14   A    
C33   H11   S    
C62   H18   S    
C56   C70   A    
C15   H37   S    
C76   N8    A    
C3    C79   S    
C14   C18   A    
C49   C57   A    
Br1   C22   S    
C18   C32   S    
C34   C74   A    
N5    Ni4   S    
C64   N14   A    
C37   C42   A    
N8    Ni4   S    
C27   H3    S    
C62   C66   A    
C19   C31   S    
C34   C36   S    
C6    C66   S    
C39   C47   A    
C49   C54   A    
C23   C37   S    
C80   H31   S    
C17   N11   A    
C21   H2    S    
C25   H34   S    
C13   C26   A    
C76   H30   S    
C26   H35   S    
C75   C77   A    
C46   C48   A    
N9    Ni2   S    
C12   N9    A    
C52   C58   A    
C42   H6    S    
C44   C47   A    
C12   C79   A    
N1    Ni1   S    
N8    N9    A    
C13   Cl2   S    
C39   H8    S    
C51   C59   A    
C70   N2    A    
C40   N12   A    
N4    N15   A    
N3    Ni1   S    
N2    Ni1   S    
C40   C45   A    
C70   H24   S    
C16   H9    S    
Br4   C44   S    
C61   C63   A    
C55   C58   A    
N15   Ni3   S    
C12   H12   S    
C29   C78   S    
C72   C78   A    
C3    C80   A    
C43   H5    S    
C3    C5    A    
C7    H23   S    
C17   H10   S    
C23   C73   A    
C39   C43   A    
C38   H7    S    
N3    N14   A    
C16   N10   A    
C64   C67   A    
C65   H21   S    
C63   C68   A    
C10   C61   A    
C52   Cl4   S    
C9    C33   A    
C65   N15   A    
C4    C6    A    
C8    C35   A    
N14   Ni4   S    
N16   Ni2   S    
C2    H32   S    
Br6   C61   S    
C73   N5    A    
N1    N7    A    
C11   C25   A    
C50   C56   S    
C20   H38   S    
C65   C78   A    
C75   N7    A    
N2    N13   A    
C72   H26   S    
C35   H13   S    
C29   C31   A    
C11   Cl1   S    
C22   C25   A    
C18   C20   A    
C14   H36   S    
Br5   C60   S    
C71   H25   S    
C5    C68   S    
N4    Ni2   S    
Br3   C46   S    
C37   C44   A    
C10   Cl6   S    
C7    C66   A    
N6    Ni3   S    
C19   C21   A    
C76   C79   A    
C1    H1    S    
C20   C22   A    
C27   C32   A    
C50   C53   A    
C6    C80   A    
Br2   C24   S    
C58   C59   A    
N10   Ni2   S    
C30   C32   A    
C24   C26   A    
C9    C60   A    
C40   Cl7   S    
C2    C5    A    
C74   N6    A    
C69   N16   A    
N7    Ni3   S    
C28   H4    S    
C41   Cl8   S    
C45   C49   S    
C7    C33   A    
N13   Ni4   S    
C54   H16   S    
C30   C67   S    
C8    H33   S    
C36   C43   A    
C9    Cl5   S    
C38   C48   A    
N11   Ni1   S    
C28   C30   A    
C2    C4    A    
C53   H17   S    
C67   C71   A    
C50   C55   A    
C69   H22   S    
C71   N3    A    
C57   H14   S    
C72   N4    A    
C10   C35   A    
C38   C42   A    
C36   C46   A    
C21   C24   A    
