data_mof_unit_21246.cif
_audit_creation_date              2012-12-10T17:25:34-0500
_audit_creation_method            fapswitch 2.2
_symmetry_space_group_name_H-M    P1
_symmetry_Int_Tables_number       1
_space_group_crystal_system       triclinic
_cell_length_a                    10.180829
_cell_length_b                    10.832776
_cell_length_c                    23.554171
_cell_angle_alpha                 89.46812
_cell_angle_beta                  79.795955
_cell_angle_gamma                 97.431315
_cell_volume                      2533.76868129

loop_
_atom_site_label
_atom_site_type_symbol
_atom_type_description
_atom_site_fract_x
_atom_site_fract_y
_atom_site_fract_z
_atom_type_partial_charge
C1    C     C_R   0.559174 0.733117 0.496194 0.881436
C2    C     C_R   0.385300 0.442998 0.307007 -0.083110
C3    C     C_R   0.611147 0.549445 0.753850 -0.011758
C4    C     C_R   0.378281 0.455303 0.248580 -0.014109
C5    C     C_R   0.491772 0.506369 0.792561 0.194909
C6    C     C_R   0.496203 0.495858 0.208487 0.194154
C7    C     C_2   0.599795 0.867575 0.490323 -0.236677
C8    C     C_2   0.400387 0.132290 0.508739 -0.236499
C9    C     C_2   0.509080 0.941202 0.514168 -0.061115
C10   C     C_2   0.491666 0.059193 0.484920 -0.060146
C11   C     C_2   0.926639 0.505210 0.505680 -0.138198
C12   C     C_R   0.440851 0.266858 0.503610 0.881067
C13   C     C_2   0.073237 0.494674 0.494420 -0.138533
C14   C     C_R   0.498362 0.500740 0.610617 0.875264
C15   C     C_R   0.501273 0.498567 0.389424 0.874984
C16   C     C_R   0.460216 0.390653 0.121794 0.512366
C17   C     C_R   0.512021 0.615893 0.879985 0.517486
C18   C     C_R   0.520476 0.611340 0.118123 0.509145
C19   C     C_R   0.464262 0.393988 0.883765 0.511066
C20   C     C_R   0.518490 0.617377 0.058347 -0.055521
C21   C     C_R   0.450331 0.391044 0.944254 -0.067122
C22   C     C_R   0.485579 0.504263 0.031025 -0.030407
C23   C     C_R   0.371816 0.468445 0.772064 -0.000971
C24   C     C_R   0.484362 0.503918 0.971340 -0.026431
C25   C     C_R   0.453741 0.390971 0.063250 -0.017922
C26   C     C_R   0.516293 0.616713 0.938809 -0.018406
C27   C     C_R   0.549848 0.730495 0.024607 -0.001500
C28   C     C_R   0.405391 0.280085 0.978453 0.002562
C29   C     C_R   0.550268 0.728110 0.965426 -0.247613
C30   C     C_R   0.411713 0.280870 0.037092 -0.215452
C31   C     C_R   0.579995 0.853909 0.048886 0.173319
C32   C     C_R   0.478183 0.905924 0.085118 -0.116305
C33   C     C_R   0.508374 0.019055 0.110756 -0.108901
C34   C     C_R   0.619567 0.528120 0.227271 -0.008132
C35   C     C_R   0.638420 0.084403 0.097999 -0.066599
C36   C     C_R   0.738952 0.035482 0.060000 -0.151080
C37   C     C_R   0.710148 0.920170 0.035608 -0.139394
C38   C     C_R   0.333379 0.167199 0.957064 0.182100
C39   C     C_R   0.211165 0.174137 0.938039 -0.092566
C40   C     C_R   0.138769 0.067319 0.920350 -0.135904
C41   C     C_R   0.187011 0.952629 0.922119 -0.091639
C42   C     C_R   0.307578 0.944637 0.941644 -0.105431
C43   C     C_R   0.380803 0.051419 0.959168 -0.143228
C44   C     C_1   0.113045 0.612201 0.573593 0.331983
C45   C     C_R   0.373411 0.463071 0.712569 -0.086053
C46   C     C_1   0.887264 0.388847 0.426125 0.331037
C47   C     C_1   0.246306 0.437574 0.812573 0.215916
C48   C     C_1   0.743097 0.556088 0.185295 0.233000
C49   C     C_1   0.249477 0.416959 0.692767 0.220194
C50   C     C_1   0.748723 0.576331 0.304882 0.219538
C51   C     C_1   0.717689 0.634292 0.657182 0.214991
C52   C     C_1   0.279203 0.364202 0.344858 0.214251
C53   C     C_1   0.735139 0.586652 0.775118 0.243926
C54   C     C_1   0.250229 0.425525 0.229596 0.241600
C55   C     C_1   0.570230 0.097305 0.428071 0.219524
C56   C     C_R   0.622532 0.532347 0.286511 -0.090609
C57   C     C_1   0.430943 0.903733 0.571181 0.220869
C58   C     C_R   0.265341 0.081636 0.542086 0.114335
C59   C     C_R   0.215675 0.130824 0.595412 -0.095029
C60   C     C_R   0.088602 0.083209 0.626254 -0.119372
C61   C     C_R   0.010203 0.986225 0.604202 -0.098329
C62   C     C_R   0.059036 0.936040 0.551434 -0.124486
C63   C     C_R   0.185722 0.983732 0.520294 -0.140370
C64   C     C_R   0.734469 0.917244 0.456305 0.114896
C65   C     C_R   0.814956 0.015672 0.477305 -0.140993
C66   C     C_R   0.941446 0.062252 0.445664 -0.121360
C67   C     C_R   0.493976 0.505395 0.673376 -0.158030
C68   C     C_R   0.989317 0.010386 0.393190 -0.099435
C69   C     C_R   0.910223 0.912641 0.371978 -0.123404
C70   C     C_R   0.783314 0.866114 0.403312 -0.095613
C71   C     C_R   0.503430 0.492154 0.326877 -0.159040
C72   C     C_R   0.609263 0.557415 0.694686 -0.082653
H1    H     H_    0.576068 0.814918 0.940206 0.188205
H2    H     H_    0.171464 0.262071 0.937575 0.135923
H3    H     H_    0.044753 0.073298 0.905720 0.143594
H4    H     H_    0.130588 0.869796 0.908685 0.143223
H5    H     H_    0.343413 0.855367 0.943428 0.154364
H6    H     H_    0.473925 0.044073 0.974364 0.136552
H7    H     H_    0.276322 0.204550 0.613419 0.131735
H8    H     H_    0.051026 0.121149 0.667392 0.156070
H9    H     H_    0.911716 0.949949 0.628080 0.155933
H10   H     H_    0.998310 0.860735 0.534406 0.153576
H11   H     H_    0.221673 0.944612 0.479187 0.142255
H12   H     H_    0.376808 0.195824 0.062879 0.179637
H13   H     H_    0.779823 0.056076 0.518192 0.142941
H14   H     H_    0.002791 0.137942 0.462120 0.154796
H15   H     H_    0.087659 0.045872 0.368922 0.153614
H16   H     H_    0.947164 0.873180 0.331128 0.154241
H17   H     H_    0.722384 0.791507 0.385958 0.131278
H18   H     H_    0.113404 0.438032 0.459734 0.179186
H19   H     H_    0.886347 0.561550 0.540494 0.179108
H20   H     H_    0.376900 0.856545 0.095058 0.138185
H21   H     H_    0.430466 0.054987 0.140731 0.192768
H22   H     H_    0.661528 0.172635 0.117610 0.169219
H23   H     H_    0.839512 0.086155 0.049988 0.142353
H24   H     H_    0.789236 0.881904 0.007001 0.135145
N1    N     N_R   0.491883 0.499454 0.147931 -0.341616
N2    N     N_1   0.849838 0.610864 0.319217 -0.209435
N3    N     N_1   0.802105 0.698085 0.627271 -0.235718
N4    N     N_1   0.196838 0.298731 0.374976 -0.238966
N5    N     N_1   0.834124 0.616261 0.792081 -0.178518
N6    N     N_1   0.148006 0.401873 0.214477 -0.179526
N7    N     N_1   0.631853 0.128099 0.382887 -0.176367
N8    N     N_1   0.369655 0.873452 0.616485 -0.171973
N9    N     N_R   0.490471 0.505415 0.853507 -0.346068
N10   N     N_2   0.842710 0.448880 0.476480 -0.149307
N11   N     N_2   0.157290 0.551120 0.523520 -0.149412
N12   N     N_1   0.078539 0.662911 0.615523 -0.199720
N13   N     N_1   0.922069 0.339042 0.383960 -0.200692
N14   N     N_1   0.145990 0.413305 0.844747 -0.212301
N15   N     N_1   0.841579 0.578328 0.151799 -0.191937
N16   N     N_1   0.149995 0.381071 0.677368 -0.209526
O1    O     O_R   0.431060 0.692470 0.504730 -0.602375
O2    O     O_2   0.529574 0.724463 0.849232 -0.562322
O3    O     O_2   0.552372 0.714959 0.146698 -0.555393
O4    O     O_2   0.454627 0.287069 0.854946 -0.542253
O5    O     O_R   0.568940 0.307530 0.495270 -0.602260
O6    O     O_R   0.651120 0.659650 0.489640 -0.611374
O7    O     O_R   0.348880 0.340350 0.510360 -0.610838
O8    O     O_R   0.389950 0.516450 0.591390 -0.607336
O9    O     O_R   0.610050 0.483550 0.408610 -0.607628
O10   O     O_R   0.610020 0.483630 0.576300 -0.611433
O11   O     O_R   0.389980 0.516370 0.423700 -0.612337
O12   O     O_2   0.434981 0.282364 0.152828 -0.612516
Zn1   Zn    Zn3+2 0.353060 0.521920 0.510080 0.972477
Zn2   Zn    Zn3+2 0.646940 0.478080 0.489920 0.972297

loop_
_geom_bond_atom_site_label_1
_geom_bond_atom_site_label_2
_ccdc_geom_bond_type
C66   C68   A    
C11   H19   S    
C34   C56   A    
C14   O10   A    
C13   H18   S    
C27   C29   A    
C11   C13   S    
C41   C42   A    
C35   C36   A    
C13   N11   D    
C5    N9    S    
C43   H6    S    
C15   O11   A    
C23   C45   A    
C17   C26   A    
C36   C37   A    
C19   C21   A    
C24   C26   A    
C38   C39   A    
C16   N1    A    
C44   N11   S    
O1    Zn1   S    
C55   N7    T    
C25   C30   A    
C67   C72   A    
C39   H2    S    
C8    C58   S    
C53   N5    T    
C68   C69   A    
C22   C25   A    
C45   C67   A    
C14   C67   S    
C18   N1    A    
C64   C70   A    
C9    C10   S    
C9    C57   S    
C62   H10   S    
C59   C60   A    
C61   C62   A    
C1    O1    A    
C17   O2    S    
C44   N12   T    
C51   N3    T    
C50   N2    T    
C23   C47   S    
C27   C31   S    
C6    N1    S    
N11   Zn1   S    
C4    C6    A    
C59   H7    S    
C39   C40   A    
O8    Zn1   S    
C58   C59   A    
C52   N4    T    
C50   C56   S    
C31   C37   A    
C37   H24   S    
C63   H11   S    
C60   C61   A    
O10   Zn2   S    
C2    C4    A    
C62   C63   A    
C17   N9    A    
C12   O7    A    
C16   C25   A    
C31   C32   A    
C5    C23   A    
C45   C49   S    
C8    C12   S    
C56   C71   A    
C11   N10   D    
C10   C55   S    
C69   H16   S    
C2    C52   S    
C42   H5    S    
C49   N16   T    
C19   N9    A    
C40   C41   A    
C21   C28   A    
C20   C22   A    
C14   O8    A    
C22   C24   A    
C21   C24   A    
C70   H17   S    
C34   C48   S    
C42   C43   A    
C2    C71   A    
O7    Zn1   S    
O5    Zn2   S    
C35   H22   S    
C58   C63   A    
C7    C9    D    
C57   N8    T    
C60   H8    S    
C15   O9    A    
C4    C54   S    
C1    C7    S    
C54   N6    T    
C3    C5    A    
C33   H21   S    
C18   O3    S    
C66   H14   S    
C65   H13   S    
C20   C27   A    
C47   N14   T    
C15   C71   S    
N10   Zn2   S    
C40   H3    S    
C64   C65   A    
C28   C30   A    
C3    C72   A    
C16   O12   S    
C38   C43   A    
C61   H9    S    
C32   C33   A    
C41   H4    S    
C3    C53   S    
C36   H23   S    
C32   H20   S    
C19   O4    S    
C46   N10   S    
C33   C35   A    
C18   C20   A    
C1    O6    A    
C30   H12   S    
C69   C70   A    
C7    C64   S    
O11   Zn1   S    
C12   O5    A    
C6    C34   A    
O9    Zn2   S    
C48   N15   T    
C29   H1    S    
C26   C29   A    
C8    C10   D    
C65   C66   A    
C51   C72   S    
C46   N13   T    
C68   H15   S    
O6    Zn2   S    
C28   C38   S    
