data_mof_unit_66652.cif
_audit_creation_date              2013-03-05T15:41:46-0500
_audit_creation_method            fapswitch 2.2
_symmetry_space_group_name_H-M    P1
_symmetry_Int_Tables_number       1
_space_group_crystal_system       triclinic
_cell_length_a                    8.460269
_cell_length_b                    15.138129
_cell_length_c                    15.086884
_cell_angle_alpha                 97.90091
_cell_angle_beta                  100.255322
_cell_angle_gamma                 97.173549
_cell_volume                      1861.05946615

loop_
_atom_site_label
_atom_site_type_symbol
_atom_site_description
_atom_site_fract_x
_atom_site_fract_y
_atom_site_fract_z
_atom_type_partial_charge
P1    P     P_3+3 0.004200 0.709230 0.580350 0.492657
O1    O     O_2   0.174080 0.723060 0.553930 -0.355467
O2    O     O_3   0.901570 0.609580 0.550840 -0.306371
O3    O     O_3   0.370350 0.665080 0.388270 -0.331558
O4    O     O_2   0.296403 0.824678 0.446577 -0.403014
O5    O     O_3   0.067677 0.715880 0.698824 -0.645460
O6    O     O_3   0.373475 0.811798 0.284629 -0.626996
H1    H     H_    0.341155 0.676840 0.222004 0.135855
C1    C     C_3   0.330879 0.764279 0.116922 -0.739174
P2    P     P_3+3 0.305000 0.425570 0.290900 0.559541
P3    P     P_3+3 0.880254 0.606092 0.222598 0.541922
O7    O     O_2   0.134790 0.452800 0.278150 -0.369785
O8    O     O_3   0.937650 0.618620 0.340860 -0.315988
O9    O     O_2   0.997067 0.551671 0.178392 -0.352697
O10   O     O_3   0.268167 0.309000 0.257607 -0.497839
O11   O     O_3   0.904023 0.712047 0.187471 -0.561535
C2    C     C_3   0.989287 0.778129 0.260680 0.226527
H2    H     H_    0.108911 0.759157 0.281992 0.124623
H3    H     H_    0.933420 0.781659 0.321810 0.169212
C3    C     C_3   0.002747 0.871542 0.230550 0.072454
H4    H     H_    0.020599 0.865856 0.159319 0.112120
C4    C     C_3   0.720708 0.341552 0.262838 0.262430
H5    H     H_    0.610849 0.362352 0.284519 0.107591
H6    H     H_    0.823751 0.398073 0.284172 0.144691
C5    C     C_3   0.689384 0.317598 0.158840 -0.765888
H7    H     H_    0.665554 0.377752 0.127676 0.204420
H8    H     H_    0.799013 0.295569 0.137137 0.268749
Ba1   Ba    Ba6+2 0.154730 0.543770 0.458180 1.703930
C6    C     C_3   0.937488 0.721714 0.744143 0.824483
H9    H     H_    0.820267 0.691931 0.698704 0.100543
C7    C     C_3   0.932259 0.819383 0.783615 -0.854804
H10   H     H_    0.051212 0.850525 0.827311 0.285580
H11   H     H_    0.839381 0.822184 0.826832 0.292502
H12   H     H_    0.900190 0.858894 0.728212 0.210610
C8    C     C_3   0.210262 0.267295 0.324810 0.205920
H13   H     H_    0.099405 0.293421 0.339732 0.056541
H14   H     H_    0.305789 0.278500 0.387943 0.066076
C9    C     C_3   0.168614 0.166395 0.288960 0.594826
H15   H     H_    0.137406 0.129591 0.343448 0.011418
P4    P     P_3+3 0.806080 0.290760 0.419570 0.518258
O12   O     O_2   0.636200 0.276890 0.446040 -0.363461
O13   O     O_3   0.908720 0.390410 0.449080 -0.351967
O14   O     O_3   0.439930 0.334910 0.611650 -0.324588
O15   O     O_3   0.757855 0.265463 0.300270 -0.548660
P5    P     P_3+3 0.927431 0.397561 0.779393 0.550857
O16   O     O_3   0.402060 0.547860 0.609750 -0.293464
O17   O     O_3   0.872630 0.381370 0.659060 -0.323011
O18   O     O_2   0.797255 0.442001 0.822124 -0.306242
O19   O     O_3   0.923261 0.292584 0.815895 -0.577626
Ba2   Ba    Ba6+2 0.655430 0.456220 0.541750 1.714671
P6    P     P_3+3 0.420195 0.783118 0.395923 0.497278
C10   C     C_3   0.399072 0.744926 0.214973 0.211200
H16   H     H_    0.401290 0.734018 0.068117 0.198775
O20   O     O_3   0.408220 0.452130 0.390170 -0.330366
C11   C     C_3   0.458919 0.749803 0.754347 0.161864
H17   H     H_    0.352065 0.719031 0.701032 0.126746
C12   C     C_3   0.410720 0.765077 0.848232 -0.018538
H18   H     H_    0.340751 0.702420 0.860041 0.142278
H19   H     H_    0.331102 0.817952 0.850754 0.154240
P7    P     P_3+3 0.507586 0.581513 0.724557 0.560520
O21   O     O_2   0.675490 0.547140 0.721820 -0.297111
O22   O     O_3   0.581231 0.696501 0.755552 -0.550532
C13   C     C_3   0.777130 0.236936 0.773792 0.320412
H20   H     H_    0.673945 0.273084 0.781045 0.184989
H21   H     H_    0.775166 0.216369 0.700075 0.063370
C14   C     C_3   0.760038 0.152050 0.818129 0.160448
H22   H     H_    0.634694 0.115032 0.795905 0.177319
H23   H     H_    0.842293 0.105806 0.796493 0.152281
P8    P     P_3+3 0.391284 0.218440 0.600089 0.446112
C15   C     C_3   0.304092 0.239242 0.758086 0.170193
O23   O     O_2   0.534196 0.181780 0.563512 -0.429257
O24   O     O_3   0.411962 0.194675 0.712493 -0.531805
H24   H     H_    0.310817 0.310200 0.746714 0.037520
H25   H     H_    0.247075 0.265127 0.893758 0.069761
C16   C     C_3   0.347972 0.242948 0.862433 0.617151
C17   C     C_R   0.184061 0.165745 0.533274 0.101955
C18   C     C_R   0.113350 0.074320 0.532603 -0.035944
C19   C     C_R   0.963164 0.895611 0.545211 -0.089657
C20   C     C_R   0.121736 0.933183 0.593366 -0.059469
C21   C     C_R   0.202203 0.011704 0.572265 -0.001623
C22   C     C_R   0.892159 0.802843 0.540749 0.049110
C23   C     C_R   0.728098 0.776276 0.499253 -0.227759
C24   C     C_R   0.917956 0.200866 0.465904 0.228291
C25   C     C_R   0.848903 0.107946 0.458766 -0.034871
C26   C     C_R   0.944191 0.046128 0.497464 0.108239
C27   C     C_R   0.688684 0.074129 0.413337 -0.029823
C28   C     C_R   0.620429 0.984184 0.409957 -0.137049
C29   C     C_R   0.706501 0.923996 0.454840 -0.028945
C30   C     C_R   0.871465 0.954794 0.498578 0.102188
C31   C     C_R   0.633504 0.834043 0.456691 0.315884
C32   C     C_R   0.083498 0.226576 0.502742 -0.524940
H26   H     H_    0.496447 0.963547 0.374144 0.170627
H27   H     H_    0.614188 0.116679 0.379008 0.197563
H28   H     H_    0.672268 0.708126 0.499347 0.181243
H29   H     H_    0.136256 0.296190 0.507547 0.206846
C33   C     C_R   0.237029 0.480765 0.767313 0.112858
C34   C     C_R   0.134482 0.458142 0.826209 0.189390
C35   C     C_R   0.195871 0.470533 0.920270 -0.218501
C36   C     C_R   0.359773 0.508533 0.957442 0.150854
C37   C     C_R   0.453323 0.543202 0.896654 -0.259328
C38   C     C_R   0.393506 0.528570 0.802470 0.142760
C39   C     C_R   0.599350 0.544053 0.091109 -0.347218
C40   C     C_R   0.667721 0.553002 0.183347 0.172594
C41   C     C_R   0.412160 0.484779 0.213207 0.149564
C42   C     C_R   0.342976 0.476268 0.119725 -0.203593
C43   C     C_R   0.433007 0.510897 0.057317 0.119252
C44   C     C_R   0.571229 0.529877 0.245422 0.084655
H30   H     H_    0.680453 0.564529 0.047822 0.207531
H31   H     H_    0.114234 0.447148 0.962239 0.189797
H32   H     H_    0.220127 0.441550 0.097787 0.186750
H33   H     H_    0.572516 0.582224 0.919704 0.197658
C45   C     C_2   0.547712 0.243712 0.124341 0.979253
H34   H     H_    0.563500 0.174159 0.127837 0.106477
O25   O     O_2   0.414202 0.261195 0.092888 -0.519933
Cl1   Cl    Cl    0.970908 0.660981 0.837245 -0.610038
C46   C     C_2   0.160201 0.717868 0.077488 0.743022
H35   H     H_    0.062207 0.755793 0.059845 0.093578
O26   O     O_2   0.131965 0.635791 0.058889 -0.552386
Cl2   Cl    Cl    0.999173 0.143769 0.195723 -0.447208
Cl3   Cl    Cl    0.338743 0.126464 0.251395 -0.653906
C47   C     C_2   0.576591 0.744738 0.222156 0.514659
H36   H     H_    0.634903 0.756352 0.165567 0.119851
O27   O     O_2   0.657743 0.730394 0.291804 -0.601670
C48   C     C_2   0.527598 0.837648 0.730442 0.509416
H37   H     H_    0.548631 0.899937 0.779025 0.117907
O28   O     O_2   0.563590 0.839228 0.655868 -0.606274
Cl4   Cl    Cl    0.584659 0.798629 0.938839 -0.571464
C49   C     C_2   0.351110 0.863855 0.111369 0.669205
H38   H     H_    0.434495 0.911755 0.164545 0.112184
O29   O     O_2   0.282706 0.891213 0.044460 -0.509409
Cl5   Cl    Cl    0.824710 0.922538 0.234729 -0.573471
Cl6   Cl    Cl    0.806750 0.178408 0.939868 -0.415221
C50   C     C_2   0.132279 0.193206 0.723410 0.475426
H39   H     H_    0.046990 0.227048 0.683367 0.003471
O30   O     O_2   0.089573 0.116699 0.735640 -0.525372
Cl7   Cl    Cl    0.522740 0.324151 0.912942 -0.644271
Cl8   Cl    Cl    0.379232 0.135939 0.893584 -0.398045
C51   C     C_2   0.193561 0.907278 0.679925 0.597148
H40   H     H_    0.229847 0.843319 0.681754 0.000883
O31   O     O_2   0.222143 0.961453 0.750694 -0.478067
C52   C     C_2   0.377219 0.015087 0.573838 0.704496
H41   H     H_    0.420637 0.025658 0.512728 0.016129
O32   O     O_2   0.472872 0.007594 0.642088 -0.585667
Cl9   Cl    Cl    0.648090 0.560877 0.363397 -0.535340
Cl10  Cl    Cl    0.174517 0.438742 0.650136 -0.577415
C53   C     C_2   0.144014 0.933824 0.288984 0.601323
H42   H     H_    0.248260 0.954345 0.260578 0.053339
O33   O     O_2   0.145744 0.959206 0.369223 -0.617756

loop_
_geom_bond_atom_site_label_1
_geom_bond_atom_site_label_2
_geom_bond_distance
_ccdc_geom_bond_type
C14   H23   1.104819 S    
C28   C29   1.406667 A    
C13   H21   1.109513 S    
O19   C13   1.398124 S    
O1    Ba1   2.864775 S    
C8    H13   1.109078 S    
C42   H32   1.076685 S    
C49   H38   1.085292 S    
C45   O25   1.220412 D    
C34   C35   1.399569 A    
C33   Cl10  1.755997 S    
Ba1   O16   2.799346 S    
Ba2   O20   2.798840 S    
O7    Ba1   2.837709 S    
C23   H28   1.079983 S    
C16   Cl7   1.779136 S    
O2    Ba1   2.958077 S    
C8    H14   1.111937 S    
C25   C27   1.403072 A    
O6    C10   1.421044 S    
P2    O10   1.739724 S    
C52   O32   1.219151 D    
P6    C31   1.886989 S    
C9    H15   1.105604 S    
P3    O9    1.545037 D    
C12   H19   1.109623 S    
P1    C22   1.905333 S    
C11   O22   1.388550 S    
C2    C3    1.540854 S    
C46   H35   1.081713 S    
P8    C17   1.877881 S    
P7    O22   1.743138 S    
P1    O1    1.555673 D    
C10   C47   1.486787 S    
P8    O23   1.547694 D    
C41   C42   1.409093 A    
C5    C45   1.497179 S    
Ba1   Ba2   4.706135 S    
C4    O15   1.396595 S    
C24   C25   1.436045 A    
O11   C2    1.404751 S    
C4    C5    1.528078 S    
C15   C50   1.499422 S    
C7    H11   1.107924 S    
O8    Ba1   2.775486 S    
C39   H30   1.074931 S    
H1    C10   1.111816 S    
C14   Cl6   1.785897 S    
C9    Cl3   1.780973 S    
C29   C30   1.423234 A    
P4    O13   1.605747 S    
C14   H22   1.106479 S    
C6    Cl1   1.782342 S    
C13   C14   1.530997 S    
C18   C26   1.423528 A    
O14   P8    1.736988 S    
C35   H31   1.076811 S    
C28   H26   1.076908 S    
P4    C24   1.893137 S    
C1    C10   1.569843 S    
C15   H24   1.106971 S    
O10   C8    1.393600 S    
C45   H34   1.084944 S    
O3    Ba1   2.862424 S    
O2    Ba2   2.889351 S    
C22   C23   1.400774 A    
O17   Ba2   2.776010 S    
C53   O33   1.215612 D    
P5    O17   1.766480 S    
C19   C30   1.432490 A    
C1    C49   1.511275 S    
H25   C16   1.111907 S    
O3    P6    1.766868 S    
P1    O5    1.757443 S    
C8    C9    1.523274 S    
C25   C26   1.427421 A    
C16   Cl8   1.785208 S    
C26   C30   1.445036 A    
C19   C20   1.414177 A    
C5    H7    1.104874 S    
C13   H20   1.100167 S    
P7    O21   1.577939 D    
P1    O2    1.605718 S    
P8    O24   1.764548 S    
C6    H9    1.103638 S    
C27   H27   1.075754 S    
P1    Ba1   3.414114 S    
P3    O11   1.756441 S    
C7    H10   1.108811 S    
P5    O19   1.750270 S    
C33   C34   1.394078 A    
C20   C51   1.464980 S    
C11   H17   1.101876 S    
C2    H2    1.091889 S    
C7    H12   1.107801 S    
C17   C18   1.435497 A    
C47   H36   1.082945 S    
P2    O7    1.533624 D    
O13   Ba2   2.959096 S    
C9    Cl2   1.782661 S    
P4    O12   1.556038 D    
C29   C31   1.429345 A    
C35   C36   1.415427 A    
C11   C12   1.537927 S    
C50   H39   1.081790 S    
C4    H6    1.110748 S    
C1    H16   1.112861 S    
C3    Cl5   1.783121 S    
P7    C38   1.850760 S    
O12   Ba2   2.865238 S    
C48   O28   1.219293 D    
C53   H42   1.077383 S    
P5    O18   1.549105 D    
P2    Ba1   3.414132 S    
C36   C43   1.517513 S    
C11   C48   1.499856 S    
Ba1   O20   2.951576 S    
O16   P7    1.774794 S    
C27   C28   1.401447 A    
C1    C46   1.502826 S    
C49   O29   1.221559 D    
C12   Cl4   1.788379 S    
P3    C40   1.832706 S    
O14   Ba2   2.861706 S    
C51   O31   1.220171 D    
C5    H8    1.110858 S    
C24   C32   1.396094 A    
C42   C43   1.425768 A    
O16   Ba2   2.950654 S    
C23   C31   1.401319 A    
C36   C37   1.424763 A    
C40   C44   1.398933 A    
P2    C41   1.861051 S    
O6    P6    1.780727 S    
C6    C7    1.525215 S    
P5    C34   1.840807 S    
C52   H41   1.075652 S    
P3    O8    1.740866 S    
C19   C22   1.444468 A    
C12   H18   1.107075 S    
C18   C21   1.412579 A    
P4    Ba2   3.414760 S    
Ba1   O13   2.888652 S    
C37   C38   1.397747 A    
C2    H3    1.106697 S    
C46   O26   1.218908 D    
C39   C43   1.410711 A    
C3    C53   1.486417 S    
C39   C40   1.389769 A    
P2    O20   1.564723 S    
C47   O27   1.210671 D    
C51   H40   1.054052 S    
C17   C32   1.398854 A    
C32   H29   1.079365 S    
C20   C21   1.398856 A    
P4    O15   1.750036 S    
O5    C6    1.401527 S    
C3    H4    1.104862 S    
C37   H33   1.075476 S    
C21   C52   1.470995 S    
C15   C16   1.543277 S    
C50   O30   1.218160 D    
Ba2   O21   2.837802 S    
C4    H5    1.105906 S    
O4    P6    1.547282 D    
C15   O24   1.418069 S    
C44   Cl9   1.758716 S    
C33   C38   1.400989 A    
C41   C44   1.399927 A    
C48   H37   1.086132 S    
