data_mof_unit_39727.cif
_audit_creation_date              2012-12-11T14:13:06-0500
_audit_creation_method            fapswitch 2.2
_symmetry_space_group_name_H-M    P1
_symmetry_Int_Tables_number       1
_space_group_crystal_system       triclinic
_cell_length_a                    11.708372
_cell_length_b                    18.411963
_cell_length_c                    10.08888
_cell_angle_alpha                 90.000176
_cell_angle_beta                  112.77022
_cell_angle_gamma                 90.000395
_cell_volume                      2005.39919696

loop_
_atom_site_label
_atom_site_type_symbol
_atom_type_description
_atom_site_fract_x
_atom_site_fract_y
_atom_site_fract_z
_atom_type_partial_charge
C1    C     C_R   0.070557 0.647055 0.138948 0.542773
C2    C     C_R   0.929245 0.352927 0.861048 0.546339
C3    C     C_R   0.929440 0.147054 0.861052 0.542771
C4    C     C_R   0.070752 0.852925 0.138951 0.546336
C5    C     C_R   0.399032 0.464434 0.513174 -0.078638
C6    C     C_R   0.602323 0.536900 0.492545 -0.076518
C7    C     C_R   0.600968 0.964435 0.486822 -0.078638
C8    C     C_R   0.397681 0.036896 0.507468 -0.076517
C9    C     C_2   0.374604 0.940967 0.997720 -0.013962
C10   C     C_2   0.625290 0.060725 0.009331 -0.012688
C11   C     C_2   0.625411 0.440968 0.002276 -0.013957
C12   C     C_2   0.374718 0.560727 0.990614 -0.012671
C13   C     C_2   0.491678 0.965234 0.038992 -0.111557
C14   C     C_2   0.521823 0.041236 0.027440 -0.099158
C15   C     C_2   0.508339 0.465244 0.960949 -0.111573
C16   C     C_2   0.478207 0.541243 0.972553 -0.099126
C17   C     C_2   0.012213 0.923608 0.118165 -0.075446
C18   C     C_2   0.989319 0.076532 0.882034 -0.084938
C19   C     C_2   0.987768 0.423614 0.881829 -0.075432
C20   C     C_2   0.010668 0.576536 0.117968 -0.084934
C21   C     C_2   0.987707 0.960244 0.996045 -0.049918
C22   C     C_2   0.014710 0.039665 0.004173 -0.055408
C23   C     C_2   0.012270 0.460250 0.003950 -0.049910
C24   C     C_2   0.985261 0.539669 0.995825 -0.055443
C25   C     C_R   0.472886 0.647592 0.444176 0.565633
C26   C     C_R   0.527302 0.352827 0.556573 0.564248
C27   C     C_R   0.527113 0.147591 0.555824 0.565633
C28   C     C_R   0.472698 0.852827 0.443427 0.564256
C29   C     C_R   0.353299 0.637172 0.010373 0.600607
C30   C     C_R   0.646690 0.363034 0.989041 0.606730
C31   C     C_R   0.646707 0.137175 0.989610 0.600619
C32   C     C_R   0.353313 0.863035 0.010956 0.606726
C33   C     C_R   0.491511 0.424766 0.485720 0.003514
C34   C     C_R   0.509205 0.576606 0.518084 0.003879
C35   C     C_R   0.508494 0.924766 0.514285 0.003505
C36   C     C_R   0.490793 0.076604 0.481917 0.003872
C37   C     C_R   0.290536 0.430729 0.512337 -0.084375
C38   C     C_R   0.711704 0.570383 0.495541 -0.083990
C39   C     C_R   0.709462 0.930732 0.487652 -0.084369
C40   C     C_R   0.288301 0.070376 0.504478 -0.083981
C41   C     C_R   0.213363 0.466249 0.567186 0.207427
C42   C     C_R   0.792010 0.533684 0.446791 0.202640
C43   C     C_R   0.786630 0.966252 0.432795 0.207463
C44   C     C_R   0.208006 0.033677 0.553246 0.202661
C45   C     C_R   0.242409 0.536270 0.622421 -0.025219
C46   C     C_R   0.762869 0.463688 0.391142 -0.030179
C47   C     C_R   0.757579 0.036273 0.377558 -0.025192
C48   C     C_R   0.237157 0.963683 0.608903 -0.030164
C49   C     C_R   0.344528 0.572577 0.614780 0.213666
C50   C     C_R   0.656477 0.429196 0.390531 0.220587
C51   C     C_R   0.655462 0.072579 0.385207 0.213650
C52   C     C_R   0.343544 0.929192 0.609498 0.220578
C53   C     C_R   0.418257 0.538570 0.549619 -0.011345
C54   C     C_R   0.582598 0.463014 0.455124 -0.010743
C55   C     C_R   0.581739 0.038570 0.450376 -0.011349
C56   C     C_R   0.417412 0.963011 0.544892 -0.010747
Cr1   Cr    Cr6+3 0.187610 0.750000 0.979860 1.058007
Cr2   Cr    Cr6+3 0.812390 0.250000 0.020140 1.058007
Cr3   Cr    Cr6+3 0.245810 0.750000 0.341640 1.154645
Cr4   Cr    Cr6+3 0.754190 0.250000 0.658360 1.154639
Cr5   Cr    Cr6+3 0.485760 0.750000 0.219910 1.067766
Cr6   Cr    Cr6+3 0.514240 0.250000 0.780090 1.067765
H1    H     H_    0.186408 0.562235 0.672603 0.200107
H2    H     H_    0.820996 0.436824 0.344917 0.198110
H3    H     H_    0.813575 0.062238 0.327370 0.200088
H4    H     H_    0.179038 0.936820 0.655139 0.198094
H5    H     H_    0.266363 0.376140 0.470870 0.173634
H6    H     H_    0.734912 0.625270 0.535673 0.171871
H7    H     H_    0.733638 0.876144 0.529121 0.173629
H8    H     H_    0.265085 0.125262 0.464339 0.171867
H9    H     H_    0.457080 0.082593 0.031472 0.186186
H10   H     H_    0.568759 0.927458 0.076802 0.177798
H11   H     H_    0.542976 0.582602 0.968596 0.186157
H12   H     H_    0.431248 0.427475 0.923067 0.177777
H13   H     H_    0.976248 0.047736 0.783324 0.162607
H14   H     H_    0.026555 0.952330 0.217196 0.164104
H15   H     H_    0.023743 0.547740 0.216679 0.162605
H16   H     H_    0.973414 0.452337 0.782795 0.164088
O1    O     O_R   0.267710 0.668200 0.902110 -0.437047
O2    O     O_R   0.732290 0.331800 0.097890 -0.436758
O3    O     O_R   0.732290 0.168200 0.097890 -0.437052
O4    O     O_R   0.267710 0.831800 0.902110 -0.436769
O5    O     O_R   0.099480 0.674460 0.038850 -0.534417
O6    O     O_R   0.900520 0.325540 0.961150 -0.534163
O7    O     O_R   0.900520 0.174460 0.961150 -0.534418
O8    O     O_R   0.099480 0.825540 0.038850 -0.534168
O9    O     O_R   0.116720 0.669210 0.267660 -0.458537
O10   O     O_R   0.883280 0.330790 0.732340 -0.460295
O11   O     O_R   0.883280 0.169210 0.732340 -0.458535
O12   O     O_R   0.116720 0.830790 0.267660 -0.460294
O13   O     O_R   0.366710 0.675440 0.427590 -0.435817
O14   O     O_R   0.633290 0.324560 0.572410 -0.437110
O15   O     O_R   0.633290 0.175440 0.572410 -0.435819
O16   O     O_R   0.366710 0.824560 0.427590 -0.437109
O17   O     O_R   0.534870 0.669390 0.371760 -0.532615
O18   O     O_R   0.465130 0.330610 0.628240 -0.537311
O19   O     O_R   0.465130 0.169390 0.628240 -0.532613
O20   O     O_R   0.534870 0.830610 0.371760 -0.537303
O21   O     O_R   0.453080 0.674480 0.075160 -0.468068
O22   O     O_R   0.546920 0.325520 0.924840 -0.469541
O23   O     O_R   0.546920 0.174480 0.924840 -0.468056
O24   O     O_R   0.453080 0.825520 0.075160 -0.469540
O25   O     O_3   0.306390 0.750000 0.180470 -0.338108
O26   O     O_3   0.693610 0.250000 0.819530 -0.338126
Cl1   Cl    Cl    0.085877 0.420025 0.576573 -0.630877
Cl2   Cl    Cl    0.922627 0.578693 0.442954 -0.628074
Cl3   Cl    Cl    0.914116 0.920032 0.423407 -0.630852
Cl4   Cl    Cl    0.077387 0.078683 0.557087 -0.628062
Cl5   Cl    Cl    0.387651 0.656697 0.704214 -0.510440
Cl6   Cl    Cl    0.607198 0.348486 0.290829 -0.503325
Cl7   Cl    Cl    0.612337 0.156698 0.295777 -0.510461
Cl8   Cl    Cl    0.392827 0.848479 0.709188 -0.503361
C57   C     C_3   0.714063 0.006235 0.992627 -0.428952
H17   H     H_    0.765463 0.978520 0.096400 0.169259
H18   H     H_    0.663922 0.965699 0.908644 0.158205
H19   H     H_    0.780074 0.034368 0.956670 0.134670
C58   C     C_3   0.266326 0.992222 0.948356 -0.412610
H20   H     H_    0.268108 0.025594 0.040702 0.135945
H21   H     H_    0.269856 0.028774 0.862796 0.171920
H22   H     H_    0.178660 0.961646 0.904961 0.153771
C59   C     C_3   0.285890 0.506230 0.007186 -0.428978
H23   H     H_    0.234595 0.478498 0.903400 0.169271
H24   H     H_    0.335971 0.465709 0.091230 0.158191
H25   H     H_    0.219781 0.534364 0.042979 0.134747
C60   C     C_3   0.733702 0.492215 0.051717 -0.412573
H26   H     H_    0.731964 0.525595 0.959399 0.135952
H27   H     H_    0.730139 0.528763 0.137270 0.171901
H28   H     H_    0.821362 0.461635 0.095145 0.153784
C61   C     C_3   0.072015 0.078219 0.148118 -0.356494
H29   H     H_    0.156121 0.048287 0.217314 0.118225
H30   H     H_    0.103543 0.134049 0.137831 0.154944
H31   H     H_    0.004739 0.080713 0.201063 0.183150
C62   C     C_3   0.922396 0.922172 0.852315 -0.363321
H32   H     H_    0.838066 0.953170 0.787139 0.119689
H33   H     H_    0.983603 0.917928 0.791949 0.169129
H34   H     H_    0.890223 0.866855 0.865179 0.156173
C63   C     C_3   0.927953 0.578225 0.851885 -0.356525
H35   H     H_    0.843844 0.548294 0.782694 0.118233
H36   H     H_    0.896434 0.634056 0.862178 0.154945
H37   H     H_    0.995225 0.580716 0.798934 0.183151
C64   C     C_3   0.077616 0.422181 0.147675 -0.363333
H38   H     H_    0.161947 0.453187 0.212827 0.119695
H39   H     H_    0.016433 0.417933 0.208069 0.169125
H40   H     H_    0.109791 0.366867 0.134803 0.156170

loop_
_geom_bond_atom_site_label_1
_geom_bond_atom_site_label_2
_ccdc_geom_bond_type
C1    O9    A    
C18   H13   S    
C5    C37   A    
C12   C29   S    
C3    O7    A    
C9    C58   S    
C14   H9    S    
Cr1   O1    S    
C2    O6    A    
Cr5   O20   S    
C7    C55   A    
C8    C56   A    
Cr4   O10   S    
Cr4   O11   S    
C61   H30   S    
C63   H36   S    
C50   C54   A    
C41   Cl1   S    
C20   H15   S    
C31   O23   A    
C7    C39   A    
C5    C53   A    
Cr5   O25   S    
C38   C42   A    
Cr6   O18   S    
C64   H39   S    
C42   C46   A    
C4    O8    A    
C52   Cl8   S    
C26   O14   A    
C15   C16   S    
C30   O22   A    
C50   Cl6   S    
Cr1   O8    S    
C3    C18   S    
C28   O16   A    
C8    C36   A    
C9    C13   D    
C59   H25   S    
C9    C32   S    
C11   C15   D    
C10   C31   S    
C12   C59   S    
C20   C24   D    
C11   C30   S    
C5    C33   A    
C60   H28   S    
C23   C24   S    
C6    C38   A    
C2    O10   A    
Cr3   O16   S    
C40   C44   A    
Cr6   O26   S    
Cr2   O2    S    
C25   C34   S    
C61   H31   S    
C30   O2    A    
Cr4   O15   S    
Cr4   O14   S    
C35   C56   A    
C21   C22   S    
Cr5   O21   S    
C6    C54   A    
C21   C62   S    
C4    O12   A    
C44   Cl4   S    
C26   O18   A    
Cr1   O25   S    
C63   H37   S    
C25   O13   A    
C29   O21   A    
C16   H11   S    
C12   C16   D    
C28   C35   S    
C10   C14   D    
C58   H22   S    
C47   C51   A    
C43   Cl3   S    
C45   H1    S    
C17   C21   D    
C6    C34   A    
C46   H2    S    
Cr3   O12   S    
C19   H16   S    
C19   C23   D    
Cr2   O6    S    
C17   H14   S    
Cr6   O19   S    
C26   C33   S    
C29   O1    A    
C45   C49   A    
Cr1   O5    S    
C39   H7    S    
Cr3   O13   S    
C60   H27   S    
C42   Cl2   S    
C59   H23   S    
C10   C57   S    
C40   H8    S    
C62   H34   S    
Cr6   O22   S    
C4    C17   S    
C38   H6    S    
C25   O17   A    
C22   C61   S    
C62   H32   S    
C27   C36   S    
C32   O24   A    
C27   O15   A    
Cr2   O26   S    
Cr2   O7    S    
C49   Cl5   S    
C57   H17   S    
C28   O20   A    
C33   C54   A    
C27   O19   A    
C1    C20   S    
C51   Cl7   S    
C11   C60   S    
C2    C19   S    
C18   C22   D    
C7    C35   A    
C39   C43   A    
Cr5   O17   S    
C57   H19   S    
C64   H40   S    
C13   H10   S    
C24   C63   S    
C1    O5    A    
C32   O4    A    
C63   H35   S    
C46   C50   A    
C58   H20   S    
C31   O3    A    
C3    O11   A    
Cr3   O25   S    
Cr6   O23   S    
C58   H21   S    
Cr5   O24   S    
C61   H29   S    
C36   C55   A    
Cr4   O26   S    
C64   H38   S    
C60   H26   S    
Cr2   O3    S    
C49   C53   A    
C37   H5    S    
C51   C55   A    
C37   C41   A    
Cr3   O9    S    
C59   H24   S    
C44   C48   A    
C48   C52   A    
C15   H12   S    
C34   C53   A    
C62   H33   S    
C41   C45   A    
Cr1   O4    S    
C23   C64   S    
C8    C40   A    
C48   H4    S    
C13   C14   S    
C43   C47   A    
C47   H3    S    
C52   C56   A    
C57   H18   S    
