data_mof_unit_67887.cif
_audit_creation_date              2012-12-10T17:09:28-0500
_audit_creation_method            fapswitch 2.2
_symmetry_space_group_name_H-M    P1
_symmetry_Int_Tables_number       1
_space_group_crystal_system       triclinic
_cell_length_a                    10.653498
_cell_length_b                    10.97283
_cell_length_c                    10.144314
_cell_angle_alpha                 94.395357
_cell_angle_beta                  91.039425
_cell_angle_gamma                 91.494268
_cell_volume                      1181.72936172

loop_
_atom_site_label
_atom_site_type_symbol
_atom_type_description
_atom_site_fract_x
_atom_site_fract_y
_atom_site_fract_z
_atom_type_partial_charge
C1    C     C_R   0.497991 0.264548 0.494452 0.877984
C2    C     C_3   0.960130 0.568427 0.412872 -0.301376
C3    C     C_3   0.037753 0.455203 0.375969 0.463034
C4    C     C_3   0.122133 0.482747 0.499055 -0.089471
C5    C     C_2   0.425458 0.930252 0.422513 -0.069103
C6    C     C_2   0.483283 0.868570 0.518579 -0.171441
C7    C     C_2   0.412993 0.064395 0.438011 0.309463
C8    C     C_2   0.512287 0.135983 0.476567 0.267535
C9    C     C_2   0.586254 0.550427 0.935005 -0.069206
C10   C     C_2   0.567766 0.573904 0.080958 0.443289
C11   C     C_R   0.257675 0.493014 0.498849 0.881777
C12   C     C_R   0.495403 0.736812 0.504519 0.853966
C13   C     C_R   0.741923 0.496110 0.499480 0.888038
C14   C     C_3   0.036004 0.399843 0.577673 -0.042305
C15   C     C_3   0.950521 0.372665 0.452825 -0.063887
C16   C     C_3   0.876153 0.487129 0.494090 -0.102572
C17   C     C_3   0.958590 0.514488 0.617507 -0.220299
C18   C     C_3   0.044030 0.594155 0.537538 -0.030308
H1    H     H_    0.415326 0.482983 0.891978 0.152132
H2    H     H_    0.459608 0.426586 0.095291 0.119906
H3    H     H_    0.921997 0.544155 0.714790 0.190153
H4    H     H_    0.925846 0.633539 0.342704 0.152787
N1    N     N_2   0.501360 0.501330 0.852150 -0.249759
N2    N     N_2   0.501400 0.501360 0.147810 -0.245370
O1    O     O_R   0.499980 0.319060 0.613040 -0.647996
O2    O     O_R   0.500020 0.319100 0.386900 -0.597828
O3    O     O_R   0.313930 0.499950 0.613050 -0.647183
O4    O     O_R   0.313970 0.499990 0.386910 -0.564573
O5    O     O_R   0.499980 0.680900 0.613100 -0.618951
O6    O     O_R   0.500020 0.680940 0.386960 -0.602349
O7    O     O_R   0.686030 0.500010 0.613090 -0.621218
O8    O     O_R   0.686070 0.500050 0.386950 -0.661476
Zn1   Zn    Zn3+2 0.499970 0.499970 0.650990 0.924472
Zn2   Zn    Zn3+2 0.500030 0.500030 0.349010 0.970765
C19   C     C_R   0.894299 0.256359 0.385175 0.111298
C20   C     C_R   0.916819 0.143341 0.434309 -0.161943
C21   C     C_R   0.872588 0.034920 0.364967 -0.080223
C22   C     C_R   0.801661 0.039231 0.248380 -0.042980
C23   C     C_R   0.773197 0.152139 0.202476 -0.142669
C24   C     C_R   0.820800 0.260100 0.269046 -0.144040
H5    H     H_    0.963318 0.140232 0.528844 0.132524
H6    H     H_    0.886952 0.948055 0.404961 0.122391
H7    H     H_    0.764668 0.955555 0.196773 0.142333
H8    H     H_    0.712981 0.156329 0.116443 0.109855
H9    H     H_    0.800227 0.346402 0.229628 0.135395
O9    O     O_3   0.631641 0.092062 0.472978 -0.797446
H10   H     H_    0.687956 0.155023 0.520132 0.333146
C25   C     C_R   0.713293 0.585177 0.896043 0.254454
C26   C     C_R   0.810774 0.513652 0.940709 -0.197262
C27   C     C_R   0.929723 0.565989 0.971204 -0.173081
C28   C     C_R   0.951748 0.690214 0.959385 -0.133294
C29   C     C_R   0.857628 0.760905 0.909698 -0.138285
C30   C     C_R   0.738840 0.708614 0.876845 -0.078252
H11   H     H_    0.791246 0.420324 0.963653 0.108013
H12   H     H_    0.004007 0.511405 0.006956 0.163330
H13   H     H_    0.041561 0.731948 0.989901 0.131357
H14   H     H_    0.875317 0.857642 0.904638 0.138485
H15   H     H_    0.662967 0.767141 0.852661 0.138515
O10   O     O_3   0.637520 0.669943 0.143908 -0.764166
H16   H     H_    0.657668 0.650063 0.234595 0.380613
C31   C     C_R   0.066880 0.321289 0.689847 0.108926
C32   C     C_R   0.972803 0.293664 0.779225 -0.176372
C33   C     C_R   0.004730 0.250679 0.901542 -0.169147
C34   C     C_R   0.130432 0.234794 0.935457 -0.100347
C35   C     C_R   0.223527 0.254571 0.843813 -0.207454
C36   C     C_R   0.190841 0.291119 0.719015 -0.103916
H17   H     H_    0.875496 0.311359 0.756884 0.145611
H18   H     H_    0.932790 0.234076 0.972252 0.126131
H19   H     H_    0.155372 0.204419 0.031295 0.164666
H20   H     H_    0.320408 0.237683 0.867748 0.132012
H21   H     H_    0.262486 0.296064 0.646350 0.179594
C37   C     C_R   0.090209 0.716572 0.594791 0.141897
C38   C     C_R   0.077041 0.819498 0.523249 -0.213147
C39   C     C_R   0.112579 0.934377 0.580864 -0.152151
C40   C     C_R   0.151851 0.948359 0.712356 -0.131070
C41   C     C_R   0.166834 0.846741 0.783832 -0.184212
C42   C     C_R   0.139646 0.730011 0.724129 -0.108464
H22   H     H_    0.043132 0.810565 0.421837 0.119711
H23   H     H_    0.110046 0.012382 0.523937 0.156521
H24   H     H_    0.173421 0.037486 0.758188 0.158253
H25   H     H_    0.197516 0.860066 0.885623 0.140572
H26   H     H_    0.151363 0.650770 0.780006 0.135257
O11   O     O_3   0.086027 0.423885 0.251016 -0.771213
H27   H     H_    0.012081 0.407674 0.191474 0.313248
C43   C     C_R   0.382273 0.870081 0.291980 0.115767
C44   C     C_R   0.291226 0.774624 0.282575 -0.095638
C45   C     C_R   0.264030 0.709397 0.161493 -0.120805
C46   C     C_R   0.326569 0.739727 0.048476 -0.177200
C47   C     C_R   0.412565 0.838457 0.055064 -0.106350
C48   C     C_R   0.440070 0.903881 0.176236 -0.075132
H28   H     H_    0.249914 0.743714 0.370370 0.129186
H29   H     H_    0.197669 0.632757 0.156159 0.170706
H30   H     H_    0.309049 0.686112 0.955816 0.126331
H31   H     H_    0.460283 0.862076 0.966935 0.141339
H32   H     H_    0.510207 0.977429 0.180746 0.133466
C49   C     C_R   0.549806 0.929368 0.637977 0.176960
C50   C     C_R   0.488956 0.007461 0.730921 -0.182291
C51   C     C_R   0.559028 0.079208 0.827204 -0.143337
C52   C     C_R   0.689910 0.075434 0.829167 -0.131210
C53   C     C_R   0.750997 0.995591 0.739835 -0.176512
C54   C     C_R   0.681224 0.919208 0.648034 -0.061728
H33   H     H_    0.389067 0.017826 0.724362 0.136097
H34   H     H_    0.512560 0.141018 0.897405 0.120627
H35   H     H_    0.744261 0.135794 0.898204 0.113085
H36   H     H_    0.852563 0.994540 0.739880 0.147854
H37   H     H_    0.730447 0.859960 0.577178 0.117168
O12   O     O_3   0.300682 0.117861 0.408037 -0.823545
H38   H     H_    0.242913 0.054086 0.365057 0.333556

loop_
_geom_bond_atom_site_label_1
_geom_bond_atom_site_label_2
_ccdc_geom_bond_type
C45   C46   A    
C12   O5    A    
C2    C18   S    
C1    C8    S    
C38   C39   A    
C13   O8    A    
C19   C20   A    
C50   C51   A    
C7    C8    D    
C43   C44   A    
O3    Zn1   S    
C53   H36   S    
C32   C33   A    
C32   H17   S    
C11   O4    A    
C20   C21   A    
C21   C22   A    
C44   H28   S    
C6    C12   S    
C5    C6    D    
C26   H11   S    
C51   C52   A    
O5    Zn1   S    
C21   H6    S    
C28   H13   S    
C47   H31   S    
O9    H10   S    
C31   C36   A    
O2    Zn2   S    
O11   H27   S    
C16   C17   S    
N1    Zn1   S    
N2    Zn2   S    
C2    H4    S    
C38   H22   S    
O7    Zn1   S    
C2    C16   S    
C9    C10   S    
C50   H33   S    
C4    C18   S    
C52   H35   S    
O4    Zn2   S    
O10   H16   S    
C45   H29   S    
C1    O1    A    
C14   C17   S    
C20   H5    S    
C24   H9    S    
C15   C19   S    
C27   C28   A    
C18   C37   S    
C25   C30   A    
C43   C48   A    
C39   C40   A    
O6    Zn2   S    
C28   C29   A    
H2    N2    S    
C48   H32   S    
C41   C42   A    
C23   C24   A    
C5    C7    S    
C44   C45   A    
C9    N1    D    
C10   N2    D    
C14   C31   S    
C17   H3    S    
O8    Zn2   S    
H1    N1    S    
C40   C41   A    
C37   C42   A    
C36   H21   S    
C11   O3    A    
O12   H38   S    
C49   C50   A    
C17   C18   S    
C34   H19   S    
C4    C11   S    
C25   C26   A    
C35   C36   A    
C6    C49   S    
C39   H23   S    
C3    O11   S    
C1    O2    A    
C7    O12   S    
C3    C4    S    
C3    C15   S    
C29   C30   A    
C40   H24   S    
C54   H37   S    
C46   H30   S    
C12   O6    A    
C13   O7    A    
C37   C38   A    
C41   H25   S    
C30   H15   S    
C23   H8    S    
C33   H18   S    
C27   H12   S    
C52   C53   A    
C34   C35   A    
C2    C3    S    
C47   C48   A    
C5    C43   S    
C22   H7    S    
C22   C23   A    
C42   H26   S    
C15   C16   S    
C53   C54   A    
C19   C24   A    
C4    C14   S    
C31   C32   A    
C8    O9    S    
C29   H14   S    
C33   C34   A    
C46   C47   A    
C9    C25   S    
C26   C27   A    
C13   C16   S    
C14   C15   S    
C35   H20   S    
C49   C54   A    
C10   O10   S    
C51   H34   S    
O1    Zn1   S    
