data_mof_unit_12180.cif
_audit_creation_date              2012-12-11T17:01:27-0500
_audit_creation_method            fapswitch 2.2
_symmetry_space_group_name_H-M    P1
_symmetry_Int_Tables_number       1
_space_group_crystal_system       triclinic
_cell_length_a                    15.062206
_cell_length_b                    14.881007
_cell_length_c                    14.865606
_cell_angle_alpha                 109.841205
_cell_angle_beta                  109.126119
_cell_angle_gamma                 109.634375
_cell_volume                      2558.91745345

loop_
_atom_site_label
_atom_site_type_symbol
_atom_type_description
_atom_site_fract_x
_atom_site_fract_y
_atom_site_fract_z
_atom_type_partial_charge
C1    C     C_R   0.929584 0.743408 0.022349 -0.131591
C2    C     C_R   0.207108 0.807705 0.298055 0.062648
C3    C     C_R   0.972063 0.407990 0.223379 -0.114422
C4    C     C_R   0.780537 0.253282 0.685663 -0.013690
C5    C     C_R   0.313808 0.593764 0.065628 -0.149535
C6    C     C_R   0.050253 0.501156 0.326116 0.060863
C7    C     C_R   0.325583 0.501880 0.046027 0.086809
C8    C     C_R   0.299977 0.871921 0.299131 0.020967
C9    C     C_R   0.936631 0.132318 0.936217 0.104768
C10   C     C_3   0.518463 0.451438 0.950218 -0.467281
C11   C     C_3   0.411908 0.443526 0.940718 -0.082662
C12   C     C_R   0.677833 0.223429 0.672270 0.076595
C13   C     C_3   0.555946 0.433717 0.122555 -0.285440
C14   C     C_3   0.629276 0.623374 0.138567 -0.111779
C15   C     C_3   0.604028 0.501733 0.072452 0.164574
C16   C     C_R   0.098403 0.592324 0.794485 -0.155137
C17   C     C_3   0.427134 0.502756 0.058580 0.098808
C18   C     C_3   0.455326 0.442501 0.121596 0.581298
C19   C     C_3   0.524189 0.623283 0.125213 -0.570109
C20   C     C_R   0.579167 0.112306 0.468643 -0.072897
C21   C     C_R   0.579277 0.166108 0.566287 0.085856
C22   C     C_R   0.479181 0.148529 0.559764 -0.184441
C23   C     C_R   0.069476 0.502034 0.700382 0.087833
C24   C     C_R   0.382209 0.059791 0.464432 -0.180375
C25   C     C_R   0.385830 0.988255 0.376327 0.111638
C26   C     C_R   0.483837 0.025497 0.374769 0.073256
C27   C     C_3   0.539648 0.964839 0.340986 -0.632264
C28   C     C_R   0.701542 0.408940 0.005956 -0.152749
C29   C     C_3   0.643678 0.059190 0.444375 0.679608
C30   C     C_R   0.145492 0.606099 0.530330 0.085135
C31   C     C_R   0.095785 0.506402 0.431799 0.028421
C32   C     C_R   0.075799 0.409627 0.437507 -0.166345
C33   C     C_R   0.081318 0.409542 0.533403 -0.200046
C34   C     C_R   0.700944 0.501006 0.069279 0.068459
C35   C     C_R   0.108831 0.506845 0.623711 0.052882
C36   C     C_R   0.156600 0.606954 0.626307 0.144769
C37   C     C_3   0.144736 0.707090 0.666707 -0.580860
C38   C     C_3   0.128523 0.704014 0.559717 -0.177380
C39   C     C_R   0.845890 0.875174 0.949553 0.059904
C40   C     C_R   0.006061 0.409373 0.699893 -0.157910
C41   C     C_R   0.899149 0.829656 0.904090 0.100624
C42   C     C_R   0.924910 0.859746 0.831973 -0.188157
C43   C     C_R   0.924725 0.953334 0.830659 -0.141323
C44   C     C_R   0.897973 0.015731 0.900855 0.078732
C45   C     C_R   0.069343 0.592134 0.313231 -0.113246
C46   C     C_R   0.846107 0.967437 0.948449 -0.063214
C47   C     C_3   0.857007 0.015220 0.060504 0.668896
C48   C     C_3   0.856499 0.914403 0.061896 -0.621606
C49   C     C_R   0.793554 0.592084 0.098947 -0.155695
C50   C     C_R   0.686098 0.249098 0.775024 -0.137593
C51   C     C_R   0.025055 0.749409 0.934299 -0.119621
C52   C     C_R   0.946898 0.773128 0.948453 0.065332
C53   C     C_1   0.155870 0.847758 0.355393 -0.024229
C54   C     C_1   0.372295 0.487675 0.870482 0.063775
C55   C     C_1   0.526705 0.316618 0.065897 0.209295
C56   C     C_R   0.223147 0.408214 0.972970 -0.069025
C57   C     C_1   0.709746 0.680614 0.257181 0.062437
C58   C     C_1   0.016809 0.676971 0.490983 0.140248
C59   C     C_R   0.296679 0.805179 0.205894 -0.169617
C60   C     C_R   0.905454 0.195987 0.995468 -0.024026
C61   C     C_R   0.998630 0.195545 0.906380 -0.103911
F1    F     F_    0.366068 0.339546 0.076426 -0.710182
F2    F     F_    0.681513 0.026033 0.518264 -0.688239
F3    F     F_    0.956602 0.110111 0.139799 -0.697073
H1    H     H_    0.870332 0.744152 0.047295 0.113175
H2    H     H_    0.804340 0.248657 0.624071 0.085736
H3    H     H_    0.350198 0.354344 0.897442 0.139600
H4    H     H_    0.662930 0.672993 0.104100 0.124574
H5    H     H_    0.509812 0.668697 0.081079 0.189964
H6    H     H_    0.531149 0.668306 0.206665 0.181369
H7    H     H_    0.618656 0.470144 0.209467 0.101677
H8    H     H_    0.475915 0.491717 0.208337 0.042920
H9    H     H_    0.475650 0.194551 0.631380 0.121958
H10   H     H_    0.163205 0.675978 0.832436 0.108746
H11   H     H_    0.307821 0.042927 0.466313 0.143971
H12   H     H_    0.202778 0.322768 0.935588 0.147224
H13   H     H_    0.512860 0.885636 0.341335 0.234096
H14   H     H_    0.540218 0.959190 0.264677 0.151625
H15   H     H_    0.706008 0.106251 0.428822 -0.017169
H16   H     H_    0.043348 0.331734 0.364943 0.172110
H17   H     H_    0.051629 0.331313 0.531110 0.135510
H18   H     H_    0.072220 0.691780 0.677334 0.198740
H19   H     H_    0.221974 0.780538 0.739464 0.190682
H20   H     H_    0.645164 0.323253 0.972604 0.098308
H21   H     H_    0.193145 0.777902 0.570852 0.138248
H22   H     H_    0.958569 0.821095 0.788136 0.123504
H23   H     H_    0.343235 0.832324 0.169035 0.120228
H24   H     H_    0.957650 0.982976 0.785310 0.127495
H25   H     H_    0.785614 0.021891 0.060226 -0.022731
H26   H     H_    0.935133 0.935065 0.127072 0.237297
H27   H     H_    0.782908 0.860402 0.059766 0.148489
H28   H     H_    0.982827 0.325066 0.647225 0.100473
H29   H     H_    0.826056 0.677838 0.156658 0.104666
H30   H     H_    0.621464 0.237107 0.794436 0.098807
H31   H     H_    0.057243 0.760940 0.881481 0.096567
H32   H     H_    0.129577 0.676686 0.375016 0.107032
H33   H     H_    0.841586 0.167262 0.014207 0.074244
H34   H     H_    0.022615 0.166650 0.846332 0.093663
H35   H     H_    0.938120 0.322517 0.202443 0.130228
H36   H     H_    0.375624 0.680097 0.115273 0.106513
H37   H     H_    0.501085 0.366950 0.897402 0.157448
H38   H     H_    0.552331 0.502961 0.917167 0.177419
N1    N     N_R   0.995640 0.706130 0.053910 -0.042705
N2    N     N_R   0.054010 0.556790 0.847890 -0.040461
N3    N     N_R   0.789940 0.443190 0.997130 -0.040158
N4    N     N_R   0.997630 0.443170 0.791110 -0.045537
N5    N     N_R   0.846320 0.556810 0.053910 -0.039974
N6    N     N_R   0.791080 0.293860 0.847890 -0.050999
N7    N     N_R   0.052880 0.706130 0.997130 -0.042272
N8    N     N_R   0.002370 0.556830 0.208890 -0.041300
N9    N     N_1   0.113757 0.878927 0.400845 -0.087626
N10   N     N_1   0.341231 0.522119 0.815709 -0.087452
N11   N     N_1   0.503030 0.224626 0.022005 -0.098181
N12   N     N_R   0.153680 0.443190 0.946090 -0.055663
N13   N     N_1   0.772340 0.726054 0.350094 -0.065430
N14   N     N_1   0.929029 0.655157 0.436914 -0.084897
N15   N     N_R   0.208920 0.706140 0.152110 -0.046462
N16   N     N_R   0.947120 0.293870 0.002870 -0.054882
N17   N     N_R   0.004360 0.293870 0.946090 -0.048778
N18   N     N_R   0.151690 0.706140 0.208890 -0.059034
N19   N     N_R   0.945990 0.443210 0.152110 -0.046247
N20   N     N_R   0.210060 0.556810 0.002870 -0.039872
N21   N     N_R   0.848310 0.293860 0.791110 -0.051920
Ni1   Ni    Ni4+2 0.999010 0.630300 0.130220 0.230278
Ni2   Ni    Ni4+2 0.000990 0.369700 0.869780 0.223066
Ni3   Ni    Ni4+2 0.130280 0.630280 0.000000 0.209403
Ni4   Ni    Ni4+2 0.869720 0.369720 0.000000 0.211938

loop_
_geom_bond_atom_site_label_1
_geom_bond_atom_site_label_2
_ccdc_geom_bond_type
C50   N6    A    
C29   F2    S    
C56   H12   S    
C6    C45   A    
C27   C29   S    
C41   C42   A    
C61   H34   S    
C27   H14   S    
N2    N4    A    
C57   N13   T    
N3    N5    A    
N4    Ni2   S    
C26   C27   S    
C13   C18   S    
C9    C61   A    
C43   H24   S    
C7    C56   A    
C36   C37   S    
N19   Ni4   S    
C10   C15   S    
C8    C59   A    
C30   C31   A    
N21   Ni2   S    
C28   H20   S    
C23   C40   A    
C30   C38   S    
N16   N17   A    
N8    Ni1   S    
C38   C58   S    
C16   N2    A    
C35   C36   A    
C44   C46   A    
C7    C17   S    
C48   H27   S    
C1    H1    S    
C60   N16   A    
C42   H22   S    
C4    C12   A    
N15   Ni3   S    
C1    N1    A    
C15   C34   S    
C53   N9    T    
C6    C31   S    
C28   C34   A    
C51   N7    A    
C48   H26   S    
C21   C22   A    
C58   N14   T    
C8    C25   S    
C47   H25   S    
N5    Ni1   S    
N1    Ni1   S    
C61   N17   A    
C11   H3    S    
C20   C29   S    
C10   H37   S    
C18   H8    S    
N3    Ni4   S    
C38   H21   S    
C51   C52   A    
C10   H38   S    
C24   C25   A    
C39   C41   A    
C60   H33   S    
N15   N18   A    
C47   F3    S    
C5    C7    A    
N12   Ni2   S    
C2    N18   A    
C45   N8    A    
C50   H30   S    
C55   N11   T    
C25   C26   A    
C49   N5    A    
C5    N20   A    
C4    N21   A    
N20   Ni3   S    
C43   C44   A    
C37   C38   S    
C32   H16   S    
C47   C48   S    
C29   H15   S    
C5    H36   S    
C28   N3    A    
C17   C18   S    
C54   N10   T    
C40   H28   S    
C9    C44   S    
C11   C54   S    
C39   C46   A    
N17   Ni2   S    
C16   C23   A    
C23   C35   S    
C13   C15   S    
C16   H10   S    
C37   H18   S    
C19   H5    S    
C42   C43   A    
N6    N21   A    
C17   C19   S    
C40   N4    A    
C14   C57   S    
C46   C47   S    
C11   C17   S    
C34   C49   A    
C14   H4    S    
C41   C52   S    
C14   C19   S    
C31   C32   A    
C2    C8    A    
C27   H13   S    
C2    C53   S    
C12   C50   A    
C24   H11   S    
C13   H7    S    
C30   C36   A    
N1    N7    A    
C9    C60   A    
C32   C33   A    
N8    N19   A    
C4    H2    S    
C20   C26   A    
C12   C21   S    
C33   C35   A    
C22   C24   A    
N6    Ni4   S    
C1    C52   A    
C59   H23   S    
C10   C11   S    
C3    N19   A    
N12   N20   A    
C3    H35   S    
N7    Ni3   S    
N2    Ni3   S    
C20   C21   A    
C59   N15   A    
N16   Ni4   S    
C3    C6    A    
C56   N12   A    
C14   C15   S    
C37   H19   S    
C19   H6    S    
C18   F1    S    
C22   H9    S    
C49   H29   S    
C45   H32   S    
C33   H17   S    
N18   Ni1   S    
C51   H31   S    
C39   C48   S    
C13   C55   S    
