data_mof_unit_41887.cif
_audit_creation_date              2012-12-10T21:40:38-0500
_audit_creation_method            fapswitch 2.2
_symmetry_space_group_name_H-M    P1
_symmetry_Int_Tables_number       1
_space_group_crystal_system       triclinic
_cell_length_a                    16.16446
_cell_length_b                    16.625333
_cell_length_c                    27.453116
_cell_angle_alpha                 91.633695
_cell_angle_beta                  90.801828
_cell_angle_gamma                 84.597957
_cell_volume                      7341.51031971

loop_
_atom_site_label
_atom_site_type_symbol
_atom_type_description
_atom_site_fract_x
_atom_site_fract_y
_atom_site_fract_z
_atom_type_partial_charge
C1    C     C_R   0.486684 0.653195 0.499014 0.967842
C2    C     C_R   0.544739 0.565890 0.127010 -0.009429
C3    C     C_R   0.492138 0.511679 0.646483 -0.070967
C4    C     C_R   0.504389 0.505507 0.353167 -0.082210
C5    C     C_R   0.518131 0.587820 0.026250 0.063751
C6    C     C_R   0.424001 0.479726 0.972000 0.062579
C7    C     C_R   0.441864 0.466275 0.022048 0.004550
C8    C     C_R   0.502063 0.600071 0.975898 0.008283
C9    C     C_R   0.486883 0.521334 0.049211 0.070314
C10   C     C_R   0.457622 0.544376 0.948805 0.070269
C11   C     C_R   0.566727 0.638629 0.054335 -0.224040
C12   C     C_R   0.513246 0.346540 0.501772 0.949943
C13   C     C_R   0.372760 0.430964 0.944095 -0.226029
C14   C     C_R   0.578828 0.628307 0.103773 -0.145381
C15   C     C_R   0.365044 0.438071 0.894062 -0.144300
C16   C     C_R   0.498695 0.499879 0.593970 0.853169
C17   C     C_R   0.500838 0.502681 0.406071 0.852197
C18   C     C_R   0.525725 0.668405 0.952011 -0.229045
C19   C     C_R   0.420094 0.396522 0.044926 -0.214679
C20   C     C_R   0.472378 0.740036 0.493897 -0.267356
C21   C     C_R   0.525163 0.259571 0.509348 -0.337203
C22   C     C_R   0.512738 0.778611 0.457037 0.219755
C23   C     C_R   0.448757 0.551855 0.897691 -0.075376
C24   C     C_R   0.470185 0.223584 0.539973 0.258989
C25   C     C_R   0.500875 0.862947 0.454738 0.418363
C26   C     C_R   0.470982 0.139132 0.539489 0.421228
C27   C     C_R   0.447738 0.907041 0.488038 0.127356
C28   C     C_R   0.526923 0.091888 0.509132 0.103968
C29   C     C_R   0.398666 0.868075 0.520349 -0.094908
C30   C     C_R   0.588738 0.127018 0.483766 -0.033435
C31   C     C_R   0.414895 0.783556 0.525087 0.357968
C32   C     C_R   0.588180 0.211227 0.484245 0.327562
C33   C     C_R   0.763983 0.471295 0.469220 0.402388
C34   C     C_R   0.500675 0.510148 0.099816 -0.069104
C35   C     C_R   0.236043 0.529632 0.530441 0.412620
C36   C     C_R   0.850364 0.477660 0.466467 -0.100464
C37   C     C_R   0.149830 0.523533 0.533266 -0.115235
C38   C     C_R   0.889666 0.521296 0.503844 0.150324
C39   C     C_R   0.110332 0.478865 0.496631 0.147068
C40   C     C_R   0.493162 0.605835 0.822657 0.481411
C41   C     C_R   0.477389 0.442332 0.174916 0.485092
C42   C     C_R   0.840074 0.562766 0.540042 0.213414
C43   C     C_R   0.159728 0.436576 0.460599 0.219881
C44   C     C_R   0.752941 0.554279 0.541364 0.399443
C45   C     C_R   0.484473 0.614042 0.873665 -0.059035
C46   C     C_R   0.246900 0.445110 0.458988 0.399429
C47   C     C_R   0.407455 0.496546 0.819575 0.494634
C48   C     C_R   0.552993 0.558880 0.177321 0.490260
C49   C     C_R   0.525830 0.477237 0.729497 -0.141420
C50   C     C_R   0.452624 0.550896 0.274899 -0.147112
C51   C     C_R   0.538701 0.462023 0.679760 0.062330
C52   C     C_R   0.447472 0.556298 0.325578 0.072464
C53   C     C_R   0.433590 0.573679 0.663128 -0.199938
C54   C     C_R   0.568537 0.456616 0.330025 -0.214422
C55   C     C_R   0.419163 0.587576 0.712932 0.134412
C56   C     C_R   0.470147 0.444107 0.123398 -0.070624
C57   C     C_R   0.576225 0.454808 0.279228 0.143020
C58   C     C_R   0.466648 0.538579 0.745923 0.262937
C59   C     C_R   0.515794 0.501176 0.251988 0.268350
C60   C     C_3   0.330638 0.916783 0.549426 -0.337902
C61   C     C_3   0.244124 0.892920 0.534374 -0.376209
C62   C     C_3   0.176412 0.938523 0.565350 -0.866789
C63   C     C_3   0.655142 0.075491 0.455426 -0.286741
C64   C     C_3   0.736832 0.066416 0.484656 -0.366669
C65   C     C_3   0.804069 0.014255 0.456750 -0.850106
C66   C     C_3   0.104086 0.560707 0.577711 -0.269041
C67   C     C_R   0.513197 0.678579 0.901936 0.139113
C68   C     C_3   0.085773 0.652625 0.573397 -0.292564
C69   C     C_3   0.053479 0.691818 0.621247 -0.845151
C70   C     C_3   0.897533 0.441362 0.422021 -0.287043
C71   C     C_3   0.923044 0.507503 0.388945 -0.325218
C72   C     C_3   0.962100 0.471302 0.341979 -0.850000
C73   C     C_3   0.353641 0.652056 0.732281 -0.409232
C74   C     C_3   0.302131 0.699965 0.693405 -0.352506
C75   C     C_3   0.237059 0.761078 0.716697 -0.884129
C76   C     C_3   0.646620 0.404889 0.252858 -0.412099
C77   C     C_3   0.714999 0.364085 0.285813 -0.349017
C78   C     C_R   0.433805 0.383491 0.094790 0.108953
C79   C     C_3   0.785589 0.321387 0.255726 -0.867690
C80   C     C_3   0.525495 0.761076 0.881685 -0.370160
C81   C     C_3   0.469292 0.829192 0.907002 -0.400695
C82   C     C_3   0.476853 0.910405 0.883652 -0.857175
C83   C     C_3   0.411870 0.304675 0.116956 -0.327255
C84   C     C_3   0.388926 0.236878 0.081309 -0.435613
C85   C     C_3   0.376530 0.159886 0.108244 -0.836863
C86   C     C_3   0.383053 0.618530 0.348042 -0.438084
C87   C     C_3   0.399864 0.704929 0.335436 -0.343790
C88   C     C_3   0.342226 0.767718 0.363248 -0.850345
C89   C     C_R   0.406142 0.495456 0.870331 -0.009396
C90   C     C_3   0.598414 0.390427 0.664065 -0.445716
C91   C     C_3   0.562681 0.310478 0.674625 -0.336550
C92   C     C_3   0.615969 0.238405 0.652352 -0.856558
H1    H     H_    0.399312 0.610522 0.636456 0.189495
H2    H     H_    0.394376 0.349988 0.023583 0.138749
H3    H     H_    0.382956 0.139865 0.588023 0.383692
H4    H     H_    0.575645 0.867736 0.399454 0.384324
H5    H     H_    0.186169 0.923812 0.604353 0.261755
H6    H     H_    0.176834 0.004757 0.561192 0.273330
H7    H     H_    0.114717 0.920498 0.553436 0.251619
H8    H     H_    0.232101 0.907175 0.495438 0.231352
H9    H     H_    0.240206 0.827122 0.538294 0.248294
H10   H     H_    0.342052 0.909454 0.589105 0.199316
H11   H     H_    0.330397 0.982423 0.543380 0.261870
H12   H     H_    0.611669 0.419503 0.352278 0.186837
H13   H     H_    0.784403 0.952770 0.449407 0.270106
H14   H     H_    0.816550 0.042253 0.421660 0.266830
H15   H     H_    0.862363 0.008795 0.478780 0.251988
H16   H     H_    0.758961 0.126792 0.492531 0.243813
H17   H     H_    0.726460 0.037813 0.519910 0.226771
H18   H     H_    0.635743 0.014558 0.446579 0.243356
H19   H     H_    0.665019 0.103245 0.419845 0.237795
H20   H     H_    0.354617 0.778259 0.586238 0.335605
H21   H     H_    0.678351 0.276599 0.481016 0.338376
H22   H     H_    0.319658 0.596845 0.552168 0.401996
H23   H     H_    0.408075 0.586733 0.252647 0.136546
H24   H     H_    0.679685 0.405119 0.447033 0.388689
H25   H     H_    0.996266 0.665534 0.632414 0.295963
H26   H     H_    0.101401 0.682511 0.650445 0.258140
H27   H     H_    0.038844 0.757785 0.616626 0.246161
H28   H     H_    0.142985 0.680427 0.563645 0.239001
H29   H     H_    0.038741 0.665987 0.544135 0.245808
H30   H     H_    0.045682 0.532756 0.584073 0.226776
H31   H     H_    0.142828 0.547165 0.610809 0.224711
H32   H     H_    0.018149 0.429922 0.350343 0.297195
H33   H     H_    0.916781 0.437410 0.320951 0.258019
H34   H     H_    0.560683 0.440095 0.755951 0.139630
H35   H     H_    0.980727 0.520501 0.319166 0.250427
H36   H     H_    0.867321 0.548685 0.379373 0.232701
H37   H     H_    0.968507 0.543714 0.408051 0.241755
H38   H     H_    0.952161 0.400505 0.433072 0.242840
H39   H     H_    0.859360 0.401667 0.399807 0.239714
H40   H     H_    0.837296 0.656835 0.583771 0.344698
H41   H     H_    0.162558 0.341894 0.417310 0.347269
H42   H     H_    0.736302 0.594537 0.607761 0.326870
H43   H     H_    0.263232 0.404005 0.392763 0.324920
H44   H     H_    0.192986 0.729606 0.738336 0.265829
H45   H     H_    0.615005 0.670129 0.123834 0.189832
H46   H     H_    0.267474 0.804620 0.740795 0.266946
H47   H     H_    0.201565 0.795142 0.687737 0.253857
H48   H     H_    0.343787 0.733383 0.671215 0.232325
H49   H     H_    0.269615 0.657964 0.669243 0.256149
H50   H     H_    0.310262 0.622101 0.755343 0.216738
H51   H     H_    0.385124 0.695524 0.755910 0.218501
H52   H     H_    0.761819 0.274205 0.231247 0.266519
H53   H     H_    0.814877 0.365571 0.233530 0.263144
H54   H     H_    0.833595 0.292116 0.280465 0.255765
H55   H     H_    0.741110 0.410220 0.310167 0.247402
H56   H     H_    0.328255 0.396888 0.873918 0.187891
H57   H     H_    0.688603 0.318476 0.308377 0.242315
H58   H     H_    0.619641 0.357637 0.229824 0.218940
H59   H     H_    0.676281 0.445483 0.228279 0.221191
H60   H     H_    0.542109 0.926106 0.886048 0.265358
H61   H     H_    0.456874 0.908157 0.844794 0.264336
H62   H     H_    0.436481 0.958345 0.903081 0.252387
H63   H     H_    0.403460 0.815079 0.904271 0.234049
H64   H     H_    0.486264 0.835196 0.946170 0.226184
H65   H     H_    0.591743 0.772793 0.886440 0.208109
H66   H     H_    0.509370 0.764804 0.842580 0.255767
H67   H     H_    0.597500 0.686801 0.039345 0.141270
H68   H     H_    0.434833 0.137295 0.127314 0.264166
H69   H     H_    0.325994 0.171656 0.135257 0.267158
H70   H     H_    0.359214 0.112428 0.081749 0.250038
H71   H     H_    0.329920 0.256105 0.061827 0.227773
H72   H     H_    0.439402 0.222772 0.054422 0.233398
H73   H     H_    0.466850 0.279448 0.138256 0.234843
H74   H     H_    0.358414 0.318961 0.141752 0.244754
H75   H     H_    0.276349 0.760333 0.353627 0.259047
H76   H     H_    0.351419 0.761351 0.403178 0.253500
H77   H     H_    0.356169 0.829361 0.353535 0.265134
H78   H     H_    0.337328 0.386602 0.959722 0.139487
H79   H     H_    0.465269 0.714834 0.344769 0.261713
H80   H     H_    0.390311 0.714143 0.295758 0.228768
H81   H     H_    0.320346 0.606165 0.334308 0.210717
H82   H     H_    0.381825 0.615857 0.388174 0.226000
H83   H     H_    0.618224 0.243195 0.612116 0.250582
H84   H     H_    0.680134 0.235701 0.667624 0.261403
H85   H     H_    0.588696 0.181624 0.660796 0.263817
H86   H     H_    0.559500 0.302984 0.714638 0.232012
H87   H     H_    0.498677 0.310995 0.659306 0.247182
H88   H     H_    0.612591 0.391132 0.624767 0.220737
H89   H     H_    0.551644 0.717008 0.971759 0.138312
H90   H     H_    0.658462 0.393535 0.683967 0.211169
H91   H     H_    0.437308 0.321036 0.578717 0.338477
H92   H     H_    0.550244 0.679987 0.420021 0.337409
N1    N     N_R   0.453682 0.548714 0.797124 -0.348324
N2    N     N_R   0.517625 0.499314 0.200008 -0.346882
N3    N     N_2   0.450529 0.991191 0.492592 -0.083185
N4    N     N_2   0.521827 0.008061 0.504169 -0.103016
N5    N     N_R   0.716920 0.509720 0.505950 -0.172270
N6    N     N_R   0.283080 0.490280 0.494050 -0.171963
N7    N     N_2   0.976720 0.532203 0.503403 -0.129473
N8    N     N_2   0.023303 0.468229 0.497483 -0.118554
O1    O     O_R   0.422540 0.612660 0.497870 -0.638031
O2    O     O_2   0.442555 0.386520 0.200447 -0.591770
O3    O     O_2   0.594292 0.612304 0.203795 -0.567741
O4    O     O_2   0.365938 0.443794 0.792726 -0.566523
O5    O     O_3   0.419135 0.100075 0.568635 -0.770692
O6    O     O_3   0.539607 0.905273 0.420365 -0.767108
O7    O     O_3   0.377969 0.741128 0.560219 -0.792419
O8    O     O_3   0.646473 0.245139 0.457410 -0.758031
O9    O     O_3   0.271970 0.574277 0.566432 -0.772678
O10   O     O_3   0.727698 0.427451 0.433007 -0.779077
O11   O     O_3   0.878368 0.612450 0.572618 -0.776606
O12   O     O_R   0.577460 0.387340 0.502130 -0.667461
O13   O     O_3   0.121300 0.386006 0.428602 -0.777209
O14   O     O_3   0.702795 0.590386 0.577486 -0.713109
O15   O     O_3   0.296889 0.408478 0.422957 -0.711064
O16   O     O_3   0.415062 0.268883 0.570300 -0.753792
O17   O     O_3   0.564444 0.736453 0.423432 -0.763205
O18   O     O_R   0.561850 0.618900 0.501690 -0.558315
O19   O     O_R   0.438150 0.381100 0.498310 -0.539191
O20   O     O_R   0.430360 0.496870 0.569340 -0.612043
O21   O     O_R   0.569640 0.503130 0.430660 -0.613847
O22   O     O_R   0.569660 0.503110 0.573150 -0.565972
O23   O     O_R   0.430340 0.496890 0.426850 -0.569780
O24   O     O_2   0.545087 0.649683 0.798942 -0.580067
Zn1   Zn    Zn3+2 0.406980 0.495830 0.497450 1.011122
Zn2   Zn    Zn3+2 0.593020 0.504170 0.502550 0.997167

loop_
_geom_bond_atom_site_label_1
_geom_bond_atom_site_label_2
_ccdc_geom_bond_type
C66   C68   S    
C87   C88   S    
C91   H86   S    
C34   C56   A    
C23   C45   A    
C43   O13   S    
C85   H69   S    
C73   C74   S    
C69   H26   S    
C1    O1    A    
C81   H63   S    
C54   C57   A    
C31   O7    S    
C81   C82   S    
C90   C91   S    
C11   H67   S    
H92   O17   S    
C79   H53   S    
C92   H84   S    
O1    Zn1   S    
C49   H34   S    
C83   H73   S    
C81   H64   S    
C4    C52   A    
C50   C59   A    
C57   C76   S    
C54   H12   S    
C35   C37   A    
C24   C26   A    
C38   C42   A    
O23   Zn1   S    
C51   C90   S    
C15   H56   S    
C11   C14   A    
C17   O21   A    
C57   C59   A    
C27   C29   A    
O20   Zn1   S    
H41   O13   S    
C22   O17   S    
C33   O10   S    
C70   H38   S    
C33   C36   A    
C56   C78   A    
C59   N2    S    
C33   N5    A    
C50   H23   S    
C26   O5    S    
C25   O6    S    
C62   H6    S    
C82   H61   S    
C78   C83   S    
H21   O8    S    
C90   H90   S    
C68   C69   S    
C49   C51   A    
C22   C25   A    
C91   H87   S    
C45   C67   A    
C50   C52   A    
C66   H30   S    
C70   C71   S    
C85   H68   S    
C47   N1    A    
C60   H11   S    
C77   H55   S    
H20   O7    S    
C84   H72   S    
C2    C34   A    
C77   C79   S    
H91   O16   S    
C30   C63   S    
C72   H32   S    
C58   N1    S    
C85   H70   S    
C47   C89   A    
C42   O11   S    
C46   O15   S    
C42   C44   A    
C52   C86   S    
C46   N6    A    
C60   H10   S    
C65   H13   S    
C83   H74   S    
C36   C70   S    
C64   H16   S    
C79   H54   S    
C69   H27   S    
C73   H50   S    
C53   C55   A    
C92   H83   S    
C40   C45   A    
O19   Zn1   S    
C21   C32   A    
C90   H88   S    
C74   C75   S    
C72   H35   S    
C53   H1    S    
N7    N8    D    
C47   O4    S    
C16   O20   A    
C64   H17   S    
C76   C77   S    
O22   Zn2   S    
C77   H57   S    
C91   C92   S    
C3    C51   A    
C86   C87   S    
C35   O9    S    
C39   C43   A    
C40   N1    A    
C18   H89   S    
C88   H76   S    
C18   C67   A    
C74   H48   S    
C12   C21   S    
C24   O16   S    
C8    C18   A    
C49   C58   A    
C63   C64   S    
O12   Zn2   S    
C60   C61   S    
C86   H82   S    
C55   C73   S    
C19   C78   A    
C61   H9    S    
C41   C56   A    
C5    C9    A    
C41   O2    S    
C44   N5    A    
C71   H37   S    
C62   H5    S    
C80   H66   S    
C83   C84   S    
C14   H45   S    
C76   H58   S    
H3    O5    S    
C88   H75   S    
C87   H79   S    
C37   C66   S    
C40   O24   S    
C44   O14   S    
C23   C89   A    
H4    O6    S    
H22   O9    S    
C15   C89   A    
C27   N3    S    
C84   C85   S    
C48   N2    A    
C16   O22   A    
C19   H2    S    
C84   H71   S    
C4    C17   S    
C8    C10   A    
C13   H78   S    
C74   H49   S    
C20   C22   A    
C35   N6    A    
C7    C19   A    
C13   C15   A    
C48   O3    S    
C9    C34   A    
C71   H36   S    
C21   C24   A    
C61   H8    S    
N6    Zn1   S    
C65   H14   S    
N5    Zn2   S    
H43   O15   S    
C73   H51   S    
C7    C9    A    
H40   O11   S    
C88   H77   S    
C4    C54   A    
C1    O18   A    
C75   H44   S    
C67   C80   S    
C12   O19   A    
C80   C81   S    
C1    C20   S    
C75   H46   S    
O18   Zn2   S    
C68   H29   S    
C6    C10   A    
C5    C8    A    
H24   O10   S    
O21   Zn2   S    
C5    C11   A    
C6    C7    A    
C10   C23   A    
C25   C27   A    
C26   C28   A    
C76   H59   S    
C79   H52   S    
C72   H33   S    
C86   H81   S    
C2    C48   A    
C64   C65   S    
C63   H18   S    
C36   C38   A    
C71   C72   S    
C29   C31   A    
C75   H47   S    
C68   H28   S    
C6    C13   A    
C30   C32   A    
C39   N8    S    
C3    C53   A    
C80   H65   S    
C87   H80   S    
C69   H25   S    
C70   H39   S    
C28   N4    S    
C28   C30   A    
C41   N2    A    
C12   O12   A    
C63   H19   S    
C61   C62   S    
C2    C14   A    
C43   C46   A    
H42   O14   S    
C92   H85   S    
C62   H7    S    
C82   H62   S    
C37   C39   A    
C32   O8    S    
C38   N7    S    
C55   C58   A    
C66   H31   S    
C29   C60   S    
N3    N4    D    
C17   O23   A    
C65   H15   S    
C82   H60   S    
C3    C16   S    
C20   C31   A    
