data_mof_unit_9340.cif
_audit_creation_date              2013-03-05T16:10:46-0500
_audit_creation_method            fapswitch 2.2
_symmetry_space_group_name_H-M    P1
_symmetry_Int_Tables_number       1
_space_group_crystal_system       triclinic
_cell_length_a                    22.369091
_cell_length_b                    7.09586
_cell_length_c                    19.423301
_cell_angle_alpha                 90.002698
_cell_angle_beta                  99.630413
_cell_angle_gamma                 90.002018
_cell_volume                      3039.57266337

loop_
_atom_site_label
_atom_site_type_symbol
_atom_site_description
_atom_site_fract_x
_atom_site_fract_y
_atom_site_fract_z
_atom_type_partial_charge
O1    O     O_R   0.443980 0.494320 0.557430 -0.565252
O2    O     O_R   0.556020 0.994320 0.442570 -0.565261
O3    O     O_R   0.441210 0.822520 0.414610 -0.595912
O4    O     O_R   0.558790 0.322520 0.585390 -0.595928
C1    C     C_R   0.426924 0.655528 0.388556 1.014292
C2    C     C_R   0.573079 0.155542 0.611441 1.014121
O5    O     O_R   0.436920 0.823940 0.555180 -0.570956
O6    O     O_R   0.563080 0.323940 0.444820 -0.570878
O7    O     O_R   0.551700 0.995760 0.584140 -0.578832
O8    O     O_R   0.448300 0.495760 0.415860 -0.578843
C3    C     C_R   0.421698 0.655372 0.574955 0.947933
C4    C     C_R   0.578303 0.155373 0.425046 0.947886
O9    O     O_3   0.537660 0.661290 0.509340 -0.277359
O10   O     O_3   0.462340 0.161290 0.490660 -0.277403
V1    V     V_3+5 0.493010 0.935560 0.498270 1.249671
V2    V     V_3+5 0.506990 0.435560 0.501730 1.249729
C5    C     C_R   0.755881 0.936668 0.212196 -0.290054
C6    C     C_R   0.244120 0.436679 0.787803 -0.290080
H1    H     H_    0.761245 0.808309 0.183623 0.170847
H2    H     H_    0.238753 0.308324 0.816372 0.170847
C7    C     C_R   0.792932 0.091907 0.204131 0.127924
C8    C     C_R   0.207068 0.591910 0.795870 0.127927
C9    C     C_R   0.786409 0.257253 0.241617 -0.154669
C10   C     C_R   0.213591 0.757249 0.758386 -0.154645
H3    H     H_    0.814507 0.378850 0.236074 0.127430
H4    H     H_    0.185492 0.878841 0.763929 0.127429
C11   C     C_R   0.743577 0.267429 0.286656 -0.137318
C12   C     C_R   0.256422 0.767419 0.713346 -0.137361
H5    H     H_    0.739375 0.397258 0.314815 0.171713
H6    H     H_    0.260626 0.897244 0.685191 0.171718
C13   C     C_R   0.706380 0.112590 0.295325 -0.028451
C14   C     C_R   0.293620 0.612588 0.704676 -0.028456
C15   C     C_R   0.712704 0.943974 0.257696 0.344802
C16   C     C_R   0.287296 0.443979 0.742302 0.344847
C17   C     C_1   0.838038 0.080602 0.158049 0.016278
C18   C     C_1   0.161962 0.580605 0.841951 0.016267
C19   C     C_1   0.661387 0.131920 0.341432 0.149080
C20   C     C_1   0.338614 0.631917 0.658570 0.149136
C21   C     C_1   0.623740 0.145113 0.379738 -0.171415
C22   C     C_1   0.376262 0.645112 0.620263 -0.171344
C23   C     C_1   0.875965 0.071467 0.119962 -0.290175
C24   C     C_1   0.124034 0.571467 0.880038 -0.290178
C25   C     C_R   0.633110 0.196083 0.805122 -0.249041
C26   C     C_R   0.366939 0.695149 0.194828 -0.249044
H7    H     H_    0.716522 0.200790 0.919184 0.149747
H8    H     H_    0.283544 0.699464 0.080748 0.149750
H9    H     H_    0.616285 0.225515 0.853212 0.179753
H10   H     H_    0.383777 0.724142 0.146712 0.179808
C27   C     C_R   0.613972 0.149220 0.679659 -0.265979
C28   C     C_R   0.386041 0.649125 0.320332 -0.266010
C29   C     C_R   0.908845 0.031467 0.760895 -0.159427
C30   C     C_R   0.091131 0.532034 0.239124 -0.159469
C31   C     C_R   0.871602 0.026359 0.696025 -0.093722
C32   C     C_R   0.128362 0.527157 0.304006 -0.093702
C33   C     C_R   0.809400 0.056829 0.690055 -0.178361
C34   C     C_R   0.190577 0.557408 0.309966 -0.178340
C35   C     C_R   0.782474 0.094420 0.749544 0.101767
C36   C     C_R   0.217525 0.594528 0.250454 0.101737
C37   C     C_R   0.821326 0.102035 0.816180 0.097546
C38   C     C_R   0.178686 0.601865 0.183806 0.097533
C39   C     C_R   0.718405 0.124110 0.745159 0.110091
C40   C     C_R   0.281605 0.624009 0.254829 0.110128
C41   C     C_R   0.695263 0.163721 0.807278 0.114198
C42   C     C_R   0.304773 0.663073 0.192686 0.114183
C43   C     C_R   0.734164 0.171048 0.871632 -0.170048
C44   C     C_R   0.265884 0.670131 0.128320 -0.170075
C45   C     C_R   0.796028 0.140071 0.876157 -0.214415
C46   C     C_R   0.204008 0.639403 0.123806 -0.214320
C47   C     C_R   0.676351 0.116705 0.681536 -0.284567
C48   C     C_R   0.323647 0.616899 0.318466 -0.284551
C49   C     C_R   0.592038 0.189269 0.742173 0.334947
C50   C     C_R   0.408007 0.688596 0.257788 0.334713
C51   C     C_R   0.884747 0.069432 0.821338 -0.167345
C52   C     C_R   0.115252 0.569517 0.178661 -0.167298
H11   H     H_    0.690599 0.088677 0.632214 0.115073
H12   H     H_    0.309379 0.589283 0.367804 0.115010
H13   H     H_    0.956941 0.004946 0.764041 0.107524
H14   H     H_    0.043023 0.505728 0.235989 0.107506
H15   H     H_    0.783710 0.049873 0.638039 0.112874
H16   H     H_    0.216257 0.550663 0.361992 0.112862
H17   H     H_    0.891118 0.997231 0.649753 0.115707
H18   H     H_    0.108828 0.498399 0.350293 0.115698
H19   H     H_    0.824005 0.146717 0.927295 0.117428
H20   H     H_    0.176043 0.645831 0.072657 0.117318
O11   O     O_R   0.051730 0.724670 0.084120 -0.585462
O12   O     O_R   0.948270 0.224670 0.915880 -0.585485
O13   O     O_R   0.063080 0.393540 0.944820 -0.586121
O14   O     O_R   0.936920 0.893540 0.055180 -0.586119
C53   C     C_R   0.078268 0.562110 0.924988 0.962213
C54   C     C_R   0.921731 0.062110 0.075012 0.962228
O15   O     O_R   0.058800 0.395030 0.085390 -0.585222
O16   O     O_R   0.941200 0.895030 0.914610 -0.585217
O17   O     O_R   0.943980 0.223310 0.057440 -0.586799
O18   O     O_R   0.056020 0.723310 0.942560 -0.586781
C55   C     C_R   0.073062 0.563428 0.111224 0.911500
C56   C     C_R   0.926937 0.063414 0.888775 0.911487
O19   O     O_3   0.962360 0.556290 0.990650 -0.275285
O20   O     O_3   0.037640 0.056290 0.009350 -0.275266
V3    V     V_3+5 0.006980 0.281990 0.001730 1.170263
V4    V     V_3+5 0.993020 0.781990 0.998270 1.170284
N1    N     N_R   0.676097 0.780004 0.264550 0.244038
O21   O     O_R   0.657299 0.743147 0.322981 -0.383551
O22   O     O_R   0.665875 0.657190 0.214177 -0.358969
N2    N     N_R   0.323904 0.280017 0.735448 0.244042
O23   O     O_R   0.342704 0.243149 0.677018 -0.383565
O24   O     O_R   0.334123 0.157213 0.785820 -0.359036
N3    N     N_R   0.528597 0.223762 0.742938 0.236770
O25   O     O_R   0.486870 0.140321 0.698640 -0.351199
O26   O     O_R   0.512088 0.325697 0.792224 -0.345349
N4    N     N_R   0.471465 0.722764 0.256996 0.236774
O27   O     O_R   0.513165 0.639989 0.301528 -0.351358
O28   O     O_R   0.488026 0.823700 0.207483 -0.345114

loop_
_geom_bond_atom_site_label_1
_geom_bond_atom_site_label_2
_geom_bond_distance
_ccdc_geom_bond_type
C36   C40   1.436957 A    
C44   C46   1.389362 A    
C41   C43   1.399432 A    
C45   H19   1.082805 S    
N1    O21   1.301134 A    
C49   N3    1.442587 S    
C11   H5    1.083440 S    
C18   C24   1.217075 T    
O1    C3    1.314182 A    
O2    C4    1.314184 A    
C2    O7    1.307833 A    
N2    O24   1.301570 A    
C25   C41   1.402854 A    
C26   C42   1.402824 A    
O5    C3    1.318324 A    
C15   N1    1.441680 S    
C20   C22   1.217048 T    
C10   H4    1.083399 S    
H8    C44   1.084131 S    
C30   C52   1.397541 A    
C35   C37   1.434233 A    
C36   C38   1.434243 A    
O16   C56   1.314428 A    
C40   C48   1.423320 A    
C31   H17   1.082728 S    
C53   O18   1.315072 A    
C39   C41   1.418333 A    
C28   C50   1.412593 A    
N4    O27   1.301299 A    
C40   C42   1.418331 A    
C37   C45   1.403845 A    
C43   C45   1.389384 A    
N3    O25   1.301288 A    
C13   C15   1.421355 A    
C47   H11   1.077506 S    
C14   C20   1.461286 S    
O17   V3    1.959707 S    
O13   V3    1.971630 S    
O5    V1    1.971667 S    
C23   C54   1.453878 S    
O6    V2    1.971659 S    
C27   C47   1.408759 A    
N3    O26   1.301615 A    
C5    C15   1.414962 A    
C30   H14   1.083816 S    
N2    O23   1.301139 A    
O19   V3    2.181581 S    
C30   C32   1.389882 A    
C50   N4    1.442646 S    
C9    C11   1.403193 A    
C31   C33   1.393656 A    
C7    C9    1.401238 A    
C32   C34   1.393678 A    
C11   C13   1.405226 A    
C46   H20   1.082804 S    
C10   C12   1.403182 A    
C12   C14   1.405237 A    
O4    C2    1.306923 A    
C16   N2    1.441688 S    
C13   C19   1.461289 S    
C29   C31   1.389865 A    
C14   C16   1.421347 A    
O4    V2    1.999176 S    
C29   H13   1.083820 S    
O12   V3    1.984408 S    
C33   H15   1.076648 S    
O18   V4    1.959710 S    
O6    C4    1.318311 A    
O1    V2    1.959882 S    
O2    V1    1.959881 S    
C6    C16   1.414959 A    
O14   V4    1.971622 S    
O12   C56   1.315307 A    
O14   C54   1.318471 A    
O20   V4    2.181500 S    
C33   C35   1.414876 A    
C48   H12   1.077487 S    
C8    C10   1.401226 A    
C1    C28   1.479515 S    
C32   H18   1.082734 S    
O19   V4    1.738715 S    
O3    V1    1.999083 S    
O16   V4    1.999375 S    
C54   O17   1.315074 A    
C39   C47   1.423339 A    
C37   C51   1.424308 A    
C25   C49   1.401961 A    
C6    C8    1.402961 A    
C52   C55   1.481416 S    
C29   C51   1.397534 A    
O3    C1    1.306954 A    
C35   C39   1.436947 A    
C7    C17   1.458687 S    
C8    C18   1.458675 S    
C34   H16   1.076668 S    
C24   C53   1.453868 S    
C4    C21   1.453285 S    
C12   H6    1.083414 S    
C28   C48   1.408754 A    
C1    O8    1.307815 A    
C19   C21   1.217038 T    
O11   V4    1.984461 S    
O8    V2    1.988801 S    
H7    C43   1.084112 S    
O11   C55   1.315285 A    
C38   C52   1.424305 A    
C5    H1    1.083620 S    
C34   C36   1.414937 A    
C26   C50   1.402020 A    
C6    H2    1.083611 S    
C9    H3    1.083399 S    
C2    C27   1.479501 S    
O7    V1    1.988746 S    
C3    C22   1.453284 S    
C17   C23   1.217066 T    
N4    O28   1.301673 A    
O15   C55   1.314451 A    
C38   C46   1.403874 A    
N1    O22   1.301567 A    
O20   V3    1.738773 S    
C27   C49   1.412499 A    
O9    V2    1.738991 S    
O13   C53   1.318484 A    
O10   V1    1.739049 S    
C51   C56   1.481425 S    
O15   V3    1.999279 S    
C25   H9    1.084139 S    
C26   H10   1.084156 S    
C42   C44   1.399426 A    
C5    C7    1.402948 A    
