data_mof_unit_9909.cif
_audit_creation_date              2012-12-11T15:41:20-0500
_audit_creation_method            fapswitch 2.2
_symmetry_space_group_name_H-M    P1
_symmetry_Int_Tables_number       1
_space_group_crystal_system       triclinic
_cell_length_a                    19.225672
_cell_length_b                    11.033616
_cell_length_c                    18.830108
_cell_angle_alpha                 90.354818
_cell_angle_beta                  90.348749
_cell_angle_gamma                 90.247601
_cell_volume                      3994.21745695

loop_
_atom_site_label
_atom_site_type_symbol
_atom_type_description
_atom_site_fract_x
_atom_site_fract_y
_atom_site_fract_z
_atom_type_partial_charge
C1    C     C_R   0.709700 0.000519 0.861122 0.561612
C2    C     C_R   0.302276 0.461487 0.036522 -0.024487
C3    C     C_R   0.759730 0.864013 0.352192 0.578921
C4    C     C_2   0.495452 0.170665 0.919214 -0.062938
C5    C     C_2   0.495957 0.163275 0.075768 -0.136202
C6    C     C_2   0.995452 0.670665 0.919214 -0.062938
C7    C     C_2   0.995957 0.663275 0.075768 -0.136202
C8    C     C_2   0.481989 0.064202 0.033971 0.201402
C9    C     C_2   0.487807 0.066216 0.955111 0.210562
C10   C     C_2   0.981989 0.564202 0.033971 0.201402
C11   C     C_2   0.987807 0.566216 0.955111 0.210562
C12   C     C_R   0.748474 0.407282 0.079271 0.001861
C13   C     C_R   0.191787 0.948882 0.966631 -0.039008
C14   C     C_R   0.222645 0.481259 0.936908 0.030569
C15   C     C_R   0.248474 0.907282 0.079271 0.001861
C16   C     C_R   0.722645 0.981259 0.936908 0.030569
C17   C     C_3   0.473490 0.549844 0.463185 -0.195234
C18   C     C_3   0.363898 0.293065 0.667342 -0.191990
C19   C     C_3   0.973489 0.049844 0.463186 -0.195235
C20   C     C_3   0.863897 0.793062 0.667341 -0.191994
C21   C     C_R   0.802276 0.961487 0.036522 -0.024487
C22   C     C_R   0.782949 0.300374 0.973337 -0.114479
C23   C     C_R   0.179140 0.439789 0.055576 -0.116768
C24   C     C_R   0.282948 0.800374 0.973337 -0.114479
C25   C     C_R   0.679140 0.939789 0.055576 -0.116769
C26   C     C_R   0.786321 0.314543 0.046610 -0.117147
C27   C     C_R   0.166915 0.465226 0.983728 -0.151115
C28   C     C_R   0.286321 0.814544 0.046610 -0.117147
C29   C     C_R   0.272925 0.956448 0.146633 0.546983
C30   C     C_R   0.666915 0.965226 0.983728 -0.151115
C31   C     C_3   0.680003 0.598437 0.032422 0.128505
C32   C     C_3   0.354965 0.424082 0.942533 0.105778
C33   C     C_3   0.180003 0.098437 0.032422 0.128505
C34   C     C_3   0.854965 0.924082 0.942533 0.105778
C35   C     C_3   0.673821 0.577905 0.952793 -0.210801
C36   C     C_3   0.368425 0.396359 0.020403 -0.224896
C37   C     C_3   0.173821 0.077905 0.952793 -0.210801
C38   C     C_3   0.868425 0.896359 0.020403 -0.224896
C39   C     C_R   0.739513 0.375263 0.931884 0.016798
C40   C     C_R   0.209700 0.500519 0.861122 0.561612
C41   C     C_R   0.247722 0.429138 0.081524 0.007565
C42   C     C_R   0.239513 0.875263 0.931884 0.016799
C43   C     C_R   0.747722 0.929138 0.081524 0.007565
C44   C     C_R   0.496747 0.175489 0.425927 -0.034959
C45   C     C_R   0.505677 0.160562 0.573138 0.060878
C46   C     C_R   0.996747 0.675489 0.425927 -0.034959
C47   C     C_R   0.005678 0.660562 0.573138 0.060878
C48   C     C_R   0.480468 0.274360 0.469516 -0.017549
C49   C     C_R   0.485141 0.266530 0.541361 0.054000
C50   C     C_R   0.980468 0.774360 0.469516 -0.017548
C51   C     C_R   0.772925 0.456448 0.146633 0.546983
C52   C     C_R   0.985141 0.766530 0.541361 0.054000
C53   C     C_R   0.524475 0.059513 0.530204 0.218902
C54   C     C_R   0.524002 0.070237 0.456063 0.192680
C55   C     C_R   0.024476 0.559513 0.530204 0.218902
C56   C     C_R   0.024002 0.570237 0.456063 0.192680
C57   C     C_R   0.528792 0.177694 0.849664 0.575622
C58   C     C_R   0.468593 0.176577 0.148302 0.568457
C59   C     C_R   0.028792 0.677694 0.849664 0.575622
C60   C     C_R   0.968593 0.676577 0.148302 0.568457
C61   C     C_3   0.414537 0.346736 0.475734 0.027257
C62   C     C_R   0.696990 0.466662 0.039280 0.052474
C63   C     C_3   0.423136 0.343312 0.556311 0.039462
C64   C     C_3   0.914537 0.846735 0.475734 0.027257
C65   C     C_3   0.923135 0.843311 0.556311 0.039462
C66   C     C_R   0.754493 0.410433 0.421161 0.018989
C67   C     C_R   0.225496 0.468721 0.565906 -0.054853
C68   C     C_R   0.254493 0.910433 0.421161 0.018989
C69   C     C_R   0.725497 0.968721 0.565907 -0.054851
C70   C     C_R   0.808279 0.371562 0.464727 0.025153
C71   C     C_R   0.190351 0.373331 0.533667 0.044460
C72   C     C_R   0.308279 0.871562 0.464727 0.025154
C73   C     C_R   0.289930 0.486582 0.965589 0.021782
C74   C     C_R   0.690351 0.873331 0.533667 0.044460
C75   C     C_R   0.798335 0.342338 0.533512 -0.033962
C76   C     C_R   0.201509 0.346272 0.464781 0.083915
C77   C     C_R   0.298335 0.842339 0.533512 -0.033962
C78   C     C_R   0.701510 0.846271 0.464781 0.083913
C79   C     C_R   0.678408 0.399725 0.523000 0.187131
C80   C     C_R   0.269422 0.524485 0.448098 0.221471
C81   C     C_R   0.178408 0.899725 0.523000 0.187131
C82   C     C_R   0.769422 0.024484 0.448098 0.221471
C83   C     C_R   0.687486 0.415564 0.449514 -0.097740
C84   C     C_R   0.196990 0.966662 0.039280 0.052474
C85   C     C_R   0.263986 0.547610 0.521987 -0.144957
C86   C     C_R   0.187486 0.915564 0.449514 -0.097740
C87   C     C_R   0.763987 0.047609 0.521987 -0.144956
C88   C     C_3   0.880123 0.417049 0.477860 -0.175051
C89   C     C_3   0.178203 0.242592 0.551937 -0.163571
C90   C     C_3   0.380123 0.917050 0.477860 -0.175052
C91   C     C_3   0.678203 0.742591 0.551937 -0.163571
C92   C     C_3   0.869911 0.379526 0.554700 0.150356
C93   C     C_3   0.190630 0.214924 0.473683 0.129402
C94   C     C_3   0.369911 0.879528 0.554700 0.150355
C95   C     C_R   0.789930 0.986582 0.965589 0.021782
C96   C     C_3   0.690630 0.714924 0.473683 0.129402
C97   C     C_R   0.734933 0.360626 0.565711 0.045582
C98   C     C_R   0.243425 0.414989 0.421021 0.033362
C99   C     C_R   0.234934 0.860626 0.565711 0.045583
C100  C     C_R   0.743425 0.914988 0.421021 0.033363
C101  C     C_R   0.735811 0.354359 0.855800 0.573540
C102  C     C_R   0.261647 0.364560 0.147666 0.540162
C103  C     C_R   0.235811 0.854359 0.855800 0.573540
C104  C     C_R   0.761647 0.864560 0.147666 0.540162
C105  C     C_R   0.711652 0.996091 0.639866 0.542187
C106  C     C_R   0.691787 0.448882 0.966631 -0.039008
C107  C     C_R   0.272690 0.955876 0.352045 0.552923
C108  C     C_R   0.211652 0.496092 0.639866 0.542187
C109  C     C_R   0.772690 0.455876 0.352045 0.552923
C110  C     C_R   0.531139 0.174511 0.644370 0.579248
C111  C     C_R   0.469695 0.177583 0.355013 0.572917
C112  C     C_R   0.031140 0.674511 0.644370 0.579249
C113  C     C_R   0.969695 0.677583 0.355013 0.572917
C114  C     C_R   0.728093 0.322352 0.638866 0.573199
C115  C     C_R   0.259730 0.364013 0.352192 0.578921
C116  C     C_R   0.228093 0.822352 0.638866 0.573199
Cl1   Cl    Cl    0.460387 0.921003 0.070554 -0.473271
Cl2   Cl    Cl    0.114770 0.175688 0.424973 -0.547408
Cl3   Cl    Cl    0.370224 0.002250 0.616725 -0.564478
Cl4   Cl    Cl    0.614770 0.675689 0.424973 -0.547408
Cl5   Cl    Cl    0.598725 0.633739 0.072801 -0.520203
Cl6   Cl    Cl    0.338314 0.290897 0.890243 -0.625694
Cl7   Cl    Cl    0.098725 0.133739 0.072801 -0.520203
Cl8   Cl    Cl    0.838314 0.790897 0.890243 -0.625694
Cl9   Cl    Cl    0.536268 0.914410 0.566691 -0.554340
Cl10  Cl    Cl    0.552218 0.950023 0.401377 -0.486616
Cl11  Cl    Cl    0.036268 0.414410 0.566691 -0.554337
Cl12  Cl    Cl    0.479746 0.926010 0.908458 -0.478996
Cl13  Cl    Cl    0.052218 0.450022 0.401377 -0.486616
Cl14  Cl    Cl    0.960387 0.421003 0.070554 -0.473271
Cl15  Cl    Cl    0.979746 0.426010 0.908458 -0.478996
Cl16  Cl    Cl    0.601812 0.454561 0.560733 -0.652559
Cl17  Cl    Cl    0.306904 0.629619 0.389952 -0.621003
Cl18  Cl    Cl    0.101812 0.954561 0.560734 -0.652557
Cl19  Cl    Cl    0.806904 0.129618 0.389952 -0.621004
Cl20  Cl    Cl    0.870225 0.502248 0.616725 -0.564477
Cr1   Cr    Cr6+3 0.769260 0.163750 0.750730 1.057023
Cr2   Cr    Cr6+3 0.385810 0.322400 0.252290 1.065582
Cr3   Cr    Cr6+3 0.114190 0.822400 0.747710 1.079345
Cr4   Cr    Cr6+3 0.885810 0.822400 0.252290 1.065582
Cr5   Cr    Cr6+3 0.230740 0.163750 0.249270 1.137088
Cr6   Cr    Cr6+3 0.269260 0.663750 0.750730 1.057023
Cr7   Cr    Cr6+3 0.730740 0.663750 0.249270 1.137088
Cr8   Cr    Cr6+3 0.612640 0.009910 0.748780 1.136400
Cr9   Cr    Cr6+3 0.387360 0.009910 0.251220 1.148948
Cr10  Cr    Cr6+3 0.112640 0.509910 0.748780 1.136401
Cr11  Cr    Cr6+3 0.887360 0.509910 0.251220 1.148948
Cr12  Cr    Cr6+3 0.614190 0.322400 0.747710 1.079344
H1    H     H_    0.868884 0.794574 0.455304 0.113456
H2    H     H_    0.124262 0.223147 0.569091 0.262180
H3    H     H_    0.383719 0.016597 0.469941 0.140072
H4    H     H_    0.624261 0.723147 0.569090 0.262180
H5    H     H_    0.919317 0.361241 0.449733 0.208060
H6    H     H_    0.218211 0.203854 0.587802 0.129493
H7    H     H_    0.419317 0.861242 0.449733 0.208060
H8    H     H_    0.718210 0.703853 0.587802 0.129491
H9    H     H_    0.901837 0.300514 0.570917 0.181098
H10   H     H_    0.238034 0.160852 0.462793 0.091340
H11   H     H_    0.401837 0.800516 0.570917 0.181100
H12   H     H_    0.936385 0.930029 0.583205 0.174738
H13   H     H_    0.738034 0.660851 0.462793 0.091339
H14   H     H_    0.517700 0.245123 0.053373 0.069223
H15   H     H_    0.487537 0.257137 0.945364 0.089565
H16   H     H_    0.017700 0.745123 0.053373 0.069223
H17   H     H_    0.987537 0.757137 0.945364 0.089565
H18   H     H_    0.816751 0.233885 0.949171 0.168927
H19   H     H_    0.135229 0.418776 0.089166 0.210402
H20   H     H_    0.316751 0.733885 0.949171 0.168927
H21   H     H_    0.635229 0.918776 0.089166 0.210403
H22   H     H_    0.823986 0.261877 0.076136 0.189548
H23   H     H_    0.368883 0.294575 0.455304 0.113457
H24   H     H_    0.114288 0.465618 0.963952 0.181805
H25   H     H_    0.323986 0.761877 0.076136 0.189548
H26   H     H_    0.614288 0.965618 0.963952 0.181805
H27   H     H_    0.223799 0.159465 0.047668 0.143646
H28   H     H_    0.893609 0.987406 0.919265 0.156298
H29   H     H_    0.723799 0.659465 0.047668 0.143646
H30   H     H_    0.393609 0.487406 0.919265 0.156298
H31   H     H_    0.620152 0.587323 0.931282 0.197512
H32   H     H_    0.365697 0.298360 0.033690 0.159437
H33   H     H_    0.120152 0.087323 0.931282 0.197513
H34   H     H_    0.436386 0.430031 0.583204 0.174738
H35   H     H_    0.865696 0.798360 0.033690 0.159437
H36   H     H_    0.714543 0.625973 0.922026 0.181262
H37   H     H_    0.414665 0.444827 0.042332 0.157463
H38   H     H_    0.214544 0.125973 0.922026 0.181262
H39   H     H_    0.914665 0.944827 0.042332 0.157463
H40   H     H_    0.412916 0.463970 0.390134 0.331236
H41   H     H_    0.471451 0.577326 0.519706 0.185724
H42   H     H_    0.467557 0.634058 0.431730 0.222375
H43   H     H_    0.523365 0.507199 0.449324 0.236168
H44   H     H_    0.320479 0.288795 0.566731 0.239472
H45   H     H_    0.644131 0.441380 0.416293 0.191951
H46   H     H_    0.315843 0.249266 0.687492 0.203180
H47   H     H_    0.362908 0.390629 0.681763 0.161468
H48   H     H_    0.408882 0.250003 0.693814 0.204738
H49   H     H_    0.912916 0.963970 0.390134 0.331235
H50   H     H_    0.971450 0.077325 0.519706 0.185723
H51   H     H_    0.967556 0.134058 0.431731 0.222374
H52   H     H_    0.023365 0.007199 0.449324 0.236169
H53   H     H_    0.820479 0.788786 0.566730 0.239473
H54   H     H_    0.815844 0.749255 0.687491 0.203183
H55   H     H_    0.862900 0.890627 0.681762 0.161472
H56   H     H_    0.290870 0.622832 0.545572 0.139859
H57   H     H_    0.908883 0.750010 0.693814 0.204735
H58   H     H_    0.144131 0.941380 0.416293 0.191951
H59   H     H_    0.790870 0.122831 0.545573 0.139858
H60   H     H_    0.883720 0.516596 0.469941 0.140073
N1    N     N_2   0.418512 0.466816 0.444305 -0.510867
N2    N     N_2   0.367757 0.277229 0.591037 -0.514795
N3    N     N_2   0.918512 0.966816 0.444305 -0.510866
N4    N     N_2   0.867757 0.777226 0.591036 -0.514797
O1    O     O_R   0.784290 0.290360 0.830540 -0.486832
O2    O     O_R   0.456020 0.282110 0.333230 -0.533270
O3    O     O_R   0.043980 0.782110 0.666770 -0.494831
O4    O     O_R   0.956020 0.782110 0.333230 -0.533270
O5    O     O_R   0.679070 0.374030 0.674430 -0.421984
O6    O     O_R   0.320930 0.374030 0.325570 -0.506480
O7    O     O_R   0.179070 0.874030 0.674430 -0.421983
O8    O     O_R   0.820930 0.874030 0.325570 -0.506480
O9    O     O_3   0.665360 0.165350 0.749070 -0.359057
O10   O     O_3   0.334640 0.165350 0.250930 -0.315728
O11   O     O_3   0.165360 0.665350 0.749070 -0.359058
O12   O     O_R   0.215710 0.290360 0.169460 -0.475917
O13   O     O_3   0.834640 0.665350 0.250930 -0.315728
O14   O     O_R   0.762610 0.041070 0.825230 -0.483393
O15   O     O_R   0.237390 0.041070 0.174770 -0.484768
O16   O     O_R   0.262610 0.541070 0.825230 -0.483393
O17   O     O_R   0.737390 0.541070 0.174770 -0.484768
O18   O     O_R   0.667390 0.924160 0.829970 -0.456178
O19   O     O_R   0.332610 0.924160 0.170030 -0.463453
O20   O     O_R   0.167390 0.424160 0.829970 -0.456178
O21   O     O_R   0.832610 0.424160 0.170030 -0.463453
O22   O     O_R   0.553980 0.081420 0.821780 -0.461951
O23   O     O_R   0.284290 0.790360 0.830540 -0.486832
O24   O     O_R   0.446020 0.081420 0.178220 -0.428710
O25   O     O_R   0.053980 0.581420 0.821780 -0.461950
O26   O     O_R   0.946020 0.581420 0.178220 -0.428710
O27   O     O_R   0.543210 0.283170 0.826740 -0.516500
O28   O     O_R   0.456790 0.283170 0.173260 -0.506145
O29   O     O_R   0.043210 0.783170 0.826740 -0.516499
O30   O     O_R   0.956790 0.783170 0.173260 -0.506145
O31   O     O_R   0.678350 0.375000 0.822720 -0.496382
O32   O     O_R   0.321650 0.375000 0.177280 -0.493355
O33   O     O_R   0.178350 0.875000 0.822720 -0.496382
O34   O     O_R   0.715710 0.790360 0.169460 -0.475917
O35   O     O_R   0.821650 0.875000 0.177280 -0.493355
O36   O     O_R   0.785060 0.289300 0.670580 -0.476721
O37   O     O_R   0.214940 0.289300 0.329420 -0.436983
O38   O     O_R   0.285060 0.789300 0.670580 -0.476721
O39   O     O_R   0.714940 0.789300 0.329420 -0.436982
O40   O     O_R   0.763330 0.040090 0.676940 -0.532290
O41   O     O_R   0.236670 0.040090 0.323060 -0.493442
O42   O     O_R   0.263330 0.540090 0.676940 -0.532288
O43   O     O_R   0.736670 0.540090 0.323060 -0.493442
O44   O     O_R   0.668160 0.923110 0.670000 -0.457716
O45   O     O_R   0.554690 0.080440 0.673480 -0.445489
O46   O     O_R   0.331840 0.923110 0.330000 -0.473860
O47   O     O_R   0.168160 0.423110 0.670000 -0.457716
O48   O     O_R   0.831840 0.423110 0.330000 -0.473861
O49   O     O_R   0.445310 0.080440 0.326520 -0.462783
O50   O     O_R   0.054690 0.580440 0.673480 -0.445489
O51   O     O_R   0.945310 0.580440 0.326520 -0.462783
O52   O     O_R   0.543980 0.282110 0.666770 -0.494831

loop_
_geom_bond_atom_site_label_1
_geom_bond_atom_site_label_2
_ccdc_geom_bond_type
C1    O14   A    
Cr5   O15   S    
C7    C10   D    
C79   C83   A    
C55   C56   A    
C40   O16   A    
C94   H11   S    
Cr6   O38   S    
C90   C94   S    
C51   O17   A    
Cr12  O27   S    
C24   C42   A    
C97   C114  S    
Cr6   O11   S    
C36   H32   S    
C111  O2    A    
C88   H60   S    
C70   C88   S    
C42   C103  S    
C86   H58   S    
C94   Cl3   S    
C57   O22   A    
C98   C115  S    
C102  O12   A    
C81   Cl18  S    
Cr10  O20   S    
C53   C54   A    
C96   H13   S    
C54   Cl10  S    
C13   C84   A    
C19   H52   S    
C103  O33   A    
Cr7   O39   S    
C5    C58   S    
C31   H29   S    
C107  O46   A    
C19   N3    S    
C32   C36   S    
Cr8   O18   S    
C24   H20   S    
C3    O39   A    
C15   C84   A    
C58   O24   A    
C71   C76   A    
C28   H25   S    
C67   C71   A    
C18   H46   S    
Cr2   O10   S    
C2    C41   A    
C16   C30   A    
C38   H39   S    
Cr4   O35   S    
C91   H4    S    
Cr1   O9    S    
C77   C94   S    
C75   C97   A    
C50   C64   S    
C41   C102  S    
C107  O41   A    
C36   H37   S    
C113  O51   A    
C112  O3    A    
Cr11  O48   S    
C61   C63   S    
C43   C104  S    
C111  O49   A    
C65   N4    S    
C22   C26   A    
C59   O25   A    
C72   C77   A    
C66   C83   A    
C21   C43   A    
C3    C100  S    
Cr4   O8    S    
C114  O36   A    
C21   C38   S    
C88   C92   S    
C101  O1    A    
C8    C9    S    
C16   C95   A    
Cr2   O2    S    
C4    C57   S    
C115  O37   A    
Cr12  O31   S    
C50   C52   A    
C64   N3    S    
C39   C101  S    
C61   H23   S    
C68   C107  S    
C23   C27   A    
C14   C27   A    
C40   O20   A    
Cr6   O23   S    
Cr12  O5    S    
H53   N4    S    
C13   C37   S    
C81   C86   A    
C69   C87   A    
Cr5   O10   S    
Cr2   O32   S    
C80   C98   A    
Cr9   O19   S    
C6    H17   S    
C45   C53   A    
C63   H34   S    
Cr7   O43   S    
Cr2   O6    S    
C89   C93   S    
C31   C62   S    
C32   H30   S    
Cr10  O47   S    
C92   Cl20  S    
C20   H57   S    
Cr7   O13   S    
C65   H12   S    
C58   O28   A    
C59   O29   A    
C1    O18   A    
C13   C42   A    
C79   C97   A    
C8    Cl1   S    
C15   C29   S    
C49   C63   S    
C67   C108  S    
C35   H31   S    
C113  O4    A    
C67   C85   A    
C9    Cl12  S    
C90   H7    S    
C18   H48   S    
Cr6   O42   S    
C14   C73   A    
C32   Cl6   S    
C44   C48   A    
C34   C95   S    
C31   Cl5   S    
C110  O45   A    
C22   C39   A    
C78   C96   S    
C99   C116  S    
Cr1   O36   S    
C69   C105  S    
C45   C110  S    
C3    O8    A    
Cr9   O10   S    
C81   C99   A    
Cr1   O14   S    
C17   H41   S    
C35   H36   S    
C109  O43   A    
C17   H43   S    
C80   Cl17  S    
C90   H3    S    
Cr1   O1    S    
C12   C26   A    
C92   H9    S    
Cr3   O3    S    
C74   C91   S    
C83   H45   S    
C77   C99   A    
Cr12  O9    S    
C10   Cl14  S    
C80   C85   A    
H49   N3    S    
C44   C54   A    
C76   C93   S    
C12   C62   A    
H40   N1    S    
C37   H38   S    
C71   C89   S    
Cr10  O25   S    
C45   C49   A    
C68   C72   A    
C104  O35   A    
C37   H33   S    
C60   O30   A    
C82   C87   A    
Cr4   O13   S    
C4    H15   S    
C69   C74   A    
C115  O6    A    
C1    C16   S    
C61   N1    S    
Cr7   O17   S    
C116  O7    A    
Cr2   O28   S    
Cr8   O45   S    
C29   O19   A    
Cr8   O9    S    
C57   O27   A    
C2    C73   A    
C53   Cl9   S    
C75   C92   S    
Cr4   O4    S    
C23   H19   S    
C68   C86   A    
Cr11  O21   S    
C25   C43   A    
C55   Cl11  S    
C34   Cl8   S    
C104  O34   A    
C2    C36   S    
C6    C11   D    
Cr9   O49   S    
C31   C35   S    
C102  O32   A    
C101  O31   A    
H44   N2    S    
C114  O5    A    
Cr11  O51   S    
Cr3   O33   S    
C93   Cl2   S    
C89   H2    S    
C7    C60   S    
C32   C73   S    
Cr1   O40   S    
Cr5   O37   S    
C12   C51   S    
C24   C28   A    
C47   C55   A    
C72   C90   S    
Cr11  O26   S    
Cr3   O11   S    
C25   C30   A    
C48   C49   A    
C19   H50   S    
C103  O23   A    
C17   N1    S    
C46   C113  S    
C108  O42   A    
Cr9   O46   S    
C34   C38   S    
C82   C100  A    
C6    C59   S    
C96   Cl4   S    
C56   Cl13  S    
C20   H55   S    
C63   N2    S    
Cr12  O52   S    
C11   Cl15  S    
C5    C8    D    
Cr6   O16   S    
C47   C52   A    
C62   C106  A    
C17   H42   S    
C21   C95   A    
C7    H16   S    
C46   C50   A    
C33   H27   S    
C19   H51   S    
C23   C41   A    
Cr7   O34   S    
Cr8   O22   S    
C64   H1    S    
C51   O21   A    
Cr5   O41   S    
C5    H14   S    
C109  O48   A    
C82   Cl19  S    
Cr11  O13   S    
C20   H54   S    
C91   H8    S    
C35   C106  S    
C88   H5    S    
C78   C100  A    
Cr10  O11   S    
Cr8   O44   S    
C89   H6    S    
C66   C70   A    
C116  O38   A    
C25   H21   S    
C79   Cl16  S    
C64   C65   S    
C85   H56   S    
C91   C96   S    
C18   H47   S    
Cr10  O50   S    
Cr4   O30   S    
C20   N4    S    
C66   C109  S    
C87   H59   S    
C93   H10   S    
Cr3   O29   S    
C33   C84   S    
C33   C37   S    
C34   H28   S    
C10   C11   S    
C38   H35   S    
Cr5   O12   S    
C14   C40   S    
C15   C28   A    
C44   C111  S    
Cr3   O7    S    
C18   N2    S    
C60   O26   A    
C26   H22   S    
C39   C106  A    
C74   C78   A    
Cr9   O24   S    
C46   C56   A    
C70   C75   A    
C33   Cl7   S    
C48   C61   S    
C29   O15   A    
C108  O47   A    
C105  O40   A    
C105  O44   A    
C22   H18   S    
C4    C9    D    
C76   C98   A    
C27   H24   S    
C30   H26   S    
C52   C65   S    
C47   C112  S    
C110  O52   A    
C112  O50   A    
