data_mof_unit_6844.cif
_audit_creation_date              2012-12-10T16:59:18-0500
_audit_creation_method            fapswitch 2.2
_symmetry_space_group_name_H-M    P1
_symmetry_Int_Tables_number       1
_space_group_crystal_system       triclinic
_cell_length_a                    7.740993
_cell_length_b                    8.560491
_cell_length_c                    27.686164
_cell_angle_alpha                 90.921318
_cell_angle_beta                  86.137887
_cell_angle_gamma                 93.768724
_cell_volume                      1826.4206995

loop_
_atom_site_label
_atom_site_type_symbol
_atom_type_description
_atom_site_fract_x
_atom_site_fract_y
_atom_site_fract_z
_atom_type_partial_charge
C1    C     C_R   0.545952 0.794853 0.498731 0.973669
C2    C     C_R   0.560606 0.648774 0.125945 -0.025555
C3    C     C_R   0.509783 0.494013 0.646492 -0.065580
C4    C     C_R   0.493422 0.508846 0.353578 -0.075278
C5    C     C_R   0.595793 0.638358 0.023615 0.048944
C6    C     C_R   0.527562 0.347927 0.974261 0.048413
C7    C     C_R   0.519224 0.353007 0.025584 0.048536
C8    C     C_R   0.606060 0.632955 0.972302 0.048414
C9    C     C_R   0.550387 0.498684 0.049903 0.074242
C10   C     C_R   0.567434 0.488546 0.948023 0.073945
C11   C     C_R   0.625368 0.779922 0.049846 -0.220104
C12   C     C_R   0.454048 0.205147 0.501268 0.975080
C13   C     C_R   0.494261 0.207012 0.947973 -0.221610
C14   C     C_R   0.607365 0.784706 0.099936 -0.137364
C15   C     C_R   0.492786 0.205487 0.897968 -0.136508
C16   C     C_R   0.502774 0.499071 0.593947 0.885316
C17   C     C_R   0.497508 0.501329 0.406088 0.887586
C18   C     C_R   0.650832 0.768062 0.944118 -0.221138
C19   C     C_R   0.476553 0.217555 0.053757 -0.223876
C20   C     C_2   0.570191 0.958370 0.497997 -0.366402
C21   C     C_2   0.429810 0.041629 0.502000 -0.366480
C22   C     C_R   0.590098 0.619653 0.820139 0.563030
C23   C     C_R   0.565875 0.485223 0.896848 -0.043831
C24   C     C_R   0.475859 0.376664 0.178481 0.557238
C25   C     C_R   0.515353 0.344779 0.821907 0.575716
C26   C     C_R   0.540069 0.653032 0.176502 0.558437
C27   C     C_R   0.669191 0.447322 0.716164 -0.073750
C28   C     C_R   0.646120 0.547570 0.275551 -0.075445
C29   C     C_R   0.661979 0.453459 0.666442 -0.186061
C30   C     C_R   0.648273 0.539944 0.325349 -0.149493
C31   C     C_R   0.364502 0.528131 0.676924 -0.250492
C32   C     C_R   0.335626 0.487419 0.331456 -0.257527
C33   C     C_R   0.369820 0.522976 0.727371 0.004715
C34   C     C_R   0.534169 0.505061 0.101207 -0.047116
C35   C     C_R   0.331693 0.494575 0.281007 0.027407
C36   C     C_R   0.525357 0.482167 0.746631 0.239383
C37   C     C_R   0.490093 0.523402 0.253125 0.224501
C38   C     C_2   0.212940 0.560871 0.758601 0.932886
C39   C     C_2   0.162717 0.471396 0.258440 0.937887
C40   C     C_R   0.602297 0.623787 0.870276 -0.027741
C41   C     C_R   0.490720 0.367859 0.127926 -0.021760
C42   C     C_R   0.647887 0.763352 0.894165 -0.139827
C43   C     C_R   0.463297 0.225166 0.103854 -0.133886
C44   C     C_R   0.525319 0.343801 0.872140 -0.018019
H1    H     H_    0.246925 0.558863 0.661256 0.195868
H2    H     H_    0.787728 0.416769 0.731316 0.168374
H3    H     H_    0.630568 0.896175 0.118234 0.191077
H4    H     H_    0.463241 0.095078 0.879661 0.195195
H5    H     H_    0.660985 0.890752 0.033053 0.138563
H6    H     H_    0.466244 0.094898 0.964671 0.140864
H7    H     H_    0.688069 0.880741 0.959235 0.141816
H8    H     H_    0.450485 0.102837 0.038547 0.141706
H9    H     H_    0.702676 0.009673 0.494176 0.181862
H10   H     H_    0.297325 0.990327 0.505820 0.181706
H11   H     H_    0.085373 0.556541 0.824697 0.348358
H12   H     H_    0.215818 0.464870 0.353531 0.187781
H13   H     H_    0.023251 0.503557 0.200713 0.339007
H14   H     H_    0.014044 0.383202 0.463429 0.196261
H15   H     H_    0.985959 0.616811 0.536567 0.195578
H16   H     H_    0.680056 0.870632 0.874345 0.193984
H17   H     H_    0.429078 0.118263 0.123689 0.198291
H18   H     H_    0.771275 0.558707 0.341720 0.183368
H19   H     H_    0.775587 0.426042 0.643681 0.169179
H20   H     H_    0.766737 0.569999 0.253974 0.163407
N1    N     N_R   0.543229 0.482202 0.797454 -0.342257
N2    N     N_R   0.498158 0.518152 0.201503 -0.340410
N3    N     N_2   0.950320 0.457960 0.486880 -0.174367
N4    N     N_2   0.049680 0.542040 0.513120 -0.175211
O1    O     O_R   0.389250 0.738570 0.503220 -0.611306
O2    O     O_2   0.440199 0.245154 0.204556 -0.523416
O3    O     O_2   0.561732 0.790514 0.200621 -0.522904
O4    O     O_2   0.475341 0.210543 0.797685 -0.525857
O5    O     O_2   0.094037 0.622569 0.740965 -0.623931
O6    O     O_R   0.198591 0.525291 0.807876 -0.806790
O7    O     O_2   0.039125 0.402211 0.280453 -0.638971
O8    O     O_R   0.143387 0.529373 0.212302 -0.800066
O9    O     O_R   0.610750 0.261430 0.496780 -0.611195
O10   O     O_R   0.678390 0.711630 0.494810 -0.629628
O11   O     O_R   0.321610 0.288370 0.505190 -0.629136
O12   O     O_R   0.355440 0.513440 0.575450 -0.618847
O13   O     O_R   0.644560 0.486560 0.424550 -0.616536
O14   O     O_R   0.644590 0.486500 0.567040 -0.631482
O15   O     O_R   0.355410 0.513500 0.432960 -0.628532
O16   O     O_2   0.622720 0.751777 0.794197 -0.517712
Zn1   Zn    Zn3+2 0.306940 0.517990 0.505620 0.957429
Zn2   Zn    Zn3+2 0.693060 0.482010 0.494380 0.958377

loop_
_geom_bond_atom_site_label_1
_geom_bond_atom_site_label_2
_ccdc_geom_bond_type
C29   H19   S    
N4    Zn1   S    
C27   C29   A    
C24   O2    S    
H13   O8    S    
C35   C37   A    
C15   C44   A    
C5    C11   A    
C18   C42   A    
C21   H10   S    
C11   C14   A    
C23   C40   A    
C12   O11   A    
C33   C36   A    
C3    C29   A    
H11   O6    S    
C19   H8    S    
N3    Zn2   S    
C31   C33   A    
C39   O7    D    
O13   Zn2   S    
C24   N2    A    
C2    C34   A    
C40   C42   A    
C37   N2    S    
C1    O10   A    
C41   C43   A    
C34   C41   A    
C24   C41   A    
C15   H4    S    
C25   C44   A    
C19   C43   A    
C18   H7    S    
C6    C7    A    
N3    N4    D    
C26   N2    A    
C32   C35   A    
C25   N1    A    
C42   H16   S    
C36   N1    S    
O14   Zn2   S    
C12   C21   S    
C1    O1    A    
C23   C44   A    
C16   O12   A    
C22   O16   S    
C35   C39   S    
C22   N1    A    
C5    C9    A    
O12   Zn1   S    
C11   H5    S    
H15   N4    S    
C22   C40   A    
C12   O9    A    
C16   O14   A    
C2    C26   A    
C25   O4    S    
C39   O8    S    
C3    C31   A    
C4    C32   A    
C4    C17   S    
C28   H20   S    
C27   H2    S    
O15   Zn1   S    
O9    Zn2   S    
C7    C19   A    
C13   C15   A    
C9    C34   A    
C27   C36   A    
O11   Zn1   S    
O1    Zn1   S    
C43   H17   S    
C38   O6    S    
C7    C9    A    
C1    C20   S    
C20   H9    S    
C6    C10   A    
C5    C8    A    
C14   H3    S    
C10   C23   A    
C33   C38   S    
C30   H18   S    
C6    C13   A    
O10   Zn2   S    
C26   O3    S    
C28   C37   A    
C28   C30   A    
C17   O13   A    
C2    C14   A    
C8    C18   A    
C13   H6    S    
H14   N3    S    
C20   C21   D    
C8    C10   A    
C31   H1    S    
C17   O15   A    
C32   H12   S    
C4    C30   A    
C3    C16   S    
C38   O5    D    
