data_mof_unit_8586.cif
_audit_creation_date              2012-12-10T20:51:46-0500
_audit_creation_method            fapswitch 2.2
_symmetry_space_group_name_H-M    P1
_symmetry_Int_Tables_number       1
_space_group_crystal_system       triclinic
_cell_length_a                    8.144483
_cell_length_b                    8.93169
_cell_length_c                    16.745382
_cell_angle_alpha                 89.524011
_cell_angle_beta                  93.937318
_cell_angle_gamma                 89.993602
_cell_volume                      1215.20874374

loop_
_atom_site_label
_atom_site_type_symbol
_atom_type_description
_atom_site_fract_x
_atom_site_fract_y
_atom_site_fract_z
_atom_type_partial_charge
C1    C     C_R   0.499976 0.218149 0.499982 0.929073
C2    C     C_R   0.614166 0.594797 0.138304 0.066927
C3    C     C_R   0.533694 0.429295 0.907602 0.242048
C4    C     C_R   0.466304 0.570739 0.092399 0.242047
C5    C     C_R   0.679074 0.456431 0.871265 -0.271342
C6    C     C_R   0.320926 0.543595 0.128736 -0.271340
C7    C     C_R   0.677378 0.473314 0.788474 0.048072
C8    C     C_R   0.322622 0.526700 0.211526 0.048072
C9    C     C_1   0.499991 0.065229 0.499996 -0.187807
C10   C     C_1   0.500009 0.934771 0.500004 -0.187806
C11   C     C_R   0.500024 0.781851 0.500018 0.929072
C12   C     C_R   0.520033 0.489929 0.654255 0.901210
C13   C     C_R   0.479967 0.510073 0.345745 0.901211
C14   C     C_R   0.527553 0.462082 0.741424 -0.098189
C15   C     C_R   0.472447 0.537928 0.258577 -0.098188
C16   C     C_R   0.382960 0.419815 0.778549 0.039466
C17   C     C_R   0.617039 0.580205 0.221454 0.039466
C18   C     C_R   0.385832 0.405235 0.861699 0.066927
H1    H     H_    0.792988 0.471225 0.907763 0.148126
H2    H     H_    0.260558 0.274979 0.936373 0.196242
H3    H     H_    0.902524 0.406339 0.766321 0.186662
H4    H     H_    0.885185 0.593635 0.779856 0.181398
H5    H     H_    0.097476 0.593669 0.233683 0.186662
H6    H     H_    0.114816 0.406375 0.220140 0.181398
H7    H     H_    0.207012 0.528802 0.092237 0.148125
H8    H     H_    0.847424 0.517046 0.254619 0.196726
H9    H     H_    0.818804 0.706786 0.252134 0.198078
H10   H     H_    0.181194 0.293232 0.747873 0.198077
H11   H     H_    0.152575 0.482972 0.745381 0.196727
H12   H     H_    0.796854 0.542341 0.066596 0.195526
H13   H     H_    0.739436 0.725067 0.063635 0.196241
H14   H     H_    0.203144 0.457706 0.933404 0.195525
N1    N     N_1   0.073640 0.500030 0.499990 -0.025548
N2    N     N_3   0.171177 0.500009 0.247240 -0.425196
N3    N     N_1   0.926360 0.499970 0.500010 -0.025548
N4    N     N_2   0.534519 0.441165 0.990697 -0.193764
N5    N     N_2   0.465481 0.558872 0.009305 -0.193765
N6    N     N_3   0.768633 0.603871 0.268011 -0.415619
N7    N     N_3   0.231365 0.396145 0.731992 -0.415619
N8    N     N_3   0.762751 0.632391 0.101266 -0.488330
N9    N     N_3   0.237246 0.367649 0.898738 -0.488332
N10   N     N_3   0.828824 0.499997 0.752759 -0.425195
O1    O     O_R   0.636850 0.285340 0.500000 -0.617182
O2    O     O_R   0.363150 0.714660 0.500000 -0.617183
O3    O     O_R   0.363100 0.285350 0.500000 -0.612686
O4    O     O_R   0.636900 0.714650 0.500000 -0.612685
O5    O     O_R   0.652140 0.498630 0.616140 -0.595474
O6    O     O_R   0.347860 0.501370 0.383860 -0.595475
O7    O     O_R   0.378390 0.498650 0.616130 -0.600715
O8    O     O_R   0.621610 0.501350 0.383870 -0.600715
Zn1   Zn    Zn3+2 0.682780 0.499990 0.500010 1.002299
Zn2   Zn    Zn3+2 0.317220 0.500010 0.499990 1.002299

loop_
_geom_bond_atom_site_label_1
_geom_bond_atom_site_label_2
_ccdc_geom_bond_type
O2    Zn2   S    
C13   O6    A    
C2    C4    A    
H14   N9    S    
C15   C17   A    
C5    H1    S    
C9    C10   T    
H10   N7    S    
C3    C5    A    
H5    N2    S    
O1    Zn1   S    
H11   N7    S    
C12   O7    A    
H12   N8    S    
C11   O2    A    
C8    N2    S    
C4    N5    S    
N1    Zn2   S    
C1    O3    A    
H4    N10   S    
C3    N4    S    
C12   O5    A    
C6    C8    A    
C4    C6    A    
N4    N5    D    
N1    N3    T    
C12   C14   S    
H2    N9    S    
C8    C15   A    
C17   N6    S    
C13   C15   S    
N3    Zn1   S    
C14   C16   A    
C18   N9    S    
C6    H7    S    
C10   C11   S    
C16   N7    S    
H3    N10   S    
C2    N8    S    
O6    Zn2   S    
C1    C9    S    
H13   N8    S    
C3    C18   A    
C16   C18   A    
C7    N10   S    
C5    C7    A    
H8    N6    S    
C11   O4    A    
O5    Zn1   S    
H9    N6    S    
O3    Zn2   S    
O8    Zn1   S    
O4    Zn1   S    
C1    O1    A    
C7    C14   A    
H6    N2    S    
C13   O8    A    
O7    Zn2   S    
C2    C17   A    
