data_mof_unit_55228.cif
_audit_creation_date              2012-12-10T16:51:00-0500
_audit_creation_method            fapswitch 2.2
_symmetry_space_group_name_H-M    P1
_symmetry_Int_Tables_number       1
_space_group_crystal_system       triclinic
_cell_length_a                    7.889581
_cell_length_b                    8.572195
_cell_length_c                    10.373836
_cell_angle_alpha                 90.848624
_cell_angle_beta                  87.297331
_cell_angle_gamma                 93.028091
_cell_volume                      699.780898658

loop_
_atom_site_label
_atom_site_type_symbol
_atom_type_description
_atom_site_fract_x
_atom_site_fract_y
_atom_site_fract_z
_atom_type_partial_charge
C1    C     C_R   0.544869 0.794022 0.496907 0.904176
C2    C     C_R   0.981131 0.625387 0.065399 -0.101574
C3    C     C_R   0.096710 0.754357 0.072427 -0.115763
C4    C     C_R   0.990083 0.621758 0.930862 -0.107882
C5    C     C_R   0.243561 0.724583 0.137401 -0.218810
C6    C     C_R   0.840073 0.627005 0.864232 -0.221256
C7    C     C_R   0.378056 0.654708 0.070326 0.082101
C8    C     C_R   0.681268 0.606033 0.929868 0.091623
C9    C     C_R   0.386330 0.659363 0.934584 0.094177
C10   C     C_R   0.674348 0.609702 0.065161 0.094122
C11   C     C_R   0.515591 0.598220 0.132457 -0.244924
C12   C     C_R   0.455145 0.206037 0.503254 0.993613
C13   C     C_R   0.527278 0.599959 0.866879 -0.247413
C14   C     C_2   0.568336 0.957458 0.495020 -0.368716
C15   C     C_2   0.431651 0.042506 0.505204 -0.400422
C16   C     C_R   0.509161 0.532788 0.736766 0.884790
C17   C     C_R   0.502779 0.531575 0.262805 0.885198
C18   C     C_R   0.260823 0.735066 0.871515 -0.204669
C19   C     C_R   0.824782 0.639649 0.129438 -0.202751
C20   C     C_R   0.102979 0.754695 0.934968 -0.106821
H1    H     H_    0.049181 0.518257 0.890775 0.176885
H2    H     H_    0.992486 0.631455 0.582547 0.173891
H3    H     H_    0.697903 0.007297 0.485173 0.179880
H4    H     H_    0.302093 0.992608 0.515062 0.175785
H5    H     H_    0.042329 0.857759 0.116478 0.144644
H6    H     H_    0.279838 0.770543 0.771803 0.162125
H7    H     H_    0.823917 0.683101 0.228137 0.177646
H8    H     H_    0.049007 0.856739 0.894641 0.146982
H9    H     H_    0.026740 0.518658 0.104940 0.167323
H10   H     H_    0.248076 0.752189 0.239469 0.168414
H11   H     H_    0.849418 0.656057 0.763716 0.157610
H12   H     H_    0.009639 0.373966 0.411402 0.192855
N1    N     N_2   0.950330 0.457950 0.466250 -0.183080
N2    N     N_2   0.049670 0.542050 0.533750 -0.184989
O1    O     O_R   0.389250 0.738570 0.508280 -0.635604
O2    O     O_R   0.610750 0.261430 0.491720 -0.600240
O3    O     O_R   0.678390 0.711630 0.486650 -0.654805
O4    O     O_R   0.321610 0.288370 0.513350 -0.619132
O5    O     O_R   0.355430 0.513480 0.694040 -0.612940
O6    O     O_R   0.644570 0.486520 0.305960 -0.616735
O7    O     O_R   0.644570 0.486540 0.672410 -0.614600
O8    O     O_R   0.355430 0.513460 0.327590 -0.621951
Zn1   Zn    Zn3+2 0.306940 0.517990 0.514440 0.913171
Zn2   Zn    Zn3+2 0.693060 0.482010 0.485560 0.918066

loop_
_geom_bond_atom_site_label_1
_geom_bond_atom_site_label_2
_ccdc_geom_bond_type
C14   H3    S    
C2    C4    A    
C5    C7    A    
C8    C13   A    
C12   O2    A    
O1    Zn1   S    
C18   H6    S    
C12   C15   S    
C1    O3    A    
C10   C19   A    
H12   N1    S    
O3    Zn2   S    
C2    C3    A    
C3    C20   A    
C7    C11   A    
C4    H1    S    
C2    H9    S    
C6    C8    A    
C8    C10   A    
C15   H4    S    
N1    N2    D    
C6    H11   S    
C18   C20   A    
C12   O4    A    
H2    N2    S    
O7    Zn2   S    
O4    Zn1   S    
O2    Zn2   S    
C10   C11   A    
C16   O5    A    
C4    C20   A    
C9    C18   A    
O6    Zn2   S    
C3    H5    S    
C19   H7    S    
C1    O1    A    
C4    C6    A    
C5    H10   S    
O8    Zn1   S    
C13   C16   S    
C7    C9    A    
C9    C13   A    
C17   O8    A    
C11   C17   S    
O5    Zn1   S    
C1    C14   S    
C20   H8    S    
C2    C19   A    
C14   C15   D    
N1    Zn2   S    
C16   O7    A    
N2    Zn1   S    
C3    C5    A    
C17   O6    A    
