data_mof_unit_33851.cif
_audit_creation_date              2012-10-26T19:21:30-0400
_audit_creation_method            fapswitch 2.2
_symmetry_space_group_name_H-M    P1
_symmetry_Int_Tables_number       1
_space_group_crystal_system       triclinic
_cell_length_a                    10.025351
_cell_length_b                    11.000928
_cell_length_c                    15.772207
_cell_angle_alpha                 99.566763
_cell_angle_beta                  78.73596
_cell_angle_gamma                 112.165678
_cell_volume                      1571.68826911

loop_
_atom_site_label
_atom_site_type_symbol
_atom_type_description
_atom_site_fract_x
_atom_site_fract_y
_atom_site_fract_z
_atom_type_partial_charge
C1    C     C_R   0.558973 0.745732 0.503965 0.581831
C2    C     C_2   0.487795 0.061603 0.521876 0.241327
C3    C     C_2   0.924834 0.487096 0.490029 0.376696
C4    C     C_2   0.075102 0.512750 0.510052 0.375682
C5    C     C_R   0.412236 0.486120 0.662366 0.580235
C6    C     C_R   0.587349 0.512196 0.337433 0.581181
C7    C     C_R   0.358433 0.467364 0.754517 0.016923
C8    C     C_R   0.637631 0.514389 0.243502 0.006581
C9    C     C_R   0.160703 0.390209 0.872102 0.104368
C10   C     C_R   0.828680 0.537915 0.119156 0.104723
C11   C     C_R   0.209443 0.417952 0.785422 -0.074364
C12   C     C_R   0.441039 0.254282 0.496022 0.584219
C13   C     C_R   0.783423 0.536829 0.209020 -0.072926
C14   C     C_R   0.459147 0.490591 0.810482 -0.102461
C15   C     C_R   0.536216 0.491370 0.187933 -0.113542
C16   C     C_R   0.415116 0.457266 0.896094 0.017302
C17   C     C_R   0.575493 0.485413 0.097486 0.009114
C18   C     C_R   0.263766 0.410828 0.927923 0.083087
C19   C     C_R   0.724773 0.513294 0.063158 0.083081
C20   C     C_R   0.518307 0.471474 0.951057 0.038951
C21   C     C_R   0.470410 0.456228 0.040724 0.036184
C22   C     C_R   0.318872 0.409113 0.070298 -0.131205
C23   C     C_R   0.667169 0.496625 0.918712 -0.130050
C24   C     C_R   0.218202 0.385667 0.014838 -0.098664
C25   C     C_R   0.767513 0.515988 0.973538 -0.099791
C26   C     C_2   0.589828 0.887351 0.512766 -0.041276
C27   C     C_2   0.410198 0.112696 0.487145 -0.035746
C28   C     C_2   0.511471 0.938160 0.478476 0.237201
Cu1   Cu    Cu3+1 0.362980 0.479380 0.485080 1.131219
Cu2   Cu    Cu3+1 0.637020 0.520620 0.514920 1.123953
H1    H     H_    0.103735 0.348790 0.041213 0.175556
H2    H     H_    0.660533 0.945234 0.560033 0.157727
H3    H     H_    0.125243 0.380215 0.411286 0.266265
H4    H     H_    0.874387 0.619011 0.589132 0.266011
H5    H     H_    0.947195 0.339803 0.856033 0.237695
H6    H     H_    0.979637 0.240074 0.912389 0.242742
H7    H     H_    0.038091 0.565669 0.133224 0.251207
H8    H     H_    0.022421 0.658416 0.064133 0.238563
H9    H     H_    0.747363 0.270296 0.666922 0.364552
H10   H     H_    0.444775 0.940931 0.258370 0.372624
H11   H     H_    0.114178 0.830297 0.636303 0.375607
H12   H     H_    0.879886 0.535066 0.944887 0.176872
H13   H     H_    0.883531 0.168189 0.365039 0.375346
H14   H     H_    0.426894 0.481963 0.217035 0.156583
H15   H     H_    0.572504 0.537021 0.785913 0.138454
H16   H     H_    0.862578 0.555651 0.252011 0.185529
H17   H     H_    0.130966 0.398995 0.741886 0.165456
H18   H     H_    0.273449 0.384080 0.135608 0.131692
H19   H     H_    0.709444 0.497266 0.850427 0.135602
H20   H     H_    0.340202 0.055128 0.439474 0.155243
N1    N     N_2   0.842890 0.551600 0.537350 -0.348582
N2    N     N_2   0.157110 0.448400 0.462650 -0.342292
N3    N     N_3   0.007168 0.339030 0.903129 -0.616053
N4    N     N_3   0.979529 0.563791 0.084636 -0.611587
O1    O     O_R   0.426810 0.668300 0.492040 -0.388857
O2    O     O_2   0.514091 0.026604 0.682927 -0.280377
O3    O     O_3   0.725990 0.218555 0.610298 -0.485469
O4    O     O_2   0.529602 0.774729 0.330124 -0.293974
O5    O     O_2   0.291283 0.792030 0.388714 -0.251116
O6    O     O_3   0.490387 0.986502 0.310797 -0.530826
O7    O     O_2   0.017631 0.586482 0.680226 -0.368512
O8    O     O_2   0.274057 0.676235 0.629756 -0.235014
O9    O     O_3   0.115516 0.775344 0.579831 -0.536510
O10   O     O_2   0.725999 0.323607 0.370278 -0.235263
O11   O     O_2   0.982621 0.411653 0.320067 -0.360263
O12   O     O_R   0.573190 0.331700 0.507960 -0.387905
O13   O     O_3   0.883150 0.223925 0.421239 -0.527352
O14   O     O_R   0.658240 0.703130 0.517240 -0.518270
O15   O     O_R   0.341760 0.296870 0.482760 -0.523389
O16   O     O_R   0.319390 0.472820 0.610170 -0.461452
O17   O     O_R   0.680610 0.527180 0.389830 -0.460927
O18   O     O_R   0.550820 0.507640 0.635370 -0.504152
O19   O     O_R   0.449180 0.492360 0.364630 -0.498180
O20   O     O_2   0.467040 0.223783 0.670128 -0.305493
S1    S     S_3+6 0.545805 0.133185 0.625341 0.014194
S2    S     S_3+6 0.452715 0.866679 0.375217 0.013867
S3    S     S_3+6 0.127797 0.635776 0.602278 0.027539
S4    S     S_3+6 0.871956 0.363535 0.398057 0.033057

loop_
_geom_bond_atom_site_label_1
_geom_bond_atom_site_label_2
_ccdc_geom_bond_type
C22   H18   S    
Cu2   N1    S    
C26   H2    S    
C8    C13   A    
H10   O6    S    
H5    N3    S    
O8    S3    D    
C11   H17   S    
C12   O15   A    
Cu2   O17   S    
O4    S2    D    
H3    N2    S    
C7    C11   A    
H4    N1    S    
C5    O16   A    
C4    N2    D    
C18   C24   A    
C15   H14   S    
C5    O18   A    
C13   H16   S    
C23   H19   S    
Cu1   O19   S    
H9    O3    S    
C1    O14   A    
H6    N3    S    
C7    C14   A    
O7    S3    D    
C2    C27   D    
C27   H20   S    
O2    S1    D    
C21   C22   A    
O13   S4    S    
C19   C25   A    
C14   H15   S    
Cu1   O15   S    
C6    O17   A    
O20   S1    D    
C12   C27   S    
C5    C7    S    
C3    N1    D    
C6    C8    S    
Cu1   O1    S    
C12   O12   A    
O6    S2    S    
C17   C21   A    
Cu1   Cu2   S    
H8    N4    S    
C20   C23   A    
C10   C19   A    
C16   C20   A    
C9    C11   A    
Cu2   O12   S    
H7    N4    S    
H13   O13   S    
C8    C15   A    
C1    C26   S    
C14   C16   A    
C9    N3    S    
H11   O9    S    
C3    C4    S    
C28   S2    S    
C6    O19   A    
Cu1   O16   S    
O9    S3    S    
C15   C17   A    
O11   S4    D    
O10   S4    D    
C10   C13   A    
C25   H12   S    
Cu2   O18   S    
C26   C28   D    
O3    S1    S    
C1    O1    A    
C24   H1    S    
C4    S3    S    
C17   C19   A    
C22   C24   A    
C23   C25   A    
C10   N4    S    
C9    C18   A    
C20   C21   A    
C16   C18   A    
C2    C28   S    
C3    S4    S    
O5    S2    D    
Cu2   O14   S    
C2    S1    S    
Cu1   N2    S    
