data_mof_unit_27104.cif
_audit_creation_date              2012-12-10T17:32:58-0500
_audit_creation_method            fapswitch 2.2
_symmetry_space_group_name_H-M    P1
_symmetry_Int_Tables_number       1
_space_group_crystal_system       triclinic
_cell_length_a                    12.382461
_cell_length_b                    13.362588
_cell_length_c                    14.335001
_cell_angle_alpha                 93.584889
_cell_angle_beta                  108.060197
_cell_angle_gamma                 116.805856
_cell_volume                      1954.65362761

loop_
_atom_site_label
_atom_site_type_symbol
_atom_type_description
_atom_site_fract_x
_atom_site_fract_y
_atom_site_fract_z
_atom_type_partial_charge
C1    C     C_R   0.650302 0.713455 0.507146 0.782661
C2    C     C_R   0.833263 0.480756 0.917588 0.015338
C3    C     C_R   0.781174 0.494897 0.990238 0.056456
C4    C     C_R   0.936008 0.453653 0.943577 0.095426
C5    C     C_R   0.999780 0.458335 0.045736 0.063325
C6    C     C_R   0.942593 0.465816 0.115172 -0.264942
C7    C     C_R   0.833098 0.480153 0.087827 -0.039617
C8    C     C_R   0.975140 0.419316 0.870333 -0.207016
C9    C     C_R   0.079937 0.399125 0.897814 -0.217263
C10   C     C_R   0.153539 0.416364 0.999582 0.100225
C11   C     C_R   0.115574 0.449749 0.074540 0.088243
C12   C     C_R   0.618290 0.516364 0.686518 0.824125
C13   C     C_R   0.264450 0.401241 0.028493 -0.026298
C14   C     C_R   0.338891 0.423262 0.130833 -0.210290
C15   C     C_R   0.196868 0.477368 0.176396 -0.214724
C16   C     C_R   0.204507 0.965399 0.446317 -0.176155
C17   C     C_R   0.260097 0.164896 0.478674 -0.049604
C18   C     C_R   0.717731 0.919169 0.555944 -0.195409
C19   C     C_R   0.812668 0.034499 0.584912 -0.161305
C20   C     C_R   0.929089 0.069958 0.569715 0.004569
C21   C     C_R   0.945348 0.989403 0.512538 0.039057
C22   C     C_R   0.846599 0.871065 0.482059 0.058510
C23   C     C_R   0.346690 0.286091 0.486693 0.818680
C24   C     C_R   0.057631 0.019981 0.487684 0.058960
C25   C     C_R   0.083187 0.933437 0.454468 0.110762
C26   C     C_R   0.983183 0.818345 0.422278 -0.053215
C27   C     C_R   0.862413 0.791213 0.425651 -0.219252
C28   C     C_R   0.140909 0.133298 0.488056 -0.193268
C29   C     C_R   0.293903 0.080924 0.461170 -0.194230
C30   C     C_R   0.736584 0.835598 0.510772 -0.089441
C31   C     C_R   0.256103 0.685753 0.661410 -0.287306
C32   C     C_R   0.650802 0.331653 0.375103 -0.009268
C33   C     C_R   0.723505 0.279931 0.363475 0.359184
C34   C     C_R   0.380068 0.481500 0.313140 0.817535
C35   C     C_R   0.858140 0.338031 0.418282 -0.187605
C36   C     C_R   0.924363 0.451188 0.479451 -0.080682
C37   C     C_R   0.843312 0.493029 0.497319 0.265050
C38   C     C_R   0.065859 0.520297 0.529563 -0.037735
C39   C     C_R   0.119572 0.619969 0.607910 0.115821
C40   C     C_R   0.036199 0.653045 0.631119 -0.086585
C41   C     C_R   0.902098 0.591452 0.575690 -0.225951
C42   C     C_R   0.157991 0.499545 0.503145 0.141945
C43   C     C_R   0.339382 0.656726 0.636020 0.052155
C44   C     C_R   0.678140 0.516622 0.792391 -0.098570
C45   C     C_R   0.305930 0.462095 0.205079 -0.076246
C46   C     C_R   0.679094 0.523056 0.962540 0.420313
C47   C     C_R   0.627166 0.530887 0.863106 -0.254907
C48   C     C_R   0.783453 0.496806 0.821088 -0.240955
Cu1   Cu    Cu3+1 0.416420 0.526630 0.522910 0.964801
Cu2   Cu    Cu3+1 0.583580 0.473370 0.477090 0.936115
H1    H     H_    0.386307 0.103790 0.454089 0.158715
H2    H     H_    0.229581 0.901633 0.425862 0.150575
H3    H     H_    0.110148 0.196811 0.489202 0.166888
H4    H     H_    0.633283 0.894779 0.576026 0.161611
H5    H     H_    0.798742 0.095653 0.626152 0.144077
H6    H     H_    0.782121 0.706610 0.383013 0.197793
H7    H     H_    0.443890 0.707278 0.677902 0.129778
H8    H     H_    0.178593 0.514239 0.234832 0.167545
H9    H     H_    0.299700 0.760387 0.722846 0.158376
H10   H     H_    0.545786 0.286614 0.335286 0.125905
H11   H     H_    0.906117 0.288371 0.417042 0.175593
H12   H     H_    0.846054 0.621477 0.599030 0.208615
H13   H     H_    0.422755 0.410162 0.152425 0.186176
H14   H     H_    0.104453 0.372190 0.838340 0.179284
H15   H     H_    0.546546 0.548316 0.841096 0.160799
H16   H     H_    0.826823 0.496122 0.766716 0.162774
H17   H     H_    0.977600 0.454269 0.190476 0.168930
H18   H     H_    0.923150 0.402317 0.790212 0.147278
N1    N     N_R   0.290690 0.566960 0.557640 -0.200238
N2    N     N_R   0.709100 0.433710 0.442970 -0.215113
O1    O     O_R   0.545970 0.684450 0.528810 -0.585349
O2    O     O_R   0.687130 0.639470 0.490120 -0.609087
O3    O     O_R   0.519670 0.535100 0.660030 -0.578773
O4    O     O_R   0.660830 0.490120 0.621340 -0.603698
O5    O     O_R   0.312870 0.360530 0.509880 -0.574103
O6    O     O_R   0.454030 0.315550 0.471190 -0.597373
O7    O     O_R   0.339170 0.509880 0.378660 -0.579483
O8    O     O_R   0.480330 0.464900 0.339970 -0.581888
C49   C     C_1   0.774847 0.475773 0.161709 0.402085
N3    N     N_1   0.727629 0.472347 0.220421 -0.276391
C50   C     C_1   0.303127 0.361427 0.955096 0.238684
N4    N     N_1   0.334000 0.329362 0.896415 -0.248224
C51   C     C_1   0.999848 0.727718 0.379775 0.252967
N5    N     N_1   0.015358 0.656321 0.346631 -0.309637
C52   C     C_1   0.032561 0.185729 0.624927 0.196077
N6    N     N_1   0.115080 0.278508 0.669054 -0.283941
C53   C     C_1   0.085576 0.753038 0.710577 0.228047
N7    N     N_1   0.124750 0.832949 0.773956 -0.266928
C54   C     C_1   0.115729 0.414566 0.413652 0.272902
N8    N     N_1   0.080900 0.345770 0.341714 -0.308416
O9    O     O_3   0.665526 0.171170 0.302481 -0.715899
H19   H     H_    0.570177 0.141697 0.269527 0.316804
O10   O     O_3   0.632306 0.544424 0.032950 -0.740975
H20   H     H_    0.565679 0.566974 0.001785 0.325822

loop_
_geom_bond_atom_site_label_1
_geom_bond_atom_site_label_2
_ccdc_geom_bond_type
C53   N7    T    
O10   H20   S    
C12   O4    A    
C9    H14   S    
C17   C29   A    
C35   C36   A    
C23   O6    A    
C4    C8    A    
C50   N4    T    
C52   N6    T    
C26   C27   A    
C17   C23   S    
C31   C43   A    
C26   C51   S    
C40   C53   S    
C21   C22   A    
C36   C37   A    
C5    C11   A    
C3    C7    A    
Cu2   O4    S    
C34   O7    A    
C5    C6    A    
C13   C50   S    
C18   C19   A    
C31   H9    S    
Cu2   O2    S    
C11   C15   A    
C19   C20   A    
Cu1   O7    S    
C8    C9    A    
Cu1   O5    S    
C18   C30   A    
C13   C14   A    
C9    C10   A    
C44   C47   A    
C43   N1    A    
Cu1   N1    S    
C37   N2    A    
C37   C41   A    
C41   H12   S    
Cu2   O8    S    
C14   C45   A    
C1    O2    A    
C16   H2    S    
C24   C25   A    
O9    H19   S    
C18   H4    S    
C27   H6    S    
C32   N2    A    
C2    C48   A    
C16   C29   A    
C42   N1    A    
C2    C4    A    
Cu2   O6    S    
C51   N5    T    
C20   C52   S    
C35   H11   S    
C34   C45   S    
C1    O1    A    
C40   C41   A    
C8    H18   S    
C22   C27   A    
C15   H8    S    
Cu1   O3    S    
C32   H10   S    
C39   C40   A    
C7    C49   S    
C29   H1    S    
C19   H5    S    
C16   C25   A    
C46   C47   A    
C6    H17   S    
C22   C30   A    
C17   C28   A    
C24   C28   A    
C23   O5    A    
C4    C5    A    
C10   C13   A    
C28   H3    S    
C38   C42   A    
C6    C7    A    
C3    C46   A    
C42   C54   S    
C32   C33   A    
C33   O9    S    
C2    C3    A    
C25   C26   A    
C12   C44   S    
C34   O8    A    
C38   C39   A    
C46   O10   S    
C14   H13   S    
C36   C38   A    
C1    C30   S    
C33   C35   A    
C31   C39   A    
Cu2   N2    S    
C10   C11   A    
C43   H7    S    
C49   N3    T    
C20   C21   A    
Cu1   Cu2   S    
Cu1   O1    S    
C21   C24   A    
C15   C45   A    
C48   H16   S    
C54   N8    T    
C12   O3    A    
C47   H15   S    
C44   C48   A    
