data_mof_unit_55445.cif
_audit_creation_date              2012-12-10T18:56:28-0500
_audit_creation_method            fapswitch 2.2
_symmetry_space_group_name_H-M    P1
_symmetry_Int_Tables_number       1
_space_group_crystal_system       triclinic
_cell_length_a                    10.720295
_cell_length_b                    9.957289
_cell_length_c                    19.230783
_cell_angle_alpha                 89.473072
_cell_angle_beta                  91.528476
_cell_angle_gamma                 90.064042
_cell_volume                      2051.97342188

loop_
_atom_site_label
_atom_site_type_symbol
_atom_type_description
_atom_site_fract_x
_atom_site_fract_y
_atom_site_fract_z
_atom_type_partial_charge
C1    C     C_R   0.872411 0.500069 0.499385 -0.037818
C2    C     C_R   0.739763 0.500052 0.499710 0.887805
C3    C     C_R   0.499399 0.500356 0.366286 0.874765
C4    C     C_R   0.500028 0.499863 0.633891 0.872216
C5    C     C_R   0.063575 0.377661 0.497464 -0.140015
C6    C     C_R   0.936442 0.622229 0.502552 -0.140483
C7    C     C_R   0.935834 0.377807 0.496465 -0.155590
C8    C     C_R   0.064163 0.622062 0.503712 -0.159630
C9    C     C_R   0.574988 0.414674 0.747465 -0.170234
C10   C     C_R   0.585204 0.426598 0.256754 -0.192648
C11   C     C_R   0.402875 0.570056 0.255355 -0.162527
C12   C     C_R   0.127594 0.499843 0.500671 -0.037629
C13   C     C_R   0.422638 0.593768 0.741799 -0.193671
C14   C     C_R   0.575039 0.415244 0.819827 -0.026343
C15   C     C_R   0.583305 0.423754 0.184344 -0.024695
C16   C     C_R   0.397711 0.570838 0.182885 -0.028738
C17   C     C_R   0.419653 0.598091 0.814161 -0.029120
C18   C     C_R   0.495831 0.506969 0.853280 -0.094604
C19   C     C_R   0.489474 0.497617 0.147283 -0.098759
C20   C     C_R   0.560316 0.070485 0.551963 -0.039369
C21   C     C_R   0.439379 0.929256 0.448093 -0.036340
C22   C     C_R   0.439485 0.072697 0.448030 -0.047029
C23   C     C_R   0.566183 0.597440 0.966233 -0.057183
C24   C     C_R   0.560781 0.927115 0.551814 -0.045031
C25   C     C_R   0.498128 0.501312 0.708940 -0.074755
C26   C     C_R   0.496638 0.500336 0.291513 -0.058537
C27   C     C_2   0.625784 0.140065 0.609256 0.968465
C28   C     C_2   0.371157 0.858877 0.391902 0.971356
C29   C     C_2   0.372563 0.145417 0.391361 0.982851
C30   C     C_2   0.629050 0.854118 0.607929 0.983552
C31   C     C_2   0.660181 0.320240 0.858194 0.921588
C32   C     C_2   0.680046 0.342424 0.149667 0.937578
C33   C     C_2   0.295953 0.649320 0.146837 0.939412
C34   C     C_R   0.413922 0.411653 0.034247 -0.056429
C35   C     C_2   0.335645 0.697994 0.846463 0.925068
C36   C     C_R   0.565825 0.593729 0.038291 -0.069938
C37   C     C_R   0.416265 0.413473 0.962202 -0.069389
C38   C     C_R   0.489608 0.500973 0.071979 0.169139
C39   C     C_R   0.492273 0.506453 0.928520 0.171374
C40   C     C_R   0.260237 0.499934 0.500296 0.885294
H1    H     H_    0.111515 0.282180 0.495673 0.208951
H2    H     H_    0.355014 0.340145 0.060676 0.138692
H3    H     H_    0.623969 0.662917 0.067854 0.141826
H4    H     H_    0.359143 0.343331 0.932645 0.141149
H5    H     H_    0.779049 0.241135 0.642221 0.334741
H6    H     H_    0.213177 0.764572 0.360579 0.343124
H7    H     H_    0.367958 0.200932 0.290201 0.348185
H8    H     H_    0.635701 0.797159 0.708861 0.349185
H9    H     H_    0.767831 0.279915 0.943405 0.355228
H10   H     H_    0.728091 0.229797 0.067993 0.355998
H11   H     H_    0.233856 0.750347 0.061341 0.357636
H12   H     H_    0.888542 0.717728 0.504216 0.210446
H13   H     H_    0.232140 0.750953 0.927890 0.356754
H14   H     H_    0.887383 0.282480 0.493313 0.209740
H15   H     H_    0.112579 0.717361 0.507071 0.211940
H16   H     H_    0.639117 0.350680 0.720934 0.190620
H17   H     H_    0.655644 0.370984 0.286534 0.188300
H18   H     H_    0.333255 0.623250 0.284104 0.183247
H19   H     H_    0.364123 0.661011 0.710545 0.200971
H20   H     H_    0.624921 0.669135 0.939815 0.139060
N1    N     N_R   0.500000 0.857200 0.500000 -0.163550
N2    N     N_R   0.500000 0.142800 0.500000 -0.162123
O1    O     O_R   0.316770 0.614620 0.500000 -0.605316
O2    O     O_R   0.740813 0.201272 0.598284 -0.805353
O3    O     O_2   0.415185 0.854680 0.333984 -0.593846
O4    O     O_R   0.252828 0.806248 0.403674 -0.806777
O5    O     O_2   0.271623 0.197055 0.401752 -0.630124
O6    O     O_R   0.422656 0.149434 0.325001 -0.762632
O7    O     O_2   0.730768 0.804762 0.597041 -0.638035
O8    O     O_R   0.579618 0.847796 0.674406 -0.745936
O9    O     O_2   0.690341 0.214949 0.830980 -0.576686
O10   O     O_R   0.709057 0.351617 0.924163 -0.790759
O11   O     O_2   0.780952 0.322401 0.179161 -0.599917
O12   O     O_R   0.683230 0.385380 0.500000 -0.600236
O13   O     O_R   0.655631 0.285193 0.084625 -0.784693
O14   O     O_2   0.200205 0.674217 0.177470 -0.606287
O15   O     O_R   0.309330 0.697692 0.078982 -0.780874
O16   O     O_2   0.305096 0.799614 0.814068 -0.584427
O17   O     O_R   0.288880 0.675898 0.912756 -0.785610
O18   O     O_R   0.683230 0.614620 0.500000 -0.601532
O19   O     O_R   0.316770 0.385380 0.500000 -0.600533
O20   O     O_R   0.500030 0.614710 0.398180 -0.605113
O21   O     O_R   0.499970 0.385290 0.601820 -0.608226
O22   O     O_R   0.499970 0.614710 0.601820 -0.613831
O23   O     O_R   0.500030 0.385290 0.398180 -0.612064
O24   O     O_2   0.582808 0.135451 0.667437 -0.574272
Zn1   Zn    Zn3+2 0.500000 0.653120 0.500000 1.014078
Zn2   Zn    Zn3+2 0.500000 0.346880 0.500000 1.014917

loop_
_geom_bond_atom_site_label_1
_geom_bond_atom_site_label_2
_ccdc_geom_bond_type
C24   N1    A    
C22   C29   S    
C3    O23   A    
C34   C37   A    
C14   C18   A    
C34   H2    S    
O22   Zn1   S    
C14   C31   S    
C9    C14   A    
C32   O13   S    
C4    C25   S    
C9    C25   A    
C15   C32   S    
C15   C19   A    
C40   O1    A    
H13   O17   S    
H6    O4    S    
O18   Zn1   S    
C10   C15   A    
O20   Zn1   S    
C1    C2    S    
N1    Zn1   S    
C29   O5    D    
C20   C24   A    
H9    O10   S    
C11   H18   S    
C21   N1    A    
C2    O12   A    
C10   C26   A    
C31   O9    D    
O21   Zn2   S    
C34   C38   A    
C21   C22   A    
C13   C25   A    
C8    H15   S    
C30   O8    S    
C23   H20   S    
C1    C6    A    
C10   H17   S    
C5    C12   A    
C32   O11   D    
C5    C7    A    
C6    C8    A    
C11   C26   A    
N2    Zn2   S    
C12   C40   S    
C27   O24   D    
C28   O4    S    
C18   C39   S    
H11   O15   S    
C19   C38   S    
C16   C33   S    
C22   N2    A    
C29   O6    S    
C11   C16   A    
C33   O14   D    
C4    O22   A    
C8    C12   A    
C3    O20   A    
C17   C18   A    
C9    H16   S    
C31   O10   S    
C21   C28   S    
H7    O6    S    
C30   O7    D    
O23   Zn2   S    
C5    H1    S    
C35   O16   D    
O1    Zn1   S    
C1    C7    A    
C40   O19   A    
C3    C26   S    
H8    O8    S    
C13   H19   S    
C20   C27   S    
H5    O2    S    
C13   C17   A    
C6    H12   S    
C37   H4    S    
C36   C38   A    
C28   O3    D    
C37   C39   A    
H10   O13   S    
C33   O15   S    
C4    O21   A    
C16   C19   A    
C23   C39   A    
C35   O17   S    
C20   N2    A    
C24   C30   S    
O19   Zn2   S    
C2    O18   A    
C27   O2    S    
C23   C36   A    
C36   H3    S    
C17   C35   S    
C7    H14   S    
O12   Zn2   S    
