data_mof_unit_35321.cif
_audit_creation_date              2012-12-11T17:04:46-0500
_audit_creation_method            fapswitch 2.2
_symmetry_space_group_name_H-M    P1
_symmetry_Int_Tables_number       1
_space_group_crystal_system       triclinic
_cell_length_a                    17.49611
_cell_length_b                    24.205911
_cell_length_c                    15.178477
_cell_angle_alpha                 90.120492
_cell_angle_beta                  126.01808
_cell_angle_gamma                 90.02647
_cell_volume                      5199.32846566

loop_
_atom_site_label
_atom_site_type_symbol
_atom_type_description
_atom_site_fract_x
_atom_site_fract_y
_atom_site_fract_z
_atom_type_partial_charge
C1    C     C_R   0.855148 0.653518 0.905491 0.417384
C2    C     C_R   0.952677 0.498638 0.644785 -0.039805
C3    C     C_R   0.770340 0.047114 0.271495 -0.080060
C4    C     C_R   0.818931 0.366678 0.910360 -0.081711
C5    C     C_R   0.185897 0.371906 0.091598 -0.081200
C6    C     C_R   0.317902 0.867642 0.909982 -0.080228
C7    C     C_R   0.682875 0.868645 0.090217 -0.077829
C8    C     C_R   0.941126 0.654255 0.086049 -0.079113
C9    C     C_R   0.058230 0.654466 0.914374 -0.085135
C10   C     C_R   0.441770 0.154433 0.086154 -0.084835
C11   C     C_R   0.558942 0.154107 0.914001 -0.079895
C12   C     C_R   0.885238 0.687174 0.993920 -0.019650
C13   C     C_R   0.549781 0.998875 0.356518 -0.042364
C14   C     C_R   0.114790 0.687385 0.006411 -0.024754
C15   C     C_R   0.385676 0.187558 0.994578 -0.017721
C16   C     C_R   0.614763 0.187174 0.006067 -0.021308
C17   C     C_R   0.457449 0.001620 0.648284 -0.045118
C18   C     C_R   0.674525 0.499441 0.706806 0.044712
C19   C     C_R   0.309834 0.500789 0.355096 0.018804
C20   C     C_R   0.173693 0.000366 0.697160 0.056573
C21   C     C_R   0.825699 0.000925 0.313407 0.049729
C22   C     C_3   0.516704 0.447242 0.563502 -0.083757
C23   C     C_3   0.481603 0.475934 0.455683 -0.137844
C24   C     C_3   0.008698 0.953898 0.557367 -0.130474
C25   C     C_R   0.145287 0.653719 0.094592 0.440597
C26   C     C_3   0.993592 0.958388 0.446826 -0.135016
C27   C     C_3   0.434868 0.472517 0.562008 -0.085370
C28   C     C_3   0.540797 0.527560 0.516187 -0.151967
C29   C     C_3   0.931434 0.997471 0.521927 -0.104822
C30   C     C_3   0.066370 0.005630 0.490449 -0.127935
C31   C     C_3   0.401593 0.501129 0.455460 0.114780
C32   C     C_3   0.575274 0.499018 0.623354 0.132567
C33   C     C_3   0.918050 0.001818 0.412979 0.120554
C34   C     C_3   0.079989 0.001090 0.599571 0.122859
C35   C     C_3   0.459827 0.552945 0.515273 -0.157165
C36   C     C_R   0.355274 0.153802 0.905942 0.424318
C37   C     C_3   0.495826 0.524352 0.624249 -0.113319
C38   C     C_3   0.989144 0.049208 0.454918 -0.135697
C39   C     C_3   0.004580 0.044771 0.565916 -0.118332
C40   C     C_R   0.777750 0.302494 0.103120 0.040050
C41   C     C_R   0.226097 0.305652 0.898988 0.093363
C42   C     C_R   0.277308 0.803071 0.103412 0.093657
C43   C     C_R   0.722191 0.802607 0.897021 0.039558
C44   C     C_R   0.750077 0.323848 0.003291 -0.149671
C45   C     C_R   0.254997 0.328340 0.998558 -0.165493
C46   C     C_R   0.249453 0.824412 0.003473 -0.168145
C47   C     C_R   0.644883 0.153706 0.094518 0.424142
C48   C     C_R   0.750978 0.825104 0.996644 -0.147834
C49   C     C_R   0.654712 0.317879 0.912427 0.383565
C50   C     C_R   0.349774 0.320765 0.089727 0.374036
C51   C     C_R   0.154015 0.818369 0.912924 0.376837
C52   C     C_R   0.846334 0.818967 0.087160 0.383377
C53   C     C_R   0.907971 0.371011 0.092384 -0.078589
C54   C     C_R   0.094917 0.373148 0.908872 -0.119856
C55   C     C_R   0.407657 0.871199 0.092216 -0.120613
C56   C     C_R   0.592796 0.871619 0.907866 -0.080634
C57   C     C_R   0.097044 0.779097 0.917204 0.373035
C58   C     C_R   0.821534 0.353442 0.000956 0.169587
C59   C     C_R   0.902509 0.779065 0.082965 0.368351
C60   C     C_R   0.597727 0.278550 0.916485 0.366665
C61   C     C_R   0.404655 0.279772 0.085414 0.370306
C62   C     C_R   0.136304 0.746845 0.012013 -0.114823
C63   C     C_R   0.862555 0.746271 0.988354 -0.105251
C64   C     C_R   0.636838 0.246371 0.011393 -0.106039
C65   C     C_R   0.364104 0.247088 0.990259 -0.117666
C66   C     C_R   0.219941 0.765289 0.108441 0.146340
C67   C     C_R   0.778460 0.764003 0.892057 0.131338
C68   C     C_R   0.720498 0.264576 0.107913 0.136032
C69   C     C_R   0.183413 0.358125 0.001002 0.159727
C70   C     C_R   0.281095 0.265975 0.893988 0.137395
C71   C     C_3   0.225187 0.800125 0.194270 -0.223667
C72   C     C_3   0.772164 0.797206 0.804165 -0.246221
C73   C     C_3   0.725665 0.298931 0.194102 -0.246962
C74   C     C_3   0.276628 0.299090 0.807037 -0.225386
C75   C     C_3   0.790299 0.337788 0.191301 -0.501428
C76   C     C_3   0.213596 0.339479 0.809590 -0.600310
C77   C     C_3   0.290789 0.838449 0.192019 -0.602213
C78   C     C_3   0.708550 0.836743 0.807299 -0.503012
C79   C     C_R   0.928032 0.534540 0.481715 0.107572
C80   C     C_R   0.320786 0.854073 0.000751 0.164365
C81   C     C_R   0.957203 0.537899 0.415889 0.012359
C82   C     C_R   0.546430 0.037713 0.586666 0.009808
C83   C     C_R   0.575207 0.034631 0.520393 0.112258
C84   C     C_R   0.970168 0.496102 0.565147 0.028064
C85   C     C_R   0.029994 0.504098 0.434358 0.153975
C86   C     C_R   0.473784 0.003632 0.568095 0.152106
C87   C     C_R   0.532663 0.996272 0.436401 0.026995
C88   C     C_R   0.048147 0.464842 0.589365 -0.162594
C89   C     C_R   0.077878 0.468614 0.523124 -0.179623
C90   C     C_R   0.425565 0.968208 0.478895 -0.175488
C91   C     C_R   0.679961 0.855031 0.999394 0.170643
C92   C     C_R   0.454799 0.964758 0.412194 -0.162409
C93   C     C_3   0.858723 0.545998 0.315031 0.162528
C94   C     C_3   0.825966 0.540026 0.387538 0.231925
C95   C     C_3   0.677408 0.040071 0.614363 0.225062
C96   C     C_3   0.645077 0.045810 0.687362 0.167598
C97   C     C_R   0.039872 0.547270 0.297073 0.463264
C98   C     C_R   0.960887 0.545474 0.701715 0.499154
C99   C     C_R   0.540549 0.045604 0.299146 0.496838
C100  C     C_R   0.462087 0.047105 0.704055 0.465295
C101  C     C_R   0.730521 0.453986 0.734398 -0.065791
C102  C     C_R   0.045937 0.501954 0.353768 -0.046176
C103  C     C_R   0.259987 0.454587 0.298478 -0.111564
C104  C     C_R   0.230086 0.954442 0.729392 -0.092619
C105  C     C_R   0.769390 0.954687 0.276407 -0.083885
C106  C     C_R   0.039869 0.455252 0.298537 -0.141065
C107  C     C_R   0.958346 0.453633 0.701939 -0.237309
C108  C     C_R   0.543092 0.953815 0.298681 -0.242734
C109  C     C_R   0.462005 0.955010 0.702506 -0.140856
C110  C     C_R   0.729423 0.546283 0.742251 -0.091803
C111  C     C_R   0.261255 0.546749 0.298221 -0.053921
C112  C     C_R   0.229409 0.046753 0.735620 -0.099852
Cl1   Cl    Cl    0.817451 0.674977 0.775268 -0.628579
Cl2   Cl    Cl    0.022586 0.772837 0.193653 -0.533828
Cl3   Cl    Cl    0.477866 0.272195 0.805086 -0.537447
Cl4   Cl    Cl    0.524319 0.272556 0.196616 -0.518134
Cl5   Cl    Cl    0.816100 0.491453 0.217187 -0.680653
Cl6   Cl    Cl    0.772809 0.601659 0.392687 -0.502423
Cl7   Cl    Cl    0.730757 0.101789 0.609806 -0.510821
Cl8   Cl    Cl    0.687537 0.991136 0.784342 -0.677254
Cl9   Cl    Cl    0.078341 0.613750 0.352404 -0.594250
Cl10  Cl    Cl    0.944372 0.613831 0.656387 -0.531083
Cl11  Cl    Cl    0.559127 0.113962 0.345603 -0.529541
Cl12  Cl    Cl    0.182339 0.676499 0.223778 -0.648069
Cl13  Cl    Cl    0.423854 0.113331 0.648094 -0.582570
Cl14  Cl    Cl    0.317721 0.175846 0.776194 -0.636138
Cl15  Cl    Cl    0.681683 0.176009 0.224091 -0.632014
Cl16  Cl    Cl    0.603215 0.361595 0.797978 -0.638157
Cl17  Cl    Cl    0.403332 0.364272 0.205359 -0.610921
Cl18  Cl    Cl    0.102324 0.862143 0.798816 -0.638482
Cl19  Cl    Cl    0.898770 0.863097 0.201419 -0.629486
Cl20  Cl    Cl    0.976859 0.773187 0.806519 -0.524009
H1    H     H_    0.540509 0.403686 0.583224 0.188208
H2    H     H_    0.734855 0.775411 0.724616 0.243193
H3    H     H_    0.761866 0.277841 0.274017 0.244673
H4    H     H_    0.239358 0.277533 0.727253 0.240580
H5    H     H_    0.156581 0.819787 0.164604 0.230240
H6    H     H_    0.840732 0.816207 0.831672 0.238374
H7    H     H_    0.656878 0.318140 0.164971 0.235342
H8    H     H_    0.345977 0.317341 0.835658 0.231830
H9    H     H_    0.863930 0.336809 0.266710 0.205165
H10   H     H_    0.139651 0.338226 0.734790 0.203329
H11   H     H_    0.364399 0.836603 0.267329 0.204421
H12   H     H_    0.473549 0.456344 0.384431 0.198905
H13   H     H_    0.634524 0.835367 0.732658 0.203778
H14   H     H_    0.759776 0.379729 0.162914 0.271570
H15   H     H_    0.244732 0.381609 0.836047 0.223845
H16   H     H_    0.261977 0.880913 0.164830 0.224368
H17   H     H_    0.739453 0.878789 0.834229 0.272254
H18   H     H_    0.086129 0.437881 0.659573 0.137463
H19   H     H_    0.135283 0.442916 0.538612 0.138269
H20   H     H_    0.368150 0.942390 0.463266 0.141812
H21   H     H_    0.416490 0.937834 0.341622 0.138697
H22   H     H_    0.935755 0.364865 0.176473 0.115806
H23   H     H_    0.017664 0.914846 0.600203 0.213007
H24   H     H_    0.067935 0.366680 0.825063 0.115424
H25   H     H_    0.435448 0.864911 0.176270 0.116003
H26   H     H_    0.565017 0.865098 0.823843 0.115672
H27   H     H_    0.848688 0.587843 0.279679 0.172127
H28   H     H_    0.784334 0.502002 0.373334 0.130451
H29   H     H_    0.718727 0.002087 0.627720 0.125721
H30   H     H_    0.655442 0.087600 0.723409 0.171625
H31   H     H_    0.708206 0.412457 0.704494 0.123891
H32   H     H_    0.274966 0.412373 0.327056 0.125591
H33   H     H_    0.208118 0.913144 0.696992 0.129628
H34   H     H_    0.987842 0.923297 0.396369 0.212633
H35   H     H_    0.790078 0.913356 0.308701 0.128979
H36   H     H_    0.049115 0.412939 0.325643 0.117672
H37   H     H_    0.947603 0.410888 0.676335 0.145044
H38   H     H_    0.554109 0.911119 0.324175 0.144657
H39   H     H_    0.452957 0.912657 0.675286 0.118631
H40   H     H_    0.705196 0.588445 0.726473 0.162501
H41   H     H_    0.278370 0.588677 0.326914 0.177645
H42   H     H_    0.206089 0.088912 0.714194 0.168216
H43   H     H_    0.792805 0.089279 0.295457 0.168811
H44   H     H_    0.768799 0.351964 0.828591 0.151415
H45   H     H_    0.435135 0.596339 0.494210 0.151444
H46   H     H_    0.240336 0.363016 0.175843 0.161316
H47   H     H_    0.266511 0.854269 0.827515 0.151958
H48   H     H_    0.734934 0.856199 0.172981 0.154132
H49   H     H_    0.981993 0.668296 0.168720 0.255383
H50   H     H_    0.014894 0.669115 0.832545 0.262084
H51   H     H_    0.484304 0.168809 0.168361 0.261439
H52   H     H_    0.517832 0.167979 0.831434 0.255882
H53   H     H_    0.388089 0.450223 0.577014 0.150547
H54   H     H_    0.586312 0.549941 0.499284 0.172398
H55   H     H_    0.873040 0.994154 0.530954 0.156044
H56   H     H_    0.505240 0.543876 0.696285 0.146336
H57   H     H_    0.124590 0.008915 0.481116 0.151758
H58   H     H_    0.978804 0.087756 0.409640 0.143854
H59   H     H_    0.011802 0.079586 0.618067 0.150542
H60   H     H_    0.260602 0.779131 0.274189 0.240603
N1    N     N_R   0.892620 0.603790 0.941770 -0.093954
N2    N     N_R   0.973690 0.529110 0.793240 -0.091342
N3    N     N_R   0.526310 0.029110 0.206760 -0.091550
N4    N     N_R   0.473690 0.029110 0.793240 -0.075764
N5    N     N_R   0.818570 0.472310 0.793020 -0.055576
N6    N     N_R   0.181430 0.472310 0.206980 -0.054739
N7    N     N_R   0.318570 0.972310 0.793020 -0.060853
N8    N     N_R   0.681430 0.972310 0.206980 -0.054303
N9    N     N_R   0.026930 0.472300 0.207330 -0.059950
N10   N     N_R   0.973070 0.472300 0.792670 -0.067934
N11   N     N_R   0.526930 0.972300 0.207330 -0.066841
N12   N     N_R   0.107380 0.603790 0.058230 -0.097275
N13   N     N_R   0.473070 0.972300 0.792670 -0.061551
N14   N     N_R   0.817960 0.529130 0.792460 -0.037109
N15   N     N_R   0.182040 0.529130 0.207540 -0.047542
N16   N     N_R   0.317960 0.029130 0.792460 -0.040005
N17   N     N_R   0.682040 0.029130 0.207540 -0.041373
N18   N     N_R   0.894850 0.397640 0.943830 -0.058199
N19   N     N_R   0.105150 0.397640 0.056170 -0.061788
N20   N     N_R   0.394850 0.897640 0.943830 -0.060750
N21   N     N_R   0.605150 0.897640 0.056170 -0.058598
N22   N     N_R   0.950040 0.603780 0.055950 -0.075345
N23   N     N_R   0.392620 0.103790 0.941770 -0.096748
N24   N     N_R   0.049960 0.603780 0.944050 -0.083205
N25   N     N_R   0.450040 0.103780 0.055950 -0.083377
N26   N     N_R   0.549960 0.103780 0.944050 -0.075487
N27   N     N_R   0.607380 0.103790 0.058230 -0.093154
N28   N     N_R   0.952270 0.397640 0.058010 -0.054873
N29   N     N_R   0.047730 0.397640 0.941990 -0.050405
N30   N     N_R   0.452270 0.897640 0.058010 -0.050310
N31   N     N_R   0.547730 0.897640 0.941990 -0.055466
N32   N     N_R   0.026310 0.529110 0.206760 -0.075512
Ni1   Ni    Ni4+2 0.934160 0.565860 0.869070 0.316683
Ni2   Ni    Ni4+2 0.065840 0.565860 0.130930 0.308249
Ni3   Ni    Ni4+2 0.434160 0.065860 0.869070 0.316421
Ni4   Ni    Ni4+2 0.565840 0.065860 0.130930 0.313841
Ni5   Ni    Ni4+2 0.067260 0.435560 0.132230 0.220998
Ni6   Ni    Ni4+2 0.932740 0.435560 0.867770 0.229592
Ni7   Ni    Ni4+2 0.567260 0.935560 0.132230 0.226503
Ni8   Ni    Ni4+2 0.432740 0.935560 0.867770 0.223146

loop_
_geom_bond_atom_site_label_1
_geom_bond_atom_site_label_2
_ccdc_geom_bond_type
C8    H49   S    
C35   H45   S    
C83   C87   A    
C3    N17   A    
C93   C94   S    
C108  H38   S    
C6    H47   S    
N21   N31   A    
N26   Ni3   S    
C57   Cl20  S    
C112  H42   S    
C95   C96   S    
C9    C14   A    
C25   N12   A    
C19   C31   S    
C89   H19   S    
N6    Ni5   S    
C4    N18   A    
C57   C62   A    
C71   H5    S    
N20   N30   A    
N5    Ni6   S    
C43   C78   S    
C30   C38   S    
C103  H32   S    
C49   C60   A    
C1    Cl1   S    
N3    Ni4   S    
C33   C38   S    
C64   C68   A    
N2    Ni1   S    
C52   C59   A    
C24   C26   S    
C108  N11   A    
C8    N22   A    
C10   C15   A    
N23   N25   A    
C36   N23   A    
C54   H24   S    
C38   C39   S    
N20   Ni8   S    
C101  N5    A    
C37   H56   S    
N3    N11   A    
C65   C70   A    
C14   C62   S    
C99   N3    A    
C2    C107  A    
N18   N28   A    
C98   N2    A    
C98   Cl10  S    
C67   C72   S    
C27   H53   S    
C30   H57   S    
N4    N13   A    
C93   H27   S    
C76   H10   S    
C24   C29   S    
C56   H26   S    
C9    H50   S    
C75   H9    S    
C78   H13   S    
C104  H33   S    
C20   C112  A    
C19   C103  A    
C105  N8    A    
C26   H34   S    
C73   H3    S    
C76   H15   S    
C44   C58   S    
C38   H58   S    
C48   C91   S    
C74   H4    S    
N29   Ni6   S    
C70   C74   S    
C97   Cl9   S    
C92   H21   S    
C51   C57   A    
N8    Ni7   S    
C71   H60   S    
C5    C69   A    
C43   C48   A    
C40   C44   A    
C97   C102  A    
N21   Ni7   S    
C24   H23   S    
C81   C85   A    
N10   Ni6   S    
C20   C34   S    
C53   N28   A    
C72   H6    S    
N4    Ni3   S    
C7    C91   A    
C53   H22   S    
C75   H14   S    
C87   C92   A    
C72   C78   S    
C10   H51   S    
C73   C75   S    
C29   C39   S    
N5    N14   A    
C11   H52   S    
C1    C12   A    
C93   Cl5   S    
N14   Ni1   S    
C13   C108  A    
C16   C47   A    
C22   C23   S    
C25   Cl12  S    
C51   Cl18  S    
C100  N4    A    
C9    N24   A    
C110  H40   S    
C5    N19   A    
C63   C67   A    
C82   C96   S    
C39   H59   S    
C62   C66   A    
C22   H1    S    
C45   C69   S    
C34   C39   S    
C84   C88   A    
C28   C32   S    
C112  N16   A    
C107  N10   A    
C90   H20   S    
C86   C90   A    
C79   C81   A    
C12   C63   S    
C85   C89   A    
C54   N29   A    
C73   H7    S    
C95   Cl7   S    
C68   C73   S    
C82   C86   A    
C47   N27   A    
C46   C51   A    
C44   C49   A    
C24   C34   S    
C100  Cl13  S    
N32   Ni2   S    
C18   C101  A    
C23   C31   S    
C13   C99   A    
C1    N1    A    
N7    Ni8   S    
C77   H11   S    
C78   H17   S    
C50   Cl17  S    
C28   H54   S    
N19   N29   A    
C81   C93   S    
C11   C16   A    
C26   C33   S    
C90   C92   A    
C66   C71   S    
C77   H16   S    
C101  H31   S    
C8    C12   A    
C83   C95   S    
C13   C87   S    
C61   Cl4   S    
C2    C84   S    
N18   Ni6   S    
C110  N14   A    
C32   C37   S    
C72   H2    S    
C109  N13   A    
C11   N26   A    
C7    N21   A    
C22   C32   S    
C79   C94   S    
C55   N30   A    
N28   Ni5   S    
C3    H43   S    
N17   Ni4   S    
N30   Ni7   S    
C26   C30   S    
N11   Ni7   S    
C22   C27   S    
C27   C31   S    
C42   C46   A    
C6    C80   A    
N27   Ni4   S    
C104  N7    A    
C31   C35   S    
C23   H12   S    
C3    C21   A    
C23   C28   S    
C74   C76   S    
N12   Ni2   S    
C111  N15   A    
C15   C36   A    
C71   C77   S    
C29   H55   S    
N31   Ni8   S    
C99   Cl11  S    
C107  H37   S    
C7    H48   S    
C28   C35   S    
C49   Cl16  S    
C30   C34   S    
C94   H28   S    
N19   Ni5   S    
C35   C37   S    
N6    N15   A    
C111  H41   S    
C52   Cl19  S    
C88   H18   S    
C96   Cl8   S    
C29   C33   S    
C36   Cl14  S    
N1    N22   A    
C18   C110  A    
N13   Ni8   S    
C17   C109  A    
C56   N31   A    
C53   C58   A    
C40   C75   S    
C47   Cl15  S    
C20   C104  A    
N24   Ni1   S    
C19   C111  A    
N12   N24   A    
C59   C63   A    
N8    N17   A    
C97   N32   A    
C60   C64   A    
C21   C33   S    
C95   H29   S    
N1    Ni1   S    
N16   Ni3   S    
C14   C25   A    
C41   C76   S    
C46   C80   S    
C55   C80   A    
C94   Cl6   S    
N26   N27   A    
C79   C84   A    
C54   C69   A    
C74   H8    S    
C45   C50   A    
C27   C37   S    
C59   Cl2   S    
N9    Ni5   S    
N7    N16   A    
C96   H30   S    
C18   C32   S    
C102  C106  A    
N23   Ni3   S    
C61   C65   A    
C17   C86   S    
N22   Ni2   S    
C17   C100  A    
C21   C105  A    
C5    H46   S    
C4    H44   S    
N25   Ni4   S    
C105  H35   S    
C55   H25   S    
C6    N20   A    
C88   C89   A    
C2    C98   A    
N2    N10   A    
C43   C67   A    
C82   C83   A    
C40   C68   A    
C10   N25   A    
C4    C58   A    
C42   C66   A    
C50   C61   A    
C41   C45   A    
C42   C77   S    
C60   Cl3   S    
C16   C64   S    
N9    N32   A    
C48   C52   A    
C103  N6    A    
C56   C91   A    
C85   C102  S    
C109  H39   S    
N15   Ni2   S    
C106  H36   S    
C41   C70   A    
C106  N9    A    
C15   C65   S    
