data_mof_unit_33876.cif
_audit_creation_date              2012-12-10T18:06:49-0500
_audit_creation_method            fapswitch 2.2
_symmetry_space_group_name_H-M    P1
_symmetry_Int_Tables_number       1
_space_group_crystal_system       triclinic
_cell_length_a                    12.592776
_cell_length_b                    13.211038
_cell_length_c                    15.446932
_cell_angle_alpha                 83.410572
_cell_angle_beta                  98.655818
_cell_angle_gamma                 96.515741
_cell_volume                      2511.61672586

loop_
_atom_site_label
_atom_site_type_symbol
_atom_type_description
_atom_site_fract_x
_atom_site_fract_y
_atom_site_fract_z
_atom_type_partial_charge
C1    C     C_R   0.444368 0.308296 0.511280 0.856813
C2    C     C_R   0.643200 0.397524 0.938174 0.179211
C3    C     C_R   0.537975 0.423218 0.903090 0.090544
C4    C     C_R   0.434514 0.509718 0.336194 0.869323
C5    C     C_R   0.721660 0.398216 0.882434 -0.207527
C6    C     C_R   0.697609 0.428062 0.792666 -0.204380
C7    C     C_R   0.517212 0.456531 0.813831 -0.261538
C8    C     C_R   0.730392 0.934669 0.529709 -0.206761
C9    C     C_R   0.592767 0.799167 0.490412 -0.051502
C10   C     C_R   0.302797 0.173876 0.467533 -0.222915
C11   C     C_R   0.279827 0.087350 0.422546 -0.185256
C12   C     C_R   0.421852 0.445218 0.105146 0.090855
C13   C     C_R   0.361238 0.025041 0.417145 0.110822
C14   C     C_R   0.461839 0.039056 0.474565 0.047398
C15   C     C_R   0.485382 0.129121 0.517968 0.059571
C16   C     C_R   0.556746 0.691206 0.491017 0.868031
C17   C     C_R   0.541977 0.969975 0.488321 0.064481
C18   C     C_R   0.649594 0.000783 0.524423 0.171308
C19   C     C_R   0.671874 0.091669 0.563558 -0.247291
C20   C     C_R   0.588414 0.150165 0.567145 -0.181572
C21   C     C_R   0.514313 0.867049 0.479732 -0.259748
C22   C     C_R   0.702113 0.834029 0.510223 -0.203301
C23   C     C_R   0.312962 0.458771 0.070900 0.178403
C24   C     C_R   0.408126 0.200134 0.506929 -0.112169
C25   C     C_R   0.137597 0.641186 0.622183 -0.310077
C26   C     C_R   0.757903 0.379725 0.396555 0.020653
C27   C     C_R   0.853499 0.353933 0.374699 -0.258236
C28   C     C_R   0.563656 0.484379 0.664171 0.851840
C29   C     C_R   0.951096 0.399454 0.414046 -0.198518
C30   C     C_R   0.952927 0.471296 0.475759 0.017504
C31   C     C_R   0.853265 0.494645 0.495752 0.236162
C32   C     C_R   0.048939 0.520682 0.518236 -0.013310
C33   C     C_R   0.043484 0.591821 0.579672 0.197757
C34   C     C_R   0.492308 0.417084 0.050822 0.070049
C35   C     C_R   0.944257 0.613009 0.598053 -0.302033
C36   C     C_R   0.850471 0.564923 0.556528 -0.226762
C37   C     C_R   0.151042 0.502610 0.502331 -0.058212
C38   C     C_R   0.236101 0.619730 0.603445 0.005705
C39   C     C_R   0.391164 0.497617 0.244317 -0.059938
C40   C     C_R   0.595301 0.458516 0.758408 -0.057055
C41   C     C_R   0.243278 0.486925 0.124902 -0.208195
C42   C     C_R   0.282087 0.505661 0.211604 -0.202072
C43   C     C_R   0.459742 0.468398 0.190762 -0.265187
C44   C     C_3   0.343047 0.961443 0.338517 -0.433854
C45   C     C_R   0.458934 0.423044 0.959200 0.068583
C46   C     C_3   0.428214 0.993580 0.276493 -0.326943
C47   C     C_3   0.405887 0.933399 0.195963 -0.872057
C48   C     C_R   0.348510 0.431194 0.926933 -0.232696
C49   C     C_R   0.276202 0.446668 0.982701 -0.240867
C50   C     C_R   0.595705 0.385791 0.084578 -0.232730
C51   C     C_R   0.669213 0.374199 0.028601 -0.239313
H1    H     H_    0.192516 0.454051 0.955796 0.144898
H2    H     H_    0.310330 0.656805 0.635430 0.137017
H3    H     H_    0.440943 0.484806 0.786837 0.162418
H4    H     H_    0.939006 0.667068 0.644670 0.153951
H5    H     H_    0.134909 0.695501 0.669153 0.144480
H6    H     H_    0.163894 0.450453 0.457150 0.122454
H7    H     H_    0.681431 0.344846 0.366390 0.135866
H8    H     H_    0.022993 0.376800 0.394840 0.132245
H9    H     H_    0.852021 0.299009 0.327523 0.145775
H10   H     H_    0.776812 0.584389 0.573295 0.214527
H11   H     H_    0.758818 0.427702 0.750412 0.162735
H12   H     H_    0.801835 0.377133 0.908455 0.134099
H13   H     H_    0.748312 0.351670 0.056489 0.142761
H14   H     H_    0.159396 0.495756 0.099737 0.134556
H15   H     H_    0.227150 0.526541 0.252681 0.157292
H16   H     H_    0.544262 0.467407 0.215873 0.161927
H17   H     H_    0.315718 0.424048 0.858946 0.150795
H18   H     H_    0.620933 0.368137 0.154133 0.141734
H19   H     H_    0.407858 0.850136 0.216437 0.264136
H20   H     H_    0.325718 0.947365 0.158193 0.260329
H21   H     H_    0.468656 0.958244 0.152522 0.251420
H22   H     H_    0.427635 0.076654 0.254308 0.224675
H23   H     H_    0.764042 0.781764 0.518839 0.157496
H24   H     H_    0.510052 0.980144 0.310837 0.232477
H25   H     H_    0.337565 0.878142 0.357424 0.196786
H26   H     H_    0.263030 0.973229 0.299192 0.198234
H27   H     H_    0.751722 0.113460 0.597176 0.148337
H28   H     H_    0.813637 0.958677 0.554095 0.137211
H29   H     H_    0.430663 0.837471 0.474949 0.163273
H30   H     H_    0.241994 0.227198 0.460658 0.159388
H31   H     H_    0.201101 0.075932 0.383681 0.137300
H32   H     H_    0.606228 0.214163 0.606681 0.164003
N1    N     N_R   0.239390 0.551900 0.544730 -0.103212
N2    N     N_R   0.759950 0.448600 0.455730 -0.130556
O1    O     O_R   0.374950 0.371210 0.521360 -0.613817
O2    O     O_R   0.542050 0.338030 0.492790 -0.614719
O3    O     O_R   0.368720 0.526070 0.390200 -0.617775
O4    O     O_R   0.535820 0.492890 0.361630 -0.618605
O5    O     O_R   0.457950 0.661970 0.507210 -0.617990
O6    O     O_R   0.625050 0.628790 0.478640 -0.631572
O7    O     O_R   0.464180 0.507110 0.638370 -0.616008
O8    O     O_R   0.631280 0.473930 0.609800 -0.640941
Zn1   Zn    Zn3+2 0.388420 0.522150 0.519080 0.932752
Zn2   Zn    Zn3+2 0.611580 0.477850 0.480920 0.924852

loop_
_geom_bond_atom_site_label_1
_geom_bond_atom_site_label_2
_ccdc_geom_bond_type
C1    O2    A    
C16   O5    A    
C31   N2    A    
C27   C29   A    
C11   C13   A    
C41   C42   A    
C19   C20   A    
C25   H5    S    
C12   C23   A    
C26   C27   A    
C44   H26   S    
C50   H18   S    
C12   C43   A    
C3    C7    A    
C27   H9    S    
C30   C31   A    
C9    C22   A    
C23   C49   A    
C28   C40   S    
C5    H12   S    
C18   C19   A    
C44   H25   S    
O1    Zn1   S    
C29   H8    S    
O2    Zn2   S    
C8    H28   S    
C8    C22   A    
C7    C40   A    
C37   N1    A    
O8    Zn2   S    
C13   C14   A    
C14   C17   A    
C46   H24   S    
C44   C46   S    
O5    Zn1   S    
C39   C42   A    
C11   H31   S    
C15   C20   A    
O3    Zn1   S    
C34   C50   A    
C35   H4    S    
C10   C11   A    
C41   H14   S    
C50   C51   A    
C3    C45   A    
C8    C18   A    
C28   O8    A    
C35   C36   A    
O4    Zn2   S    
C19   H27   S    
C47   H19   S    
C29   C30   A    
C25   C38   A    
C4    C39   S    
C49   H1    S    
O7    Zn1   S    
C17   C18   A    
C28   O7    A    
C34   C45   A    
N1    Zn1   S    
C32   C37   A    
C48   H17   S    
C26   H7    S    
C47   H20   S    
C16   O6    A    
C48   C49   A    
C6    C40   A    
C2    C5    A    
C22   H23   S    
C12   C34   A    
C36   H10   S    
C4    O4    A    
C45   C48   A    
C1    O1    A    
C46   C47   S    
C15   C24   A    
C38   N1    A    
C14   C15   A    
C9    C16   S    
C51   H13   S    
C39   C43   A    
C4    O3    A    
C10   H30   S    
C23   C41   A    
C10   C24   A    
C32   C33   A    
C6    H11   S    
C2    C3    A    
C30   C32   A    
N2    Zn2   S    
C9    C21   A    
C5    C6    A    
C38   H2    S    
C26   N2    A    
C21   H29   S    
C33   C35   A    
C46   H22   S    
C17   C21   A    
C47   H21   S    
C2    C51   A    
O6    Zn2   S    
C1    C24   S    
C43   H16   S    
C20   H32   S    
C42   H15   S    
C31   C36   A    
C7    H3    S    
C13   C44   S    
C37   H6    S    
C25   C33   A    
