data_mof_unit_25975.cif
_audit_creation_date              2012-12-10T17:32:17-0500
_audit_creation_method            fapswitch 2.2
_symmetry_space_group_name_H-M    P1
_symmetry_Int_Tables_number       1
_space_group_crystal_system       triclinic
_cell_length_a                    12.468427
_cell_length_b                    13.237979
_cell_length_c                    14.981864
_cell_angle_alpha                 75.151325
_cell_angle_beta                  101.496322
_cell_angle_gamma                 117.699081
_cell_volume                      2107.04673473

loop_
_atom_site_label
_atom_site_type_symbol
_atom_type_description
_atom_site_fract_x
_atom_site_fract_y
_atom_site_fract_z
_atom_type_partial_charge
C1    C     C_R   0.855053 0.286273 0.508538 0.972183
C2    C     C_R   0.006292 0.593943 0.072771 -0.186369
C3    C     C_R   0.919380 0.278828 0.086003 0.285589
C4    C     C_R   0.909203 0.276452 0.991231 0.227328
C5    C     C_R   0.953100 0.381816 0.925665 -0.037892
C6    C     C_R   0.978799 0.486788 0.952764 0.016757
C7    C     C_R   0.003071 0.590621 0.885823 -0.025895
C8    C     C_R   0.025802 0.693966 0.912430 0.167199
C9    C     C_R   0.027026 0.695045 0.005191 0.692267
C10   C     C_R   0.971562 0.387226 0.833791 0.256233
C11   C     C_R   0.993049 0.490376 0.768386 -0.116027
C12   C     C_R   0.997977 0.496421 0.671088 0.864686
C13   C     C_R   0.004226 0.588951 0.793558 -0.170958
C14   C     C_R   0.286522 0.021192 0.358533 -0.106994
C15   C     C_R   0.228667 0.836951 0.464859 -0.160171
C16   C     C_R   0.810405 0.078857 0.570522 0.611067
C17   C     C_R   0.729139 0.961691 0.585412 0.235253
C18   C     C_R   0.608115 0.926904 0.550151 -0.174254
C19   C     C_R   0.566377 0.008523 0.496389 -0.010644
C20   C     C_R   0.653721 0.123596 0.466774 -0.122496
C21   C     C_R   0.441534 0.977579 0.466345 0.015740
C22   C     C_R   0.408643 0.053790 0.393760 -0.034125
C23   C     C_R   0.145054 0.713789 0.486413 0.864143
C24   C     C_R   0.498329 0.159992 0.355097 -0.223641
C25   C     C_R   0.619404 0.194800 0.390402 0.659922
C26   C     C_R   0.347845 0.873736 0.506580 0.590593
C27   C     C_R   0.197315 0.911896 0.392279 -0.170306
C28   C     C_R   0.773283 0.161586 0.512594 -0.233786
C29   C     C_R   0.335836 0.318020 0.645603 -0.217238
C30   C     C_R   0.755248 0.636651 0.366349 0.716820
C31   C     C_R   0.648067 0.641651 0.323344 0.547408
C32   C     C_R   0.541843 0.576687 0.367515 -0.289938
C33   C     C_R   0.543138 0.516188 0.459672 -0.141593
C34   C     C_R   0.999949 0.500611 0.329337 0.974529
C35   C     C_R   0.649513 0.498189 0.495047 0.031369
C36   C     C_R   0.439708 0.463800 0.514103 -0.002802
C37   C     C_R   0.435896 0.376728 0.592885 -0.001628
C38   C     C_R   0.533124 0.349353 0.620478 -0.250204
C39   C     C_R   0.638398 0.409659 0.575640 0.657473
C40   C     C_R   0.342878 0.497405 0.498465 0.420756
C41   C     C_R   0.240692 0.348965 0.623476 0.119025
C42   C     C_R   0.011060 0.596313 0.166216 0.606851
C43   C     C_R   0.995974 0.497191 0.233016 -0.305503
C44   C     C_R   0.971525 0.393177 0.208721 0.578135
C45   C     C_R   0.958550 0.385687 0.114664 -0.097014
C46   C     C_R   0.980595 0.488492 0.046680 -0.190426
Cu1   Cu    Cu3+1 0.098270 0.475420 0.521130 1.095468
Cu2   Cu    Cu3+1 0.901730 0.524580 0.478870 1.116153
H1    H     H_    0.474810 0.216295 0.296612 0.183182
H2    H     H_    0.260920 0.078170 0.302121 0.188416
H3    H     H_    0.550024 0.834773 0.561680 0.250889
H4    H     H_    0.162564 0.302865 0.663158 0.208508
H5    H     H_    0.529525 0.281699 0.680495 0.199828
H6    H     H_    0.331785 0.249009 0.704399 0.188967
H7    H     H_    0.458246 0.569050 0.326102 0.236686
H8    H     H_    0.019135 0.665732 0.740322 0.193500
H9    H     H_    0.105163 0.884320 0.359347 0.243986
N1    N     N_R   0.246280 0.438190 0.553160 -0.222998
N2    N     N_R   0.754320 0.561190 0.447410 -0.288918
O1    O     O_R   0.972510 0.318130 0.526570 -0.538869
O2    O     O_R   0.806530 0.359650 0.490890 -0.511571
O3    O     O_R   0.082980 0.479210 0.647590 -0.567921
O4    O     O_R   0.917000 0.520730 0.611900 -0.524679
O5    O     O_R   0.193470 0.640350 0.509110 -0.513643
O6    O     O_R   0.027490 0.681870 0.473430 -0.561751
O7    O     O_R   0.083000 0.479270 0.388100 -0.559047
O8    O     O_R   0.917020 0.520790 0.352410 -0.496096
F1    F     F_    0.033924 0.695359 0.193664 -0.547435
F2    F     F_    0.368722 0.809265 0.588584 -0.651901
F3    F     F_    0.924960 0.111266 0.613586 -0.593584
Br1   Br    Br    0.781240 0.847723 0.657532 -0.307650
F4    F     F_    0.703279 0.292384 0.342721 -0.648852
F5    F     F_    0.959131 0.300868 0.278407 -0.605962
Br2   Br    Br    0.355309 0.637778 0.411889 -0.458444
F6    F     F_    0.857827 0.698132 0.321892 -0.568508
F7    F     F_    0.645465 0.704761 0.236599 -0.552098
F8    F     F_    0.722150 0.371028 0.613642 -0.651437
Br3   Br    Br    0.871223 0.131847 0.172801 -0.208750
Br4   Br    Br    0.805441 0.128613 0.952979 -0.232661
Br5   Br    Br    0.989179 0.265559 0.797773 -0.340441
Br6   Br    Br    0.059749 0.838301 0.825462 -0.274276
F9    F     F_    0.050387 0.796271 0.028949 -0.519514

loop_
_geom_bond_atom_site_label_1
_geom_bond_atom_site_label_2
_ccdc_geom_bond_type
C16   C28   A    
C21   C26   A    
C19   C20   A    
C34   O7    A    
Cu1   O3    S    
C31   F7    S    
C7    C8    A    
C45   C46   A    
C2    C46   A    
C5    C6    A    
C39   F8    S    
C36   C37   A    
C19   C21   A    
C41   N1    A    
C30   C31   A    
C20   C25   A    
C33   C36   A    
C35   N2    A    
C18   C19   A    
Cu1   O1    S    
C31   C32   A    
C8    C9    A    
C1    C28   S    
Cu2   O6    S    
C6    C46   A    
C41   H4    S    
C9    F9    S    
C13   H8    S    
C15   C23   S    
C21   C22   A    
C42   F1    S    
C18   H3    S    
Cu1   O7    S    
C38   C39   A    
C40   N1    A    
C3    Br3   S    
C8    Br6   S    
C36   C40   A    
C16   F3    S    
C24   C25   A    
C4    Br4   S    
C27   H9    S    
C1    O1    A    
Cu1   O5    S    
C12   O4    A    
C10   Br5   S    
C16   C17   A    
C15   C26   A    
C20   C28   A    
C3    C45   A    
C35   C39   A    
C43   C44   A    
C37   C38   A    
C12   O3    A    
C15   C27   A    
Cu1   Cu2   S    
C30   N2    A    
C17   C18   A    
C25   F4    S    
C23   O5    A    
C17   Br1   S    
C14   C27   A    
C22   C24   A    
C42   C43   A    
C3    C4    A    
C44   C45   A    
Cu2   N2    S    
C24   H1    S    
C32   H7    S    
C29   C41   A    
C34   C43   S    
C4    C5    A    
Cu2   O4    S    
C1    O2    A    
C34   O8    A    
C11   C12   S    
C6    C7    A    
C32   C33   A    
C14   C22   A    
C5    C10   A    
Cu1   N1    S    
C30   F6    S    
C11   C13   A    
C23   O6    A    
Cu2   O2    S    
C14   H2    S    
C38   H5    S    
C2    C42   A    
C33   C35   A    
C40   Br2   S    
Cu2   O8    S    
C44   F5    S    
C10   C11   A    
C7    C13   A    
C29   H6    S    
C29   C37   A    
C26   F2    S    
C2    C9    A    
