data_mof_unit_57228.cif
_audit_creation_date              2012-12-11T17:04:51-0500
_audit_creation_method            fapswitch 2.2
_symmetry_space_group_name_H-M    P1
_symmetry_Int_Tables_number       1
_space_group_crystal_system       triclinic
_cell_length_a                    17.43357
_cell_length_b                    24.324716
_cell_length_c                    15.12383
_cell_angle_alpha                 90.251374
_cell_angle_beta                  125.926155
_cell_angle_gamma                 89.882503
_cell_volume                      5193.44324831

loop_
_atom_site_label
_atom_site_type_symbol
_atom_type_description
_atom_site_fract_x
_atom_site_fract_y
_atom_site_fract_z
_atom_type_partial_charge
C1    C     C_R   0.856210 0.654040 0.907325 -0.205700
C2    C     C_R   0.033533 0.499809 0.707821 0.068834
C3    C     C_R   0.769919 0.047218 0.255040 -0.158834
C4    C     C_R   0.823411 0.363084 0.909842 -0.118284
C5    C     C_R   0.146838 0.349290 0.093233 -0.104135
C6    C     C_R   0.354479 0.848774 0.906697 -0.112617
C7    C     C_R   0.682175 0.868135 0.089847 -0.118301
C8    C     C_R   0.943589 0.654486 0.087816 0.490721
C9    C     C_R   0.090115 0.638126 0.913259 0.496337
C10   C     C_R   0.406063 0.132837 0.088700 0.535571
C11   C     C_R   0.554112 0.154172 0.910754 0.501613
C12   C     C_R   0.886636 0.687823 0.995414 -0.058374
C13   C     C_R   0.483045 0.000196 0.307953 0.039977
C14   C     C_R   0.182294 0.648943 0.003142 0.019542
C15   C     C_R   0.313262 0.143033 0.000117 -0.023819
C16   C     C_R   0.609781 0.187992 0.002239 -0.071651
C17   C     C_3   0.438021 0.429236 0.728885 0.232094
C18   C     C_3   0.456040 0.474592 0.810291 -0.304779
C19   C     C_3   0.367522 0.486544 0.805189 -1.026130
C20   C     C_3   0.473103 0.372186 0.424409 0.148164
C21   C     C_3   0.429397 0.397829 0.311427 -0.272628
C22   C     C_3   0.478795 0.377699 0.261182 -1.040688
C23   C     C_3   0.025316 0.862920 0.552930 0.170533
C24   C     C_R   0.438016 0.001589 0.636100 0.070967
C25   C     C_3   0.070745 0.877610 0.672986 -0.294025
C26   C     C_3   0.019368 0.849696 0.714556 -0.993092
C27   C     C_3   0.058506 0.937579 0.271748 0.257258
C28   C     C_3   0.046555 0.983479 0.195238 -0.344925
C29   C     C_3   0.134044 0.989420 0.196062 -0.988125
C30   C     C_3   0.570966 0.312923 0.708744 0.229940
C31   C     C_3   0.613685 0.259344 0.701047 -0.418524
C32   C     C_3   0.568141 0.242198 0.582792 -0.990388
C33   C     C_3   0.258550 0.214430 0.293441 0.171967
C34   C     C_3   0.172346 0.177965 0.255862 -0.320320
C35   C     C_R   0.674343 0.499704 0.724750 0.110624
C36   C     C_3   0.188668 0.144281 0.350426 -1.035814
C37   C     C_3   0.256030 0.706033 0.719244 0.180196
C38   C     C_3   0.351070 0.679155 0.759735 -0.331597
C39   C     C_3   0.336222 0.630953 0.686155 -1.026225
C40   C     C_3   0.908710 0.805194 0.277581 0.209852
C41   C     C_3   0.847413 0.753161 0.250717 -0.437417
C42   C     C_3   0.872915 0.725108 0.354897 -0.945797
C43   C     C_3   0.529987 0.641446 0.369541 0.266839
C44   C     C_3   0.600940 0.596515 0.390464 -0.303163
C45   C     C_3   0.679289 0.589380 0.511208 -1.064347
C46   C     C_R   0.304483 0.498254 0.364222 0.090783
C47   C     C_3   0.599113 0.693192 0.639873 0.153313
C48   C     C_3   0.503576 0.702426 0.621669 -0.267945
C49   C     C_3   0.419194 0.684576 0.510712 -1.132327
C50   C     C_3   0.882103 0.201861 0.371073 0.181885
C51   C     C_3   0.981820 0.218660 0.406837 -0.336006
C52   C     C_3   0.057077 0.211028 0.526477 -1.032768
C53   C     C_3   0.968532 0.137151 0.637061 0.269233
C54   C     C_3   0.894289 0.096309 0.620803 -0.217638
C55   C     C_3   0.797821 0.105340 0.512758 -1.076865
C56   C     C_3   0.316112 0.762686 0.211587 0.079604
C57   C     C_R   0.196345 0.997365 0.637494 0.101679
C58   C     C_3   0.312964 0.800367 0.290477 -0.254483
C59   C     C_3   0.238220 0.845114 0.229672 -1.056267
C60   C     C_3   0.737262 0.839127 0.708788 0.094656
C61   C     C_3   0.701635 0.865004 0.598783 -0.247534
C62   C     C_3   0.735244 0.924362 0.612111 -1.021245
C63   C     C_3   0.742467 0.348293 0.266610 0.084923
C64   C     C_3   0.765472 0.380322 0.366820 -0.249688
C65   C     C_3   0.730860 0.439706 0.338254 -1.017350
C66   C     C_3   0.199302 0.255418 0.818242 0.081167
C67   C     C_3   0.215143 0.290777 0.747305 -0.256107
C68   C     C_R   0.826282 0.001223 0.289325 0.120774
C69   C     C_3   0.282147 0.338522 0.811532 -1.067941
C70   C     C_3   0.875821 0.212319 0.111094 0.312493
C71   C     C_3   0.908380 0.153825 0.155521 -0.336514
C72   C     C_3   0.867138 0.111083 0.064365 -1.017775
C73   C     C_3   0.882247 0.231722 0.786183 0.285152
C74   C     C_3   0.857514 0.199321 0.852576 -0.297048
C75   C     C_3   0.794293 0.149658 0.790254 -0.833742
C76   C     C_3   0.566690 0.670984 0.148889 0.256207
C77   C     C_3   0.510115 0.616359 0.106273 -0.303580
C78   C     C_3   0.547225 0.576135 0.062297 -1.071352
C79   C     C_3   0.492767 0.463444 0.631371 0.531310
C80   C     C_3   0.639371 0.721146 0.924314 0.308381
C81   C     C_3   0.619800 0.659343 0.902411 -0.341397
C82   C     C_3   0.690911 0.625704 0.003739 -1.019187
C83   C     C_3   0.093561 0.679948 0.222520 0.217930
C84   C     C_3   0.167100 0.691819 0.343163 -0.340274
C85   C     C_3   0.145281 0.741234 0.386340 -0.865593
C86   C     C_3   0.949567 0.676414 0.766078 0.157219
C87   C     C_3   0.903954 0.695463 0.648556 -0.305930
C88   C     C_3   0.821134 0.734114 0.608915 -0.970231
C89   C     C_3   0.501554 0.201561 0.206667 0.144997
C90   C     C_3   0.462217 0.445830 0.517460 0.496528
C91   C     C_3   0.595091 0.199921 0.321056 -0.272438
C92   C     C_3   0.637209 0.256990 0.361492 -1.005896
C93   C     C_3   0.401731 0.176550 0.771121 0.209522
C94   C     C_3   0.330338 0.187542 0.648725 -0.322018
C95   C     C_3   0.344497 0.242551 0.613222 -0.913372
C96   C     C_3   0.038217 0.945172 0.482025 0.507892
C97   C     C_R   0.189810 0.628755 0.093899 -0.289455
C98   C     C_3   0.003876 0.969172 0.371122 0.537929
C99   C     C_3   0.425279 0.513765 0.583367 -0.392775
C100  C     C_3   0.540670 0.480672 0.528708 -0.401018
C101  C     C_3   0.961668 0.976537 0.481735 -0.412367
C102  C     C_3   0.070808 0.019457 0.425607 -0.406108
C103  C     C_3   0.396007 0.495742 0.469953 0.037052
C104  C     C_3   0.571630 0.498377 0.643451 0.042207
C105  C     C_3   0.927371 0.000721 0.370182 0.042546
C106  C     C_3   0.104111 0.994877 0.535948 0.023202
C107  C     C_3   0.474479 0.530735 0.481804 -0.152352
C108  C     C_R   0.307838 0.125273 0.908138 -0.270138
C109  C     C_3   0.505928 0.548494 0.596811 -0.181427
C110  C     C_3   0.992744 0.050859 0.424340 -0.153771
C111  C     C_3   0.027919 0.026291 0.536018 -0.145298
C112  C     C_R   0.767306 0.304206 0.094491 -0.262241
C113  C     C_R   0.093144 0.220237 0.922663 -0.151464
C114  C     C_R   0.402382 0.724916 0.082169 -0.245724
C115  C     C_R   0.733525 0.808531 0.900698 -0.272504
C116  C     C_R   0.749942 0.321198 0.997633 -0.033216
C117  C     C_R   0.135115 0.254596 0.014175 -0.108186
C118  C     C_R   0.367309 0.755187 0.988107 -0.062962
C119  C     C_R   0.640364 0.154913 0.091437 -0.188054
C120  C     C_R   0.756185 0.829255 0.998441 -0.037682
C121  C     C_R   0.658371 0.311703 0.901660 0.568419
C122  C     C_R   0.209938 0.229719 0.113786 0.565505
C123  C     C_R   0.292175 0.729662 0.890017 0.553593
C124  C     C_R   0.846731 0.816972 0.092983 0.577870
C125  C     C_R   0.908739 0.370127 0.091777 -0.100801
C126  C     C_R   0.055180 0.346981 0.912253 -0.183329
C127  C     C_R   0.448462 0.846562 0.087658 -0.171793
C128  C     C_R   0.596334 0.875837 0.908469 -0.086190
C129  C     C_R   0.237306 0.689674 0.897364 -0.309196
C130  C     C_R   0.825243 0.348972 0.999627 0.108818
C131  C     C_R   0.903621 0.777822 0.086245 -0.382919
C132  C     C_R   0.597843 0.274913 0.907146 -0.371440
C133  C     C_R   0.260059 0.185631 0.107984 -0.355406
C134  C     C_R   0.255666 0.675902 0.999105 0.041518
C135  C     C_R   0.866307 0.747559 0.988652 0.049368
C136  C     C_R   0.630992 0.247128 0.005953 0.054913
C137  C     C_R   0.238990 0.168382 0.006655 0.016361
C138  C     C_R   0.345450 0.690276 0.090909 -0.124023
C139  C     C_R   0.790533 0.772847 0.891345 -0.114283
C140  C     C_R   0.705584 0.273231 0.102504 -0.134050
C141  C     C_R   0.114888 0.314645 0.005692 0.104155
C142  C     C_R   0.147367 0.181100 0.916717 -0.037282
C143  C     C_3   0.412965 0.690939 0.214610 0.899031
C144  C     C_3   0.703098 0.758121 0.775292 0.906878
C145  C     C_3   0.787402 0.262874 0.223600 0.916272
C146  C     C_3   0.090710 0.185206 0.795066 0.896329
C147  C     C_3   0.853997 0.288891 0.201351 0.265643
C148  C     C_3   0.023788 0.224448 0.801306 0.192733
C149  C     C_3   0.480531 0.725207 0.201264 0.264631
C150  C     C_3   0.642688 0.787672 0.803059 0.272380
C151  C     C_R   0.083448 0.551626 0.608241 0.159652
C152  C     C_R   0.388945 0.814347 0.994428 0.109827
C153  C     C_R   0.094007 0.552172 0.524904 0.133387
C154  C     C_R   0.414662 0.053274 0.482704 0.112706
C155  C     C_R   0.430856 0.052510 0.404216 0.196034
C156  C     C_R   0.076286 0.501682 0.648976 0.052792
C157  C     C_R   0.095486 0.502761 0.478467 0.038320
C158  C     C_R   0.407890 0.003782 0.524465 0.042509
C159  C     C_R   0.440184 0.002390 0.365777 0.056745
C160  C     C_R   0.102619 0.453237 0.622152 -0.202682
C161  C     C_R   0.112349 0.453747 0.536681 -0.219887
C162  C     C_R   0.391796 0.955028 0.465679 -0.224790
C163  C     C_R   0.681951 0.856795 0.999793 0.107476
C164  C     C_R   0.408706 0.954342 0.386368 -0.199825
C165  C     C_3   0.032281 0.601771 0.473183 -0.495304
C166  C     C_3   0.019113 0.600678 0.562794 -0.543254
C167  C     C_3   0.495502 0.101243 0.452851 -0.564328
C168  C     C_3   0.477664 0.102327 0.538592 -0.502332
C169  C     C_R   0.047828 0.546683 0.302011 -0.132316
C170  C     C_R   0.007784 0.545497 0.739024 -0.185522
C171  C     C_R   0.508957 0.045597 0.276767 -0.117936
C172  C     C_R   0.453036 0.046673 0.699246 -0.141648
C173  C     C_R   0.730196 0.454584 0.745882 -0.087639
C174  C     C_R   0.062416 0.501390 0.364867 0.063650
C175  C     C_R   0.255068 0.453681 0.301554 -0.163213
C176  C     C_R   0.244727 0.953013 0.699618 -0.161686
C177  C     C_R   0.770847 0.955327 0.263520 -0.087137
C178  C     C_R   0.048479 0.455331 0.303312 -0.141438
C179  C     C_R   0.009523 0.453883 0.741036 -0.119851
C180  C     C_R   0.498379 0.954004 0.266444 -0.129720
C181  C     C_R   0.450942 0.955382 0.696176 -0.145039
C182  C     C_R   0.730733 0.546061 0.754704 -0.159024
C183  C     C_R   0.258231 0.545131 0.305123 -0.141382
C184  C     C_R   0.242066 0.044630 0.695206 -0.142314
H1    H     H_    0.826784 0.667749 0.825905 0.165234
H2    H     H_    0.970742 0.767161 0.159898 0.193568
H3    H     H_    0.771037 0.763754 0.200418 0.194038
H4    H     H_    0.858886 0.723183 0.204006 0.235979
H5    H     H_    0.949559 0.715024 0.408248 0.265251
H6    H     H_    0.831650 0.686469 0.333779 0.272185
H7    H     H_    0.855940 0.752444 0.400273 0.257377
H8    H     H_    0.507884 0.636263 0.423706 0.107064
H9    H     H_    0.567159 0.681841 0.393776 0.114098
H10   H     H_    0.563515 0.556636 0.356476 0.206608
H11   H     H_    0.634911 0.607394 0.349774 0.232203
H12   H     H_    0.719340 0.628106 0.546861 0.277144
H13   H     H_    0.529327 0.265297 0.834372 0.190730
H14   H     H_    0.728764 0.556556 0.522771 0.281216
H15   H     H_    0.647854 0.577438 0.553626 0.282870
H16   H     H_    0.603166 0.650442 0.618967 0.104047
H17   H     H_    0.601771 0.717352 0.579645 0.147856
H18   H     H_    0.500794 0.679624 0.682720 0.236512
H19   H     H_    0.492854 0.746827 0.627257 0.224430
H20   H     H_    0.412909 0.710944 0.447790 0.322476
H21   H     H_    0.356870 0.689903 0.511709 0.283913
H22   H     H_    0.422395 0.641066 0.492673 0.288676
H23   H     H_    0.883842 0.158313 0.391806 0.087505
H24   H     H_    0.318902 0.168576 0.182648 0.199471
H25   H     H_    0.862862 0.223722 0.420169 0.148213
H26   H     H_    0.003189 0.194621 0.362336 0.241371
H27   H     H_    0.983602 0.263115 0.393764 0.228049
H28   H     H_    0.031313 0.229563 0.571440 0.296941
H29   H     H_    0.121007 0.233445 0.547780 0.273432
H30   H     H_    0.076306 0.167119 0.546338 0.282136
H31   H     H_    0.985440 0.126291 0.579832 0.084167
H32   H     H_    0.937445 0.179076 0.612371 0.100718
H33   H     H_    0.917864 0.053529 0.623530 0.179933
H34   H     H_    0.886646 0.100811 0.688113 0.240928
H35   H     H_    0.893335 0.323662 0.257895 0.021500
H36   H     H_    0.771417 0.147182 0.511011 0.277805
H37   H     H_    0.746391 0.074731 0.503599 0.277025
H38   H     H_    0.802991 0.100397 0.443545 0.267886
H39   H     H_    0.244311 0.745256 0.151756 0.138877
H40   H     H_    0.336626 0.788478 0.168079 0.108377
H41   H     H_    0.295955 0.776435 0.338851 0.213609
H42   H     H_    0.383714 0.819425 0.348153 0.186932
H43   H     H_    0.254198 0.871001 0.182008 0.276792
H44   H     H_    0.237813 0.871538 0.289440 0.272232
H45   H     H_    0.166804 0.826483 0.173575 0.270336
H46   H     H_    0.013546 0.263129 0.757686 -0.000335
H47   H     H_    0.816025 0.839450 0.762654 0.134765
H48   H     H_    0.710624 0.865223 0.745642 0.106877
H49   H     H_    0.727046 0.840843 0.558255 0.205062
H50   H     H_    0.622862 0.864304 0.544919 0.197531
H51   H     H_    0.708159 0.949872 0.649405 0.274801
H52   H     H_    0.708109 0.941658 0.530802 0.270751
H53   H     H_    0.813873 0.926116 0.664427 0.267761
H54   H     H_    0.664323 0.346784 0.204780 0.130680
H55   H     H_    0.774032 0.371482 0.232300 0.110816
H56   H     H_    0.731812 0.360099 0.401714 0.202928
H57   H     H_    0.497684 0.764161 0.246759 0.031611
H58   H     H_    0.843424 0.380379 0.430117 0.202093
H59   H     H_    0.767601 0.461710 0.308769 0.273719
H60   H     H_    0.746385 0.461233 0.412040 0.268885
H61   H     H_    0.653234 0.440913 0.273959 0.272473
H62   H     H_    0.269277 0.240600 0.888726 0.134992
H63   H     H_    0.168603 0.282530 0.849095 0.100300
H64   H     H_    0.246483 0.265171 0.715548 0.215767
H65   H     H_    0.146224 0.307415 0.677541 0.197834
H66   H     H_    0.252373 0.365707 0.843655 0.279031
H67   H     H_    0.291393 0.362737 0.756377 0.270022
H68   H     H_    0.596598 0.818619 0.739998 0.020121
H69   H     H_    0.352509 0.323010 0.880437 0.272444
H70   H     H_    0.901479 0.222460 0.061391 0.082770
H71   H     H_    0.797835 0.211596 0.055909 0.104300
H72   H     H_    0.986413 0.151641 0.205774 0.203964
H73   H     H_    0.885603 0.142463 0.207521 0.239386
H74   H     H_    0.788988 0.115551 0.006793 0.274123
H75   H     H_    0.882726 0.069238 0.099912 0.276298
H76   H     H_    0.899534 0.115246 0.019915 0.277381
H77   H     H_    0.816464 0.243671 0.706324 0.089738
H78   H     H_    0.917211 0.270275 0.831724 0.028770
H79   H     H_    0.105092 0.414188 0.657647 0.138571
H80   H     H_    0.924122 0.185338 0.929498 0.195956
H81   H     H_    0.820980 0.226939 0.875230 0.121093
H82   H     H_    0.755135 0.137811 0.824393 0.237457
H83   H     H_    0.838228 0.114191 0.798906 0.258812
H84   H     H_    0.741851 0.158904 0.702329 0.254519
H85   H     H_    0.642243 0.661914 0.186051 0.117798
H86   H     H_    0.544240 0.699897 0.080980 0.080818
H87   H     H_    0.512815 0.594806 0.171911 0.248401
H88   H     H_    0.434801 0.624426 0.039579 0.202223
H89   H     H_    0.530233 0.591240 0.983787 0.291885
H90   H     H_    0.121402 0.414876 0.508926 0.131848
H91   H     H_    0.511829 0.535741 0.046948 0.284079
H92   H     H_    0.624607 0.569684 0.122482 0.282912
H93   H     H_    0.614962 0.735044 0.974054 0.072910
H94   H     H_    0.716446 0.725842 0.976724 0.105596
H95   H     H_    0.547038 0.650588 0.876343 0.185819
H96   H     H_    0.625953 0.645303 0.837279 0.247221
H97   H     H_    0.762663 0.629680 0.023565 0.279432
H98   H     H_    0.671042 0.581553 0.988102 0.282998
H99   H     H_    0.693403 0.640227 0.074924 0.263867
H100  H     H_    0.705054 0.413365 0.717747 0.106424
H101  H     H_    0.378828 0.916336 0.489711 0.133438
H102  H     H_    0.263994 0.411365 0.327093 0.152470
H103  H     H_    0.234988 0.910493 0.674536 0.146517
H104  H     H_    0.795987 0.914486 0.294421 0.094518
H105  H     H_    0.094521 0.713399 0.172990 0.080685
H106  H     H_    0.119352 0.641573 0.210388 0.075046
H107  H     H_    0.178811 0.655267 0.393364 0.176886
H108  H     H_    0.232875 0.699870 0.350865 0.174587
H109  H     H_    0.124559 0.777066 0.331442 0.250999
H110  H     H_    0.209453 0.752592 0.468127 0.236795
H111  H     H_    0.088926 0.729911 0.395762 0.262439
H112  H     H_    0.250456 0.631676 0.178161 0.184428
H113  H     H_    0.407081 0.915446 0.350821 0.141379
H114  H     H_    0.944842 0.709351 0.814034 0.132781
H115  H     H_    0.910630 0.639189 0.761581 0.092982
H116  H     H_    0.956839 0.717110 0.642639 0.222736
H117  H     H_    0.878790 0.659097 0.593535 0.189063
H118  H     H_    0.768915 0.714904 0.618606 0.287273
H119  H     H_    0.785789 0.743891 0.521407 0.265441
H120  H     H_    0.847706 0.772795 0.657020 0.278670
H121  H     H_    0.458686 0.237367 0.199684 0.139187
H122  H     H_    0.517498 0.206888 0.145628 0.072082
H123  H     H_    0.584103 0.181904 0.380227 0.211360
H124  H     H_    0.965074 0.593616 0.391588 0.216080
H125  H     H_    0.645901 0.173353 0.318958 0.191191
H126  H     H_    0.631433 0.280179 0.295116 0.295403
H127  H     H_    0.712821 0.253724 0.432181 0.274366
H128  H     H_    0.598476 0.279608 0.387857 0.256461
H129  H     H_    0.397169 0.209598 0.819083 0.090171
H130  H     H_    0.377220 0.137666 0.782878 0.074523
H131  H     H_    0.332319 0.154553 0.599492 0.189681
H132  H     H_    0.258503 0.186330 0.629376 0.164651
H133  H     H_    0.359973 0.275602 0.672454 0.248342
H134  H     H_    0.279406 0.253809 0.532331 0.243592
H135  H     H_    0.049952 0.637231 0.617188 0.199193
H136  H     H_    0.402981 0.238355 0.604792 0.274017
H137  H     H_    0.373529 0.527955 0.598721 0.166570
H138  H     H_    0.589780 0.469598 0.507284 0.161911
H139  H     H_    0.914481 0.961855 0.503563 0.155666
H140  H     H_    0.120879 0.036654 0.410378 0.156770
H141  H     H_    0.465991 0.137663 0.398498 0.212328
H142  H     H_    0.543026 0.093476 0.621255 0.218115
H143  H     H_    0.935054 0.368576 0.175630 0.111124
H144  H     H_    0.008845 0.333794 0.829241 0.088817
H145  H     H_    0.499235 0.832651 0.169246 0.101308
H146  H     H_    0.573200 0.877054 0.825538 0.102139
H147  H     H_    0.072939 0.638201 0.477806 0.193608
H148  H     H_    0.246499 0.126562 0.824373 0.201682
H149  H     H_    0.944975 0.590691 0.531709 0.203838
H150  H     H_    0.570522 0.091271 0.487596 0.199860
H151  H     H_    0.437684 0.139338 0.533332 0.205467
H152  H     H_    0.066450 0.588534 0.329393 0.145352
H153  H     H_    0.013178 0.586709 0.721866 0.173682
H154  H     H_    0.522128 0.085855 0.309848 0.173798
H155  H     H_    0.436148 0.088488 0.673364 0.146202
H156  H     H_    0.066694 0.413410 0.331664 0.091573
H157  H     H_    0.018576 0.411079 0.729781 0.090172
H158  H     H_    0.489233 0.911207 0.277169 0.095382
H159  H     H_    0.664276 0.169604 0.170916 0.174365
H160  H     H_    0.432592 0.913481 0.666960 0.092505
H161  H     H_    0.709067 0.588363 0.745797 0.138361
H162  H     H_    0.273906 0.586977 0.335251 0.103618
H163  H     H_    0.225393 0.086313 0.664854 0.099022
H164  H     H_    0.791049 0.089777 0.267078 0.125661
H165  H     H_    0.776693 0.347703 0.827848 0.115560
H166  H     H_    0.182648 0.338920 0.177730 0.163204
H167  H     H_    0.317145 0.837834 0.821961 0.158527
H168  H     H_    0.731686 0.854427 0.171866 0.132304
H169  H     H_    0.437496 0.389048 0.763120 0.117890
H170  H     H_    0.459017 0.554911 0.411843 0.154871
H171  H     H_    0.366783 0.432991 0.649378 0.082638
H172  H     H_    0.514476 0.461742 0.894425 0.209178
H173  H     H_    0.478764 0.513214 0.793073 0.206957
H174  H     H_    0.306328 0.495476 0.720060 0.274204
H175  H     H_    0.379766 0.523026 0.856226 0.283135
H176  H     H_    0.350465 0.451047 0.836485 0.282549
H177  H     H_    0.459266 0.327315 0.411761 0.150361
H178  H     H_    0.551517 0.376842 0.478850 0.084230
H179  H     H_    0.353479 0.386288 0.255666 0.210245
H180  H     H_    0.434599 0.443306 0.317334 0.204953
H181  H     H_    0.527013 0.588166 0.640077 0.141636
H182  H     H_    0.556105 0.385671 0.317483 0.275483
H183  H     H_    0.449855 0.399668 0.183357 0.277401
H184  H     H_    0.466064 0.333076 0.243351 0.271726
H185  H     H_    0.034319 0.818014 0.548141 0.133566
H186  H     H_    0.947509 0.870127 0.501382 0.080018
H187  H     H_    0.145695 0.863939 0.723931 0.212531
H188  H     H_    0.069076 0.922743 0.682876 0.202673
H189  H     H_    0.943352 0.861492 0.663833 0.260863
H190  H     H_    0.051940 0.862523 0.800245 0.272505
H191  H     H_    0.025640 0.804407 0.712560 0.280606
H192  H     H_    0.974007 0.093887 0.397476 0.125919
H193  H     H_    0.057548 0.897461 0.235687 0.130171
H194  H     H_    0.128867 0.939954 0.352824 0.077254
H195  H     H_    0.983968 0.974353 0.110718 0.215756
H196  H     H_    0.033544 0.023321 0.220171 0.206163
H197  H     H_    0.197576 0.998197 0.280079 0.275171
H198  H     H_    0.123694 0.024085 0.142515 0.277217
H199  H     H_    0.145576 0.951298 0.164864 0.277957
H200  H     H_    0.560973 0.340917 0.645330 0.182064
H201  H     H_    0.499923 0.307665 0.689503 0.113477
H202  H     H_    0.689773 0.266110 0.739780 0.203219
H203  H     H_    0.046135 0.045724 0.612216 0.153427
H204  H     H_    0.605573 0.225657 0.744279 0.240823
H205  H     H_    0.489822 0.241265 0.534961 0.263006
H206  H     H_    0.593314 0.200744 0.580472 0.285062
H207  H     H_    0.589218 0.271283 0.544323 0.251270
H208  H     H_    0.275832 0.238442 0.365623 0.148172
H209  H     H_    0.322539 0.189450 0.323131 0.096011
H210  H     H_    0.108825 0.204357 0.221827 0.216059
H211  H     H_    0.158944 0.149108 0.191040 0.197878
H212  H     H_    0.258189 0.123200 0.394675 0.271729
H213  H     H_    0.133033 0.112386 0.318769 0.268183
H214  H     H_    0.177932 0.672303 0.823182 0.186711
H215  H     H_    0.185817 0.171322 0.407720 0.278848
H216  H     H_    0.226892 0.724806 0.638547 0.133912
H217  H     H_    0.203319 0.674662 0.702906 0.095135
H218  H     H_    0.397979 0.710198 0.760157 0.226156
H219  H     H_    0.386526 0.663521 0.844160 0.191565
H220  H     H_    0.293492 0.598436 0.689625 0.276962
H221  H     H_    0.405592 0.613199 0.713775 0.268346
H222  H     H_    0.298737 0.644675 0.600365 0.270688
H223  H     H_    0.909250 0.828555 0.340756 0.141757
H224  H     H_    0.982936 0.794679 0.314192 0.126874
N1    N     N_R   0.892620 0.603790 0.941770 -0.073810
N2    N     N_R   0.973690 0.529110 0.793240 -0.044752
N3    N     N_R   0.526310 0.029110 0.206760 -0.042791
N4    N     N_R   0.473690 0.029110 0.793240 -0.039309
N5    N     N_R   0.818570 0.472310 0.793020 -0.050088
N6    N     N_R   0.181430 0.472310 0.206980 -0.042942
N7    N     N_R   0.318570 0.972310 0.793020 -0.041559
N8    N     N_R   0.681430 0.972310 0.206980 -0.049682
N9    N     N_R   0.026930 0.472300 0.207330 -0.039454
N10   N     N_R   0.973070 0.472300 0.792670 -0.038508
N11   N     N_R   0.526930 0.972300 0.207330 -0.041656
N12   N     N_R   0.107380 0.603790 0.058230 -0.083758
N13   N     N_R   0.473070 0.972300 0.792670 -0.040294
N14   N     N_R   0.817960 0.529130 0.792460 -0.038476
N15   N     N_R   0.182040 0.529130 0.207540 -0.035346
N16   N     N_R   0.317960 0.029130 0.792460 -0.038199
N17   N     N_R   0.682040 0.029130 0.207540 -0.039753
N18   N     N_R   0.894850 0.397640 0.943830 -0.048852
N19   N     N_R   0.105150 0.397640 0.056170 -0.052162
N20   N     N_R   0.394850 0.897640 0.943830 -0.051222
N21   N     N_R   0.605150 0.897640 0.056170 -0.050733
N22   N     N_R   0.950040 0.603780 0.055950 -0.094258
N23   N     N_R   0.392620 0.103790 0.941770 -0.092676
N24   N     N_R   0.049960 0.603780 0.944050 -0.105395
N25   N     N_R   0.450040 0.103780 0.055950 -0.095266
N26   N     N_R   0.549960 0.103780 0.944050 -0.096961
N27   N     N_R   0.607380 0.103790 0.058230 -0.071470
N28   N     N_R   0.952270 0.397640 0.058010 -0.049598
N29   N     N_R   0.047730 0.397640 0.941990 -0.036800
N30   N     N_R   0.452270 0.897640 0.058010 -0.038910
N31   N     N_R   0.547730 0.897640 0.941990 -0.050196
N32   N     N_R   0.026310 0.529110 0.206760 -0.038638
Ni1   Ni    Ni4+2 0.934160 0.565860 0.869070 0.194455
Ni2   Ni    Ni4+2 0.065840 0.565860 0.130930 0.205950
Ni3   Ni    Ni4+2 0.434160 0.065860 0.869070 0.202214
Ni4   Ni    Ni4+2 0.565840 0.065860 0.130930 0.207480
Ni5   Ni    Ni4+2 0.067260 0.435560 0.132230 0.211716
Ni6   Ni    Ni4+2 0.932740 0.435560 0.867770 0.200014
Ni7   Ni    Ni4+2 0.567260 0.935560 0.132230 0.208319
Ni8   Ni    Ni4+2 0.432740 0.935560 0.867770 0.212899
O1    O     O_3   0.511958 0.428012 0.715928 -0.641239
O2    O     O_3   0.677618 0.701871 0.751283 -0.699625
O3    O     O_3   0.811910 0.207283 0.256236 -0.702748
O4    O     O_3   0.051508 0.133084 0.746131 -0.669609
O5    O     O_3   0.381221 0.719282 0.270881 -0.732695
O6    O     O_3   0.704309 0.783981 0.690531 -0.728148
O7    O     O_3   0.778852 0.293955 0.298801 -0.721831
O8    O     O_3   0.140658 0.209566 0.756447 -0.721850
O9    O     O_3   0.916600 0.251641 0.197884 -0.668685
O10   O     O_3   0.937888 0.198448 0.767339 -0.628244
O11   O     O_3   0.564631 0.695717 0.233226 -0.666581
O12   O     O_3   0.430730 0.392086 0.474517 -0.694680
O13   O     O_3   0.589317 0.752235 0.825232 -0.670210
O14   O     O_3   0.001754 0.672544 0.195212 -0.663748
O15   O     O_3   0.045580 0.665302 0.814306 -0.712481
O16   O     O_3   0.450268 0.153596 0.192218 -0.721643
O17   O     O_3   0.495544 0.171243 0.802573 -0.671616
O18   O     O_3   0.070300 0.890232 0.512270 -0.686340
O19   O     O_3   0.981600 0.938185 0.279594 -0.628654
O20   O     O_3   0.631464 0.341054 0.808891 -0.653513
O21   O     O_3   0.240974 0.253145 0.213603 -0.695911
O22   O     O_3   0.265923 0.748806 0.789349 -0.693593
O23   O     O_3   0.875395 0.842241 0.190053 -0.644518
O24   O     O_3   0.448476 0.638060 0.259107 -0.689660

loop_
_geom_bond_atom_site_label_1
_geom_bond_atom_site_label_2
_ccdc_geom_bond_type
C99   C103  S    
C36   H213  S    
C169  N32   A    
C133  C137  A    
C142  C146  S    
C136  C140  A    
N31   Ni8   S    
C125  N28   A    
C180  H158  S    
C173  H100  S    
C75   H83   S    
C1    N1    A    
C17   H171  S    
C48   H19   S    
C54   H33   S    
C171  N3    A    
C79   C99   S    
C154  C158  A    
C22   H184  S    
C138  C143  S    
C29   H199  S    
C63   H55   S    
C86   H115  S    
C100  C104  S    
N7    N16   A    
N19   Ni5   S    
C73   C74   S    
C171  H154  S    
N5    Ni6   S    
C79   C90   S    
C65   H61   S    
C120  C163  S    
C50   H25   S    
C155  C167  S    
C12   C135  S    
C160  H79   S    
C169  C174  A    
C23   O18   S    
C39   H221  S    
C79   O1    S    
C42   H5    S    
C172  H155  S    
C179  H157  S    
C49   H20   S    
C21   C22   S    
C32   H206  S    
C127  H145  S    
C33   H208  S    
C181  N13   A    
C54   H34   S    
C183  H162  S    
C162  C164  A    
C91   H125  S    
N2    Ni1   S    
C21   H180  S    
C116  C121  A    
C51   C52   S    
C88   H118  S    
N9    Ni5   S    
C6    H167  S    
C4    C130  A    
C98   C102  S    
C7    C163  A    
N18   N28   A    
C124  O23   S    
C102  H140  S    
C15   C108  A    
C39   H220  S    
C8    O14   S    
C43   C44   S    
C37   C38   S    
C42   H6    S    
C17   O1    S    
C76   H85   S    
C5    H166  S    
C77   H88   S    
C7    H168  S    
C154  C155  A    
C67   H65   S    
C36   H215  S    
C115  C139  A    
C53   H32   S    
C25   H187  S    
C80   H93   S    
C123  O22   S    
C145  O7    S    
N30   Ni7   S    
C95   H133  S    
C34   H211  S    
C66   H62   S    
C121  O20   S    
C165  H124  S    
C2    C156  S    
C81   H95   S    
C19   H175  S    
C22   H182  S    
C140  C145  S    
C150  H68   S    
C1    H1    S    
C46   C103  S    
N18   Ni6   S    
C126  C141  A    
C70   O9    S    
C89   H122  S    
C18   H172  S    
N4    N13   A    
C176  N7    A    
N12   N24   A    
C151  C153  A    
C30   H200  S    
C64   H56   S    
C69   H67   S    
N20   N30   A    
C143  C149  S    
C116  C130  S    
C20   C21   S    
C20   O12   S    
C110  H192  S    
C52   H28   S    
C103  C107  S    
C15   C137  S    
C18   H173  S    
C99   C109  S    
C137  C142  A    
C97   H112  S    
C61   H49   S    
C112  C140  A    
C88   H120  S    
C78   H92   S    
C70   H70   S    
C27   O19   S    
C83   H105  S    
N23   N25   A    
C11   N26   A    
C53   C54   S    
C94   H131  S    
C178  N9    A    
C36   H212  S    
C41   H3    S    
C62   H53   S    
N1    Ni1   S    
C113  C148  S    
N3    Ni4   S    
C93   O17   S    
C38   C39   S    
C48   H18   S    
C68   C177  A    
C56   O5    S    
C67   H64   S    
C144  C150  S    
C110  C111  S    
C31   C32   S    
C93   H129  S    
C89   C91   S    
C73   O10   S    
C20   H178  S    
C8    C12   A    
C157  C174  S    
C45   H12   S    
C66   C67   S    
N16   Ni3   S    
C11   O17   S    
C23   H186  S    
C1    C12   A    
C168  H142  S    
C73   H77   S    
C106  C111  S    
C38   H219  S    
C145  O3    S    
C101  C105  S    
C155  C159  A    
C35   C173  A    
C16   C136  S    
C156  C160  A    
N6    Ni5   S    
C91   C92   S    
N27   Ni4   S    
C25   C26   S    
C143  O24   S    
C117  C122  A    
C47   O2    S    
C83   C84   S    
C84   H108  S    
C26   H189  S    
C132  C136  A    
C85   H109  S    
C52   H30   S    
C17   C18   S    
C27   H193  S    
C28   H195  S    
C108  H148  S    
C49   H22   S    
C118  C152  S    
N21   N31   A    
C164  H113  S    
C170  H153  S    
C55   H38   S    
C113  C117  A    
N14   Ni1   S    
C43   H8    S    
C30   O20   S    
C87   H117  S    
C89   O16   S    
C148  H46   S    
C68   C105  S    
C121  C132  A    
C82   H98   S    
C167  H150  S    
N10   Ni6   S    
C9    N24   A    
C54   C55   S    
C62   H51   S    
C153  C165  S    
C24   C181  A    
N7    Ni8   S    
N19   N29   A    
N8    Ni7   S    
C33   H209  S    
C58   H42   S    
N5    N14   A    
C56   H39   S    
C45   H15   S    
C13   C180  A    
C149  O11   S    
C95   H134  S    
C112  C147  S    
C60   O6    S    
C43   H9    S    
N9    N32   A    
C80   O13   S    
C167  H141  S    
C168  H151  S    
C71   C72   S    
C29   H198  S    
N22   Ni2   S    
C119  N27   A    
C94   H132  S    
C34   C36   S    
C114  C138  A    
C61   C62   S    
C24   C172  A    
C63   C64   S    
C107  H170  S    
C13   C171  A    
C72   H75   S    
C166  H135  S    
C9    O15   S    
C33   O21   S    
C46   C175  A    
C3    N17   A    
C13   C159  S    
C57   C184  A    
C40   H223  S    
C91   H123  S    
C3    H164  S    
C92   H127  S    
C59   H45   S    
C87   C88   S    
C31   H204  S    
C166  H149  S    
C100  H138  S    
C41   C42   S    
C3    C68   A    
C112  C116  A    
N26   N27   A    
C5    N19   A    
C77   C78   S    
C133  H24   S    
C65   H59   S    
C21   H179  S    
N25   Ni4   S    
C87   H116  S    
C28   C29   S    
C105  C110  S    
N12   Ni2   S    
C30   C31   S    
C74   H81   S    
C64   H58   S    
C146  O4    S    
C85   H111  S    
C125  H143  S    
C18   C19   S    
C42   H7    S    
C150  O13   S    
C76   H86   S    
C86   O15   S    
C77   H87   S    
C70   C71   S    
C59   H43   S    
C174  C178  A    
C75   H84   S    
C6    C152  A    
C184  N16   A    
C169  H152  S    
C178  H156  S    
C53   H31   S    
C128  H146  S    
C96   C101  S    
C80   H94   S    
C107  C109  S    
C154  C168  S    
C95   H136  S    
C65   H60   S    
C7    N21   A    
C40   O23   S    
C145  C147  S    
C63   O7    S    
N6    N15   A    
C146  C148  S    
C66   H63   S    
C144  O6    S    
C84   C85   S    
C22   H183  S    
C167  C168  S    
C53   O4    S    
C86   C87   S    
C37   H217  S    
C58   C59   S    
C86   H114  S    
N21   Ni7   S    
C184  H163  S    
C4    H165  S    
C41   H4    S    
C60   C61   S    
C117  C141  S    
C9    C14   A    
C89   H121  S    
N29   Ni6   S    
C99   H137  S    
C50   C51   S    
C148  O10   S    
C151  C156  A    
C39   H222  S    
C58   H41   S    
C69   H66   S    
C2    C170  A    
C48   C49   S    
C49   H21   S    
C35   C104  S    
C83   O14   S    
C32   H205  S    
C8    N22   A    
C102  C110  S    
C71   H73   S    
C180  N11   A    
C157  C161  A    
C44   C45   S    
C182  H161  S    
N4    Ni3   S    
C10   O16   S    
C44   H11   S    
C60   H48   S    
N2    N10   A    
C175  N6    A    
C70   H71   S    
C50   O3    S    
C101  C111  S    
C135  C139  A    
C183  N15   A    
C10   C15   A    
C64   C65   S    
C51   H26   S    
C128  N31   A    
C43   O24   S    
C132  H13   S    
C170  N2    A    
C90   O12   S    
C118  C123  A    
C153  C157  A    
C94   C95   S    
C143  O5    S    
C176  H103  S    
C90   C103  S    
C161  H90   S    
N23   Ni3   S    
C129  C134  A    
C162  H101  S    
C147  O9    S    
C179  N10   A    
C25   H188  S    
C126  H144  S    
C129  H214  S    
C114  C149  S    
C34   H210  S    
C75   H82   S    
C177  N8    A    
C72   H74   S    
C165  C166  S    
C23   H185  S    
C81   H96   S    
C19   H176  S    
C97   N12   A    
C63   H54   S    
C81   C82   S    
C69   H69   S    
N24   Ni1   S    
C92   H126  S    
N20   Ni8   S    
C35   C182  A    
C98   C105  S    
C182  N14   A    
C60   H47   S    
C111  H203  S    
C20   H177  S    
C181  H160  S    
C131  C135  A    
N28   Ni5   S    
C104  C109  S    
C24   C158  S    
C113  C142  A    
C172  N4    A    
C37   O22   S    
N13   Ni8   S    
C173  N5    A    
C47   H17   S    
C11   C16   A    
C47   H16   S    
C109  H181  S    
C10   N25   A    
C125  C130  A    
C26   H190  S    
C56   C58   S    
C32   H207  S    
N8    N17   A    
C28   H196  S    
C30   H201  S    
C98   O19   S    
C122  O21   S    
C55   H37   S    
C50   H23   S    
C123  C129  A    
C61   H50   S    
C88   H119  S    
C78   H91   S    
C82   H99   S    
C90   C100  S    
C83   H106  S    
C146  O8    S    
C62   H52   S    
C74   C75   S    
C101  H139  S    
C147  H35   S    
C76   C77   S    
C16   C119  A    
C56   H40   S    
C127  N30   A    
C126  N29   A    
C14   C134  S    
N3    N11   A    
C45   H14   S    
N15   Ni2   S    
C17   H169  S    
N1    N22   A    
C128  C163  A    
C66   O8    S    
C124  C131  A    
C96   C98   S    
C67   C69   S    
C175  H102  S    
C46   C183  A    
C122  C133  A    
C59   H44   S    
C37   H216  S    
C29   H197  S    
C127  C152  A    
C57   C176  A    
C26   H191  S    
C139  C144  S    
C5    C141  A    
C47   C48   S    
C93   H130  S    
C33   C34   S    
C165  H147  S    
C76   O11   S    
C93   C94   S    
C6    N20   A    
C114  C118  A    
C4    N18   A    
N26   Ni3   S    
C40   C41   S    
C72   H76   S    
C19   H174  S    
C79   C104  S    
C144  O2    S    
C2    C179  A    
C108  N23   A    
C57   C106  S    
C73   H78   S    
C40   H224  S    
C14   C97   A    
C92   H128  S    
C96   C106  S    
C38   H218  S    
C100  C107  S    
C159  C164  A    
N17   Ni4   S    
C80   C81   S    
C134  C138  A    
C177  H104  S    
C119  H159  S    
C55   H36   S    
C31   H202  S    
C151  C166  S    
C44   H10   S    
C160  C161  A    
C84   H107  S    
C85   H110  S    
C115  C150  S    
C52   H29   S    
C27   H194  S    
N32   Ni2   S    
C102  C106  S    
C23   C25   S    
C71   H72   S    
C96   O18   S    
C158  C162  A    
C131  H2    S    
C51   H27   S    
C149  H57   S    
C115  C120  A    
C27   C28   S    
N11   Ni7   S    
C78   H89   S    
C82   H97   S    
C120  C124  A    
C74   H80   S    
