data_mof_unit_47129.cif
_audit_creation_date              2012-12-11T17:37:50-0500
_audit_creation_method            fapswitch 2.2
_symmetry_space_group_name_H-M    P1
_symmetry_Int_Tables_number       1
_space_group_crystal_system       triclinic
_cell_length_a                    12.971497
_cell_length_b                    13.034147
_cell_length_c                    15.303302
_cell_angle_alpha                 116.106114
_cell_angle_beta                  64.358244
_cell_angle_gamma                 96.671652
_cell_volume                      2085.76264308

loop_
_atom_site_label
_atom_site_type_symbol
_atom_type_description
_atom_site_fract_x
_atom_site_fract_y
_atom_site_fract_z
_atom_type_partial_charge
C1    C     C_R   0.022822 0.833999 0.030275 -0.129229
C2    C     C_R   0.319545 0.538409 0.780604 -0.161029
C3    C     C_R   0.245843 0.477003 0.104727 -0.180246
C4    C     C_R   0.701678 0.406421 0.208936 -0.155084
C5    C     C_R   0.984702 0.302527 0.697871 -0.162226
C6    C     C_R   0.338998 0.535591 0.070712 0.173330
C7    C     C_R   0.925489 0.209398 0.699014 0.054998
C8    C     C_R   0.324826 0.473202 0.678864 0.054520
C9    C     C_R   0.080614 0.145173 0.975111 0.024132
C10   C     C_R   0.299244 0.738816 0.346153 -0.103420
C11   C     C_R   0.189524 0.789579 0.385418 -0.124667
C12   C     C_R   0.704898 0.438182 0.305912 0.059118
C13   C     C_R   0.176395 0.894332 0.384321 0.132196
C14   C     C_R   0.274373 0.945816 0.340645 -0.176080
C15   C     C_R   0.383956 0.894009 0.300208 -0.109208
C16   C     C_R   0.739434 0.578697 0.948036 -0.153946
C17   C     C_R   0.396313 0.791613 0.304645 -0.071757
C18   C     C_R   0.043101 0.056579 0.537565 -0.242952
C19   C     C_R   0.934133 0.115075 0.603109 0.062792
C20   C     C_R   0.840030 0.079858 0.577927 0.022256
C21   C     C_R   0.859522 0.981503 0.483166 -0.244651
C22   C     C_R   0.969346 0.922884 0.418171 0.057995
C23   C     C_R   0.638038 0.560967 0.021209 0.143792
C24   C     C_R   0.061930 0.959175 0.444916 0.006693
C25   C     C_R   0.625834 0.083104 0.674224 -0.166975
C26   C     C_R   0.516330 0.142191 0.740296 -0.110862
C27   C     C_R   0.502972 0.261447 0.780587 -0.086381
C28   C     C_R   0.960616 0.717694 0.315601 -0.147331
C29   C     C_R   0.599054 0.321817 0.754567 -0.119279
C30   C     C_R   0.708549 0.263059 0.688299 -0.115491
C31   C     C_R   0.723427 0.143019 0.647955 0.124132
C32   C     C_R   0.918176 0.264492 0.366043 -0.106600
C33   C     C_R   0.812183 0.291798 0.374180 -0.139453
C34   C     C_R   0.986448 0.824731 0.321720 0.060980
C35   C     C_R   0.738322 0.385284 0.465371 0.126468
C36   C     C_R   0.772180 0.451046 0.548428 -0.175345
C37   C     C_R   0.878427 0.423962 0.539718 -0.144087
C38   C     C_R   0.951023 0.330238 0.448926 -0.099787
C39   C     C_R   0.527874 0.425342 0.566997 -0.244631
C40   C     C_R   0.662398 0.481981 0.047855 -0.108632
C41   C     C_R   0.421361 0.460270 0.582174 0.065848
C42   C     C_R   0.408647 0.485762 0.506790 0.014816
C43   C     C_R   0.503518 0.466864 0.412708 -0.245133
C44   C     C_R   0.610892 0.433238 0.397146 0.067052
C45   C     C_R   0.324132 0.575507 0.007550 -0.136320
C46   C     C_R   0.625166 0.414203 0.475278 0.016845
C47   C     C_R   0.251338 0.491415 0.454496 -0.203305
C48   C     C_R   0.150898 0.544087 0.473623 -0.137861
C49   C     C_R   0.099964 0.647208 0.565077 -0.106595
C50   C     C_R   0.150403 0.698920 0.636702 -0.105815
C51   C     C_R   0.251458 0.647185 0.617387 -0.123712
C52   C     C_R   0.048743 0.818135 0.220003 -0.119303
C53   C     C_R   0.301816 0.541901 0.526952 0.126229
C54   C     C_2   0.434601 0.553739 0.097513 -0.188235
C55   C     C_2   0.525010 0.599903 0.047633 -0.218543
C56   C     C_R   0.903931 0.201605 0.791758 -0.128546
C57   C     C_2   0.892859 0.964047 0.025233 -0.205786
C58   C     C_2   0.875117 0.054130 0.118577 -0.166642
C59   C     C_R   0.800261 0.495782 0.306257 -0.125396
C60   C     C_R   0.926945 0.748468 0.929961 -0.147808
C61   C     C_R   0.949145 0.854050 0.993973 0.136679
C62   C     C_R   0.216437 0.447601 0.685665 -0.110672
C63   C     C_R   0.095195 0.251059 0.047368 -0.122327
C64   C     C_R   0.996397 0.167308 0.950388 -0.084183
H1    H     H_    0.064346 0.897970 0.074600 0.088041
H2    H     H_    0.643922 0.350603 0.179518 0.095329
H3    H     H_    0.265681 0.027594 0.340861 0.109505
H4    H     H_    0.459236 0.934508 0.267617 0.112597
H5    H     H_    0.113123 0.085229 0.561219 0.144469
H6    H     H_    0.634519 0.990806 0.644656 0.109479
H7    H     H_    0.441777 0.095466 0.760512 0.110757
H8    H     H_    0.418214 0.307025 0.831800 0.119876
H9    H     H_    0.588701 0.414181 0.785466 0.106249
H10   H     H_    0.781426 0.311386 0.668191 0.119829
H11   H     H_    0.032851 0.308754 0.442671 0.102691
H12   H     H_    0.853923 0.140537 0.819256 0.092292
H13   H     H_    0.746889 0.626493 0.903748 0.087433
H14   H     H_    0.975046 0.192434 0.295636 0.098539
H15   H     H_    0.786917 0.240326 0.310136 0.121721
H16   H     H_    0.716670 0.523734 0.619529 0.105133
H17   H     H_    0.904006 0.475036 0.603847 0.114018
H18   H     H_    0.534966 0.407987 0.627422 0.137218
H19   H     H_    0.495022 0.488701 0.355202 0.127750
H20   H     H_    0.289287 0.410987 0.383776 0.110232
H21   H     H_    0.112663 0.505102 0.417376 0.117949
H22   H     H_    0.021851 0.687439 0.580007 0.097675
H23   H     H_    0.964623 0.104594 0.895295 0.087901
H24   H     H_    0.111312 0.779226 0.707123 0.107580
H25   H     H_    0.921419 0.692585 0.380655 0.095201
H26   H     H_    0.290001 0.688607 0.673233 0.108611
H27   H     H_    0.437627 0.510309 0.142670 0.114174
H28   H     H_    0.520507 0.647910 0.006732 0.124671
H29   H     H_    0.856169 0.969623 0.975640 0.126801
H30   H     H_    0.905162 0.051046 0.173446 0.127799
H31   H     H_    0.604920 0.443147 0.097928 0.084455
H32   H     H_    0.092607 0.885330 0.199292 0.087909
H33   H     H_    0.832578 0.524993 0.366754 0.103693
H34   H     H_    0.388573 0.576978 0.802152 0.096859
H35   H     H_    0.882487 0.733754 0.880726 0.087513
H36   H     H_    0.370489 0.637481 0.979682 0.084694
H37   H     H_    0.190967 0.401524 0.620859 0.105199
H38   H     H_    0.154782 0.266188 0.082894 0.096103
H39   H     H_    0.790276 0.951066 0.458988 0.135984
H40   H     H_    0.224568 0.447393 0.165883 0.092969
H41   H     H_    0.009684 0.335948 0.638883 0.098359
H42   H     H_    0.481175 0.752787 0.275391 0.114339
H43   H     H_    0.309215 0.659228 0.348962 0.120249
H44   H     H_    0.115007 0.749962 0.420794 0.103938
N1    N     N_R   0.037320 0.720000 0.995830 -0.044175
N2    N     N_R   0.824900 0.517970 0.936430 -0.039045
N3    N     N_R   0.003190 0.648180 0.211390 -0.036763
N4    N     N_R   0.774330 0.457010 0.995830 -0.044445
N5    N     N_R   0.053760 0.709130 0.151980 -0.037844
N6    N     N_R   0.853840 0.498830 0.211390 -0.039682
N7    N     N_R   0.974250 0.667320 0.936430 -0.038476
N8    N     N_R   0.225670 0.542990 0.004170 -0.044269
N9    N     N_R   0.946240 0.290870 0.848020 -0.042299
N10   N     N_R   0.146160 0.501170 0.788610 -0.041528
N11   N     N_R   0.025750 0.332680 0.063570 -0.039534
N12   N     N_R   0.962680 0.280000 0.004170 -0.043462
N13   N     N_R   0.209230 0.553860 0.848010 -0.039945
N14   N     N_R   0.175100 0.482030 0.063570 -0.041360
N15   N     N_R   0.996810 0.351820 0.788610 -0.037688
N16   N     N_R   0.790770 0.446140 0.151990 -0.039124
Ni1   Ni    Ni4+2 0.130310 0.630310 0.000000 0.207463
Ni2   Ni    Ni4+2 0.869690 0.369690 0.000000 0.209650
Ni3   Ni    Ni4+2 0.985660 0.509480 0.863750 0.211585
Ni4   Ni    Ni4+2 0.014340 0.490520 0.136250 0.211817

loop_
_geom_bond_atom_site_label_1
_geom_bond_atom_site_label_2
_ccdc_geom_bond_type
C3    H40   S    
C25   C31   A    
C56   H12   S    
C6    C45   A    
C27   C29   A    
C9    C64   A    
C43   H19   S    
C56   N9    A    
C19   C20   A    
C60   H35   S    
C16   N2    A    
C39   C41   A    
C5    H41   S    
C52   N5    A    
C26   C27   A    
C29   C30   A    
N8    N14   A    
C18   C24   A    
C36   C37   A    
C18   C19   A    
C42   C53   S    
C30   C31   A    
C30   H10   S    
N12   Ni2   S    
C29   H9    S    
C10   C17   A    
C23   C40   A    
N7    Ni3   S    
C4    N16   A    
C16   H13   S    
C41   C42   A    
C1    N1    A    
C12   C59   A    
C35   C36   A    
C1    H1    S    
C14   H3    S    
C28   H25   S    
C32   C38   A    
C4    C12   A    
N9    Ni2   S    
C64   H23   S    
N4    Ni2   S    
C3    N14   A    
C50   H24   S    
N2    Ni3   S    
C47   C53   A    
C62   H37   S    
N6    N16   A    
N11   Ni4   S    
C3    C6    A    
C18   H5    S    
C28   C34   A    
C57   H29   S    
C21   C22   A    
C26   H7    S    
C37   H17   S    
C10   H43   S    
C7    C56   A    
C6    C54   S    
C63   H38   S    
C44   C46   A    
C38   H11   S    
C28   N3    A    
C22   C34   S    
C8    C41   S    
C40   N4    A    
C36   H16   S    
C5    C7    A    
C33   H15   S    
C25   C26   A    
C13   C24   S    
C60   C61   A    
C51   C53   A    
N10   N13   A    
C43   C44   A    
N13   Ni1   S    
C37   C38   A    
N6    Ni4   S    
N15   Ni3   S    
C47   C48   A    
C14   C15   A    
C50   C51   A    
N3    N5    A    
C47   H20   S    
C57   C61   S    
C39   C46   A    
N1    Ni1   S    
C48   C49   A    
C55   H28   S    
C49   C50   A    
C16   C23   A    
C7    C19   S    
N8    Ni1   S    
C59   H33   S    
C22   C24   A    
C42   C43   A    
C40   H31   S    
C11   H44   S    
N16   Ni2   S    
C58   H30   S    
C2    N13   A    
C15   C17   A    
C54   C55   D    
C9    C63   A    
C49   H22   S    
C2    C8    A    
C39   H18   S    
C45   H36   S    
C1    C61   A    
N11   N12   A    
C23   C55   S    
C5    N15   A    
C34   C52   A    
C64   N12   A    
C32   C33   A    
N9    N15   A    
C54   H27   S    
C51   H26   S    
C17   H42   S    
C4    H2    S    
C11   C13   A    
C45   N8    A    
C57   C58   D    
C59   N6    A    
C15   H4    S    
C33   C35   A    
C52   H32   S    
N14   Ni4   S    
N2    N4    A    
C62   N10   A    
C10   C11   A    
N1    N7    A    
C32   H14   S    
C21   H39   S    
N5    Ni1   S    
C20   C21   A    
C2    H34   S    
C12   C44   S    
C63   N11   A    
N10   Ni3   S    
N3    Ni4   S    
C48   H21   S    
C60   N7    A    
C25   H6    S    
C13   C14   A    
C35   C46   S    
C27   H8    S    
C8    C62   A    
C20   C31   S    
