data_mof_unit_35698.cif
_audit_creation_date              2012-12-10T17:41:04-0500
_audit_creation_method            fapswitch 2.2
_symmetry_space_group_name_H-M    P1
_symmetry_Int_Tables_number       1
_space_group_crystal_system       triclinic
_cell_length_a                    14.928559
_cell_length_b                    15.112533
_cell_length_c                    10.007975
_cell_angle_alpha                 90.399336
_cell_angle_beta                  93.142442
_cell_angle_gamma                 90.491003
_cell_volume                      2254.34217679

loop_
_atom_site_label
_atom_site_type_symbol
_atom_type_description
_atom_site_fract_x
_atom_site_fract_y
_atom_site_fract_z
_atom_type_partial_charge
C1    C     C_R   0.393967 0.869639 0.497959 0.892676
C2    C     C_R   0.735388 0.197446 0.383932 -0.254777
C3    C     C_R   0.224295 0.291311 0.385336 -0.247438
C4    C     C_R   0.235421 0.697397 0.383936 -0.254809
C5    C     C_R   0.696889 0.819686 0.509659 -0.132872
C6    C     C_R   0.700331 0.178441 0.508723 -0.116767
C7    C     C_R   0.196871 0.319666 0.509662 -0.132914
C8    C     C_R   0.200348 0.678416 0.508726 -0.116764
C9    C     C_R   0.337469 0.986711 0.126611 -0.178714
C10   C     C_R   0.837470 0.486707 0.126611 -0.178685
C11   C     C_R   0.257159 0.975307 0.050916 -0.214622
C12   C     C_R   0.392192 0.129583 0.498079 0.899584
C13   C     C_R   0.757159 0.475307 0.050916 -0.214596
C14   C     C_R   0.256158 0.979655 0.912804 -0.166568
C15   C     C_R   0.756158 0.479656 0.912804 -0.166588
C16   C     C_R   0.335766 0.992590 0.849359 -0.128869
C17   C     C_R   0.835766 0.492590 0.849359 -0.128874
C18   C     C_R   0.419406 0.996987 0.922050 0.158744
C19   C     C_R   0.919407 0.496986 0.922050 0.158764
C20   C     C_R   0.419708 0.995804 0.065927 0.130658
C21   C     C_R   0.919708 0.495803 0.065927 0.130660
C22   C     C_R   0.578110 0.998084 0.075119 0.229657
C23   C     C_R   0.893975 0.369634 0.497958 0.892581
C24   C     C_R   0.078111 0.498084 0.075122 0.229583
C25   C     C_R   0.622110 0.119915 0.503389 0.878464
C26   C     C_R   0.621474 0.880139 0.503285 0.866343
C27   C     C_R   0.122116 0.619907 0.503390 0.878484
C28   C     C_R   0.121468 0.380132 0.503285 0.866400
C29   C     C_R   0.576510 0.998537 0.932567 -0.140880
C30   C     C_R   0.076511 0.498540 0.932569 -0.140855
C31   C     C_R   0.404048 0.271957 0.712817 0.004956
C32   C     C_R   0.400016 0.741425 0.720169 0.006179
C33   C     C_R   0.904055 0.771955 0.712827 0.004942
C34   C     C_R   0.892195 0.629584 0.498079 0.899599
C35   C     C_R   0.900012 0.241421 0.720166 0.006173
C36   C     C_R   0.384133 0.300549 0.841418 0.040572
C37   C     C_R   0.372446 0.741020 0.850000 0.044178
C38   C     C_R   0.884139 0.800549 0.841426 0.040561
C39   C     C_R   0.872435 0.241037 0.849995 0.044243
C40   C     C_R   0.796775 0.824926 0.865339 -0.253097
C41   C     C_R   0.782114 0.222638 0.870944 -0.222015
C42   C     C_R   0.296769 0.324922 0.865335 -0.253149
C43   C     C_R   0.282129 0.722609 0.870957 -0.222020
C44   C     C_R   0.731885 0.828684 0.759991 -0.163194
C45   C     C_R   0.301235 0.243284 0.373544 0.160231
C46   C     C_R   0.723709 0.195304 0.762629 -0.160734
C47   C     C_R   0.231877 0.328677 0.759990 -0.163171
C48   C     C_R   0.223721 0.695281 0.762640 -0.160679
C49   C     C_R   0.752043 0.803320 0.628113 0.112009
C50   C     C_R   0.751049 0.202873 0.629234 0.091935
C51   C     C_R   0.252033 0.303311 0.628112 0.111992
C52   C     C_R   0.251056 0.702862 0.629242 0.091928
C53   C     C_R   0.334313 0.261194 0.612456 0.005114
C54   C     C_R   0.335414 0.740920 0.614020 0.000204
C55   C     C_R   0.834322 0.761197 0.612461 0.005107
C56   C     C_R   0.313677 0.745910 0.376294 0.134255
C57   C     C_R   0.835415 0.240915 0.614011 0.000321
C58   C     C_R   0.347047 0.215231 0.492107 -0.182925
C59   C     C_R   0.351833 0.782063 0.494040 -0.131028
C60   C     C_R   0.847056 0.715237 0.492111 -0.182928
C61   C     C_R   0.851843 0.282055 0.494033 -0.131174
C62   C     C_3   0.336170 0.234836 0.234432 -0.378131
C63   C     C_3   0.269321 0.186435 0.138092 -0.838151
C64   C     C_3   0.366853 0.738197 0.253656 -0.377872
C65   C     C_3   0.452340 0.684963 0.285838 -0.804487
C66   C     C_3   0.836201 0.734853 0.234436 -0.378142
C67   C     C_R   0.801261 0.743308 0.373545 0.160267
C68   C     C_3   0.769351 0.686447 0.138100 -0.838105
C69   C     C_3   0.866848 0.238173 0.253661 -0.377880
C70   C     C_3   0.952173 0.184672 0.285800 -0.804506
C71   C     C_1   0.494609 0.282384 0.672006 0.142081
C72   C     C_1   0.493023 0.727221 0.693746 0.154636
C73   C     C_1   0.994618 0.782371 0.672023 0.142115
C74   C     C_1   0.993020 0.227210 0.693757 0.154596
C75   C     C_1   0.453107 0.308539 0.948023 0.135440
C76   C     C_1   0.436826 0.767927 0.955195 0.136383
C77   C     C_1   0.953112 0.808537 0.948033 0.135440
C78   C     C_R   0.813665 0.245925 0.376290 0.134380
C79   C     C_1   0.936812 0.267965 0.955189 0.136338
C80   C     C_3   0.669070 0.983895 0.146337 -0.371113
C81   C     C_3   0.743664 0.041516 0.094034 -0.990084
C82   C     C_3   0.169063 0.483851 0.146355 -0.370949
C83   C     C_3   0.243725 0.541380 0.094005 -0.990174
C84   C     C_R   0.724331 0.791351 0.385330 -0.247528
H1    H     H_    0.193105 0.974256 0.854350 0.167067
H2    H     H_    0.257172 0.728392 0.969564 0.141863
H3    H     H_    0.666667 0.848816 0.787631 0.191509
H4    H     H_    0.656679 0.176189 0.785744 0.189429
H5    H     H_    0.166656 0.348804 0.787633 0.191519
H6    H     H_    0.156696 0.676154 0.785760 0.189419
H7    H     H_    0.686467 0.808173 0.294282 0.184092
H8    H     H_    0.703837 0.172455 0.291421 0.185969
H9    H     H_    0.186410 0.308107 0.294295 0.184135
H10   H     H_    0.203893 0.672375 0.291422 0.185955
H11   H     H_    0.332575 0.990782 0.232214 0.221125
H12   H     H_    0.693105 0.474259 0.854351 0.167065
H13   H     H_    0.832576 0.490777 0.232214 0.221123
H14   H     H_    0.194834 0.967136 0.100098 0.165941
H15   H     H_    0.694834 0.467136 0.100099 0.165934
H16   H     H_    0.239206 0.129238 0.188480 0.268842
H17   H     H_    0.214100 0.230882 0.103614 0.242046
H18   H     H_    0.303711 0.164042 0.048491 0.269715
H19   H     H_    0.346431 0.302658 0.195457 0.198552
H20   H     H_    0.403070 0.204063 0.233221 0.241489
H21   H     H_    0.502623 0.726221 0.344338 0.258306
H22   H     H_    0.436830 0.625083 0.344448 0.250952
H23   H     H_    0.328702 0.998304 0.743487 0.213218
H24   H     H_    0.482054 0.661976 0.192820 0.255648
H25   H     H_    0.327593 0.703142 0.172808 0.190410
H26   H     H_    0.382428 0.804126 0.214085 0.247721
H27   H     H_    0.739242 0.629249 0.188491 0.268845
H28   H     H_    0.714127 0.730891 0.103627 0.242051
H29   H     H_    0.803741 0.664055 0.048496 0.269697
H30   H     H_    0.846466 0.802672 0.195455 0.198532
H31   H     H_    0.903100 0.704078 0.233234 0.241485
H32   H     H_    0.002381 0.225558 0.345104 0.258136
H33   H     H_    0.936331 0.124517 0.343598 0.250871
H34   H     H_    0.828702 0.498304 0.743487 0.213224
H35   H     H_    0.982144 0.162101 0.192759 0.255748
H36   H     H_    0.827502 0.203289 0.172727 0.190393
H37   H     H_    0.882629 0.304096 0.214213 0.247826
H38   H     H_    0.767500 0.015163 0.998660 0.269780
H39   H     H_    0.718178 0.109242 0.078780 0.261831
H40   H     H_    0.801993 0.043051 0.167884 0.273377
H41   H     H_    0.668802 0.998644 0.252888 0.276781
H42   H     H_    0.687671 0.913624 0.133916 0.187246
H43   H     H_    0.267542 0.514962 0.998651 0.269757
H44   H     H_    0.218314 0.609129 0.078707 0.261816
H45   H     H_    0.637807 0.995837 0.880372 0.159628
H46   H     H_    0.302057 0.542887 0.167852 0.273393
H47   H     H_    0.168799 0.498661 0.252893 0.276750
H48   H     H_    0.187598 0.413551 0.134010 0.187291
H49   H     H_    0.137807 0.495836 0.880372 0.159645
H50   H     H_    0.779871 0.846129 0.964229 0.156978
H51   H     H_    0.757145 0.228441 0.969539 0.141887
H52   H     H_    0.279865 0.346123 0.964226 0.157008
N1    N     N_R   0.498810 1.000000 0.142780 -0.147584
N2    N     N_1   0.491850 0.791261 0.033765 -0.232151
N3    N     N_1   0.008525 0.814849 0.033163 -0.232369
N4    N     N_1   0.991838 0.291317 0.033753 -0.232281
N5    N     N_R   0.998810 0.500000 0.142780 -0.147609
N6    N     N_R   0.498740 1.000000 0.857170 -0.145696
N7    N     N_R   0.998740 0.500000 0.857170 -0.145700
N8    N     N_1   0.566183 0.295179 0.637957 -0.230439
N9    N     N_1   0.566747 0.712374 0.672904 -0.224492
N10   N     N_1   0.066195 0.795158 0.637982 -0.230434
N11   N     N_1   0.066746 0.212359 0.672927 -0.224528
N12   N     N_1   0.508521 0.314852 0.033152 -0.232378
O1    O     O_R   0.408390 0.908380 0.614690 -0.629278
O2    O     O_R   0.591620 0.908390 0.614640 -0.630132
O3    O     O_R   0.091620 0.591610 0.614640 -0.628909
O4    O     O_R   0.091620 0.408390 0.614640 -0.630170
O5    O     O_R   0.591610 0.091610 0.385310 -0.639819
O6    O     O_R   0.591610 0.908390 0.385310 -0.647376
O7    O     O_R   0.091610 0.591610 0.385310 -0.639863
O8    O     O_R   0.091610 0.408390 0.385310 -0.647275
O9    O     O_R   0.408390 0.091620 0.614690 -0.627761
O10   O     O_R   0.908390 0.408380 0.614690 -0.629253
O11   O     O_R   0.908390 0.591620 0.614690 -0.627759
O12   O     O_R   0.408370 0.908380 0.385360 -0.639747
O13   O     O_R   0.408370 0.091620 0.385360 -0.630439
O14   O     O_R   0.908370 0.408380 0.385360 -0.639787
O15   O     O_R   0.908370 0.591620 0.385360 -0.630429
O16   O     O_R   0.591620 0.091610 0.614640 -0.628900
Zn1   Zn    Zn3+2 0.500010 1.000000 0.653130 0.930358
Zn2   Zn    Zn3+2 0.000010 0.500000 0.653130 0.930354
Zn3   Zn    Zn3+2 0.499980 1.000000 0.346870 0.916429
Zn4   Zn    Zn3+2 0.999980 0.500000 0.346870 0.916448

loop_
_geom_bond_atom_site_label_1
_geom_bond_atom_site_label_2
_ccdc_geom_bond_type
C44   C49   A    
C33   C55   A    
C66   C68   S    
C35   C74   S    
C37   C43   A    
C22   C29   A    
C36   C42   A    
N1    Zn3   S    
C83   H44   S    
C63   H17   S    
C39   C41   A    
C22   N1    A    
C62   C63   S    
C81   H39   S    
C11   H14   S    
O16   Zn1   S    
C19   C21   A    
O7    Zn4   S    
C3    C7    A    
C1    C59   S    
C11   C14   A    
C6    C25   S    
C80   H41   S    
O8    Zn4   S    
C70   H33   S    
C72   N9    T    
C23   O10   A    
C45   C62   S    
C42   H52   S    
C68   H28   S    
O12   Zn3   S    
C65   H21   S    
C24   C82   S    
C16   H23   S    
C12   O13   A    
C29   H45   S    
C60   C67   A    
C19   N7    A    
C41   C46   A    
C56   C64   S    
C1    O1    A    
C84   H7    S    
C12   O9    A    
C44   H3    S    
C43   C48   A    
C9    H11   S    
C65   H24   S    
C62   H20   S    
C4    C8    A    
C68   H29   S    
C23   O14   A    
C12   C58   S    
C34   O11   A    
C22   C80   S    
C24   N5    A    
C31   C71   S    
C66   C67   S    
C67   C84   A    
C48   H6    S    
C55   C60   A    
C4    C56   A    
C34   C60   S    
C47   H5    S    
C5    C49   A    
C69   C78   S    
C2    C6    A    
C63   H18   S    
C32   C54   A    
C52   C54   A    
C46   H4    S    
C54   C59   A    
C10   C21   A    
C27   O7    A    
C45   C58   A    
C66   H31   S    
C81   H40   S    
C25   O5    A    
C74   N11   T    
C18   N6    A    
O1    Zn1   S    
C83   H46   S    
C32   C72   S    
C34   O15   A    
O9    Zn1   S    
C15   H12   S    
C5    C84   A    
C47   C51   A    
C70   H32   S    
C49   C55   A    
O2    Zn1   S    
C40   H50   S    
C3    C45   A    
C6    C50   A    
C7    C28   S    
C51   C53   A    
C68   H27   S    
C39   C79   S    
C20   N1    A    
C13   H15   S    
C10   H13   S    
C35   C39   A    
N7    Zn2   S    
C63   H16   S    
C2    C78   A    
C36   C75   S    
C9    C20   A    
C64   H26   S    
C69   H37   S    
C61   C78   A    
C30   H49   S    
C73   N10   T    
C3    H9    S    
C32   C37   A    
C31   C53   A    
C2    H8    S    
C9    C11   A    
O13   Zn3   S    
C17   H34   S    
O14   Zn4   S    
C33   C73   S    
C37   C76   S    
C40   C44   A    
C28   O4    A    
C13   C15   A    
C14   C16   A    
O6    Zn3   S    
C26   O6    A    
C70   H35   S    
C82   H48   S    
C65   H22   S    
C41   H51   S    
O10   Zn2   S    
C62   H19   S    
C23   C61   S    
C15   C17   A    
C8    C52   A    
N5    Zn4   S    
C27   O3    A    
C66   H30   S    
C50   C57   A    
C1    O12   A    
C77   N3    T    
C14   H1    S    
C83   H43   S    
C80   C81   S    
C10   C13   A    
O4    Zn2   S    
C53   C58   A    
C56   C59   A    
C57   C61   A    
C38   C77   S    
C76   N2    T    
C75   N12   T    
O3    Zn2   S    
C46   C50   A    
C69   H36   S    
C33   C38   A    
O11   Zn2   S    
C26   O2    A    
C81   H38   S    
C35   C57   A    
C64   C65   S    
O15   Zn4   S    
C7    C51   A    
N6    Zn1   S    
C38   C40   A    
C64   H25   S    
C4    H10   S    
C80   H42   S    
C29   N6    A    
C17   C19   A    
C79   N4    T    
C18   C20   A    
C42   C47   A    
C69   C70   S    
C24   C30   A    
C43   H2    S    
C30   N7    A    
C21   N5    A    
C5    C26   S    
C48   C52   A    
C16   C18   A    
C82   C83   S    
C28   O8    A    
C8    C27   S    
C31   C36   A    
C25   O16   A    
C82   H47   S    
O5    Zn3   S    
C71   N8    T    
