data_mof_unit_56215.cif
_audit_creation_date              2012-12-10T17:45:36-0500
_audit_creation_method            fapswitch 2.2
_symmetry_space_group_name_H-M    P1
_symmetry_Int_Tables_number       1
_space_group_crystal_system       triclinic
_cell_length_a                    11.545274
_cell_length_b                    10.667841
_cell_length_c                    9.904649
_cell_angle_alpha                 91.596905
_cell_angle_beta                  90.00025
_cell_angle_gamma                 91.602339
_cell_volume                      1218.93676937

loop_
_atom_site_label
_atom_site_type_symbol
_atom_type_description
_atom_site_fract_x
_atom_site_fract_y
_atom_site_fract_z
_atom_type_partial_charge
C1    C     C_R   0.508020 0.260193 0.498538 0.847821
C2    C     C_R   0.470490 0.872734 0.511699 -0.124407
C3    C     C_R   0.351484 0.332561 0.135716 -0.162575
C4    C     C_R   0.281988 0.499656 0.499999 0.878708
C5    C     C_R   0.278804 0.249101 0.063371 -0.188382
C6    C     C_R   0.277636 0.249771 0.923698 -0.184524
C7    C     C_R   0.349353 0.333664 0.855557 -0.132617
C8    C     C_R   0.426083 0.417885 0.925411 0.175372
C9    C     C_R   0.426585 0.417608 0.070047 0.166974
C10   C     C_R   0.570843 0.578188 0.073962 -0.049954
C11   C     C_R   0.571074 0.577989 0.930760 -0.037606
C12   C     C_R   0.618022 0.064952 0.845180 -0.331750
C13   C     C_R   0.488250 0.739449 0.502935 0.864378
C14   C     C_R   0.718018 0.500370 0.500013 0.904196
C15   C     C_1   0.161529 0.499631 0.500025 -0.184944
C16   C     C_1   0.059352 0.499722 0.500035 0.001913
C17   C     C_1   0.940676 0.499945 0.500025 -0.001600
C18   C     C_1   0.838496 0.500166 0.500014 -0.198363
C19   C     C_R   0.609087 0.121034 0.720872 -0.217219
C20   C     C_3   0.639463 0.934837 0.089897 0.074905
C21   C     C_3   0.760126 0.890910 0.046638 -0.405759
C22   C     C_3   0.849880 0.921841 0.156530 -0.923813
C23   C     C_R   0.553637 0.953655 0.872050 0.565548
C24   C     C_2   0.383373 0.814158 0.798455 0.499585
C25   C     C_R   0.484033 0.899239 0.766457 -0.090705
C26   C     C_R   0.497091 0.943361 0.632367 -0.073698
C27   C     C_R   0.541400 0.064548 0.616492 0.107342
C28   C     C_R   0.513421 0.126263 0.497071 -0.087913
C29   C     C_R   0.467797 0.059994 0.384845 -0.238860
C30   C     C_R   0.450813 0.932614 0.390593 -0.207498
H1    H     H_    0.445849 0.106131 0.292558 0.173609
H2    H     H_    0.222411 0.184174 0.116208 0.154237
H3    H     H_    0.618483 0.889350 0.186592 0.186097
H4    H     H_    0.637491 0.037056 0.114022 0.132732
H5    H     H_    0.757036 0.788035 0.026628 0.217623
H6    H     H_    0.788793 0.936120 0.952426 0.221277
H7    H     H_    0.855715 0.024722 0.177143 0.262161
H8    H     H_    0.936095 0.889689 0.122756 0.270863
H9    H     H_    0.826152 0.873641 0.251034 0.264447
H10   H     H_    0.320779 0.787991 0.720128 0.039935
H11   H     H_    0.220209 0.185439 0.867605 0.149293
H12   H     H_    0.341377 0.329770 0.748575 0.202303
H13   H     H_    0.628773 0.642004 0.878736 0.140641
H14   H     H_    0.657671 0.207863 0.706172 0.178197
H15   H     H_    0.672003 0.113524 0.919801 0.151881
H16   H     H_    0.424014 0.880668 0.299760 0.197374
H17   H     H_    0.628486 0.641840 0.130109 0.143056
H18   H     H_    0.346155 0.327768 0.242666 0.202281
N1    N     N_R   0.498930 0.498800 0.142780 -0.127404
N2    N     N_R   0.498900 0.498720 0.857170 -0.126882
O1    O     O_R   0.500000 0.316780 0.614690 -0.642560
O2    O     O_2   0.367220 0.774489 0.911529 -0.538540
O3    O     O_R   0.499990 0.316750 0.385360 -0.644322
O4    O     O_R   0.334450 0.500030 0.614670 -0.631062
O5    O     O_R   0.334440 0.500000 0.385330 -0.620860
O6    O     O_R   0.500010 0.683250 0.614640 -0.630568
O7    O     O_R   0.500000 0.683220 0.385310 -0.606412
O8    O     O_R   0.665560 0.500000 0.614670 -0.618995
O9    O     O_R   0.665550 0.499970 0.385330 -0.610684
O10   O     O_3   0.551763 0.895204 0.996940 -0.618856
Zn1   Zn    Zn3+2 0.500010 0.500020 0.653130 0.939602
Zn2   Zn    Zn3+2 0.499990 0.499980 0.346870 0.944983

loop_
_geom_bond_atom_site_label_1
_geom_bond_atom_site_label_2
_ccdc_geom_bond_type
C24   O2    D    
C1    C28   S    
C24   C25   S    
C11   H13   S    
C6    C7    A    
C21   H5    S    
O4    Zn1   S    
C20   O10   S    
C19   C27   A    
O3    Zn2   S    
C14   C18   S    
O1    Zn1   S    
C2    C30   A    
C5    H2    S    
C20   H4    S    
C13   O6    A    
O8    Zn1   S    
C22   H7    S    
C17   C18   T    
O7    Zn2   S    
C2    C26   A    
C21   H6    S    
C21   C22   S    
C19   H14   S    
C14   O9    A    
C1    O1    A    
C12   C23   A    
C26   C27   A    
C29   C30   A    
C4    C15   S    
C3    C9    A    
C20   H3    S    
C12   C19   A    
C2    C13   S    
C28   C29   A    
C24   H10   S    
C12   H15   S    
C23   C25   A    
C4    O5    A    
C23   O10   S    
C14   O8    A    
C10   H17   S    
C13   O7    A    
C10   C11   A    
C22   H9    S    
C15   C16   T    
C22   H8    S    
O5    Zn2   S    
C8    N2    A    
C3    H18   S    
C7    C8    A    
C9    N1    A    
C20   C21   S    
C29   H1    S    
C7    H12   S    
C27   C28   A    
C5    C6    A    
N2    Zn1   S    
C11   N2    A    
O6    Zn1   S    
C16   C17   S    
O9    Zn2   S    
C1    O3    A    
N1    Zn2   S    
C4    O4    A    
C25   C26   A    
C10   N1    A    
C30   H16   S    
C8    C9    A    
C3    C5    A    
C6    H11   S    
