data_mof_unit_6386.cif
_audit_creation_date              2012-12-11T14:08:28-0500
_audit_creation_method            fapswitch 2.2
_symmetry_space_group_name_H-M    P1
_symmetry_Int_Tables_number       1
_space_group_crystal_system       triclinic
_cell_length_a                    10.923894
_cell_length_b                    10.957327
_cell_length_c                    18.690181
_cell_angle_alpha                 90.513401
_cell_angle_beta                  89.885487
_cell_angle_gamma                 60.427643
_cell_volume                      1945.59460092

loop_
_atom_site_label
_atom_site_type_symbol
_atom_type_description
_atom_site_fract_x
_atom_site_fract_y
_atom_site_fract_z
_atom_type_partial_charge
C1    C     C_R   0.236297 0.645747 0.608728 0.542941
C2    C     C_2   0.778155 0.155902 0.707874 -0.193492
C3    C     C_2   0.180076 0.663678 0.681180 -0.127863
C4    C     C_R   0.649463 0.616644 0.604240 0.545842
C5    C     C_2   0.193705 0.662474 0.839037 -0.122825
C6    C     C_2   0.187924 0.563236 0.799034 -0.175317
C7    C     C_2   0.217222 0.550455 0.722098 -0.176263
C8    C     C_2   0.650161 0.646108 0.317305 -0.092728
C9    C     C_2   0.633340 0.665885 0.159657 -0.107515
C10   C     C_2   0.706327 0.546309 0.195191 -0.161845
C11   C     C_2   0.687697 0.537261 0.271704 -0.148350
C12   C     C_3   0.733966 0.512847 0.799753 -0.245796
C13   C     C_2   0.633133 0.197024 0.318485 -0.101545
C14   C     C_2   0.636976 0.202587 0.163937 -0.109543
C15   C     C_2   0.522558 0.230435 0.201318 -0.166131
C16   C     C_R   0.628070 0.227309 0.601870 0.534617
C17   C     C_2   0.517188 0.257707 0.277236 -0.151972
C18   C     C_2   0.122900 0.679824 0.344786 -0.108834
C19   C     C_2   0.114255 0.691295 0.190549 -0.086674
C20   C     C_2   0.043268 0.803611 0.234288 -0.147010
C21   C     C_2   0.075387 0.799051 0.309566 -0.166396
C22   C     C_R   0.702943 0.103999 0.898429 0.547830
C23   C     C_3   0.692820 0.666808 0.816262 0.058179
C24   C     C_R   0.718597 0.684076 0.891178 0.535581
C25   C     C_R   0.118978 0.706297 0.907353 0.549184
C26   C     C_R   0.673048 0.114413 0.101258 0.552945
C27   C     C_R   0.692240 0.688837 0.094748 0.552350
C28   C     C_R   0.215867 0.650904 0.404460 0.554964
C29   C     C_R   0.086731 0.713480 0.115238 0.553085
C30   C     C_R   0.641449 0.620843 0.392648 0.553029
C31   C     C_R   0.614319 0.233335 0.393392 0.550888
C32   C     C_3   0.536396 0.761906 0.795609 -0.237972
C33   C     C_3   0.518788 0.745618 0.715127 -0.223661
C34   C     C_3   0.663050 0.639108 0.680576 0.049486
C35   C     C_3   0.786454 0.708405 0.771032 -0.212704
C36   C     C_1   0.588713 0.098719 0.700021 0.193523
C37   C     C_3   0.768821 0.691779 0.690863 -0.248763
C38   C     C_3   0.717183 0.496407 0.719666 -0.222858
C39   C     C_2   0.674359 0.153313 0.670003 -0.018582
C40   C     C_2   0.689499 0.173413 0.830511 -0.105543
C41   C     C_2   0.799239 0.122302 0.784636 -0.173561
Cr1   Cr    Cr6+3 0.393010 0.398050 0.501480 1.024677
Cr2   Cr    Cr6+3 0.398820 0.707980 0.501630 1.024835
Cr3   Cr    Cr6+3 0.708140 0.393940 0.496850 1.014147
Cr4   Cr    Cr6+3 0.937950 0.938450 0.008940 1.017111
Cr5   Cr    Cr6+3 0.626180 0.937030 0.994750 1.023843
Cr6   Cr    Cr6+3 0.937790 0.625760 0.001410 1.017343
H1    H     H_    0.500892 0.873854 0.808084 0.178065
H2    H     H_    0.233400 0.727306 0.816344 0.100875
H3    H     H_    0.468302 0.732363 0.826861 0.103840
H4    H     H_    0.124900 0.768897 0.704145 0.106610
H5    H     H_    0.792279 0.454531 0.169498 0.151654
H6    H     H_    0.718524 0.433249 0.291801 0.152800
H7    H     H_    0.541988 0.754846 0.183864 0.111651
H8    H     H_    0.618026 0.751485 0.299222 0.096152
H9    H     H_    0.438460 0.216867 0.178637 0.156371
H10   H     H_    0.412830 0.322722 0.300214 0.157999
H11   H     H_    0.716888 0.223509 0.186094 0.096783
H12   H     H_    0.821327 0.416521 0.697668 0.140393
H13   H     H_    0.738452 0.131768 0.296880 0.083342
H14   H     H_    0.970661 0.906410 0.213018 0.152424
H15   H     H_    0.441684 0.708076 0.707646 0.131564
H16   H     H_    0.078105 0.889040 0.332682 0.154285
H17   H     H_    0.188283 0.587236 0.209557 0.085966
H18   H     H_    0.111466 0.593609 0.323025 0.107447
H19   H     H_    0.474816 0.849244 0.688804 0.167084
H20   H     H_    0.758550 0.818927 0.782963 0.148902
H21   H     H_    0.730990 0.793939 0.663640 0.134176
H22   H     H_    0.845131 0.440002 0.814807 0.144027
H23   H     H_    0.899111 0.641148 0.785017 0.133954
H24   H     H_    0.666083 0.482793 0.830886 0.115868
H25   H     H_    0.642101 0.456531 0.711543 0.125724
H26   H     H_    0.872589 0.615984 0.666722 0.130411
H27   H     H_    0.904911 0.048323 0.802238 0.151817
H28   H     H_    0.847420 0.187701 0.682710 0.138902
H29   H     H_    0.584369 0.248493 0.812654 0.118721
H30   H     H_    0.154122 0.493808 0.821882 0.156161
H31   H     H_    0.270083 0.445272 0.699062 0.170626
N1    N     N_1   0.518508 0.057605 0.724030 -0.353650
O1    O     O_R   0.507110 0.256280 0.580300 -0.507103
O2    O     O_R   0.837080 0.593860 0.915300 -0.530440
O3    O     O_R   0.064770 0.636080 0.932550 -0.498603
O4    O     O_R   0.280830 0.527190 0.577940 -0.498764
O5    O     O_R   0.068250 0.829200 0.092940 -0.514886
O6    O     O_R   0.799650 0.057040 0.080330 -0.510313
O7    O     O_R   0.586130 0.079760 0.077080 -0.512520
O8    O     O_R   0.627700 0.809630 0.066580 -0.497680
O9    O     O_R   0.816140 0.597180 0.075920 -0.512419
O10   O     O_R   0.045360 0.639170 0.081440 -0.494468
O11   O     O_3   0.833980 0.833750 0.001700 -0.249704
O12   O     O_R   0.524640 0.695370 0.425100 -0.489487
O13   O     O_R   0.261360 0.738990 0.584270 -0.521176
O14   O     O_R   0.532590 0.694780 0.574370 -0.507098
O15   O     O_R   0.744470 0.503750 0.577000 -0.527092
O16   O     O_R   0.698520 0.277230 0.571620 -0.510247
O17   O     O_R   0.498530 0.256920 0.419280 -0.512448
O18   O     O_R   0.272880 0.527780 0.428680 -0.508443
O19   O     O_R   0.252780 0.739630 0.423250 -0.508811
O20   O     O_R   0.735890 0.504390 0.415980 -0.512110
O21   O     O_R   0.690560 0.277820 0.422350 -0.503053
O22   O     O_3   0.499990 0.499990 0.499980 -0.255137
O23   O     O_R   0.089190 0.825870 0.932320 -0.517922
O24   O     O_R   0.819070 0.053960 0.931440 -0.501398
O25   O     O_R   0.607070 0.076440 0.916460 -0.504858
O26   O     O_R   0.647110 0.806550 0.917690 -0.507420

loop_
_geom_bond_atom_site_label_1
_geom_bond_atom_site_label_2
_ccdc_geom_bond_type
C28   O18   A    
C12   H22   S    
Cr5   O26   S    
Cr1   O1    S    
C18   C21   D    
Cr6   O10   S    
C19   C20   D    
Cr2   O19   S    
C10   H5    S    
C29   O10   A    
C13   H13   S    
C18   H18   S    
C12   C23   S    
Cr1   O17   S    
C4    O14   A    
C35   C37   S    
C3    C7    D    
C8    C11   D    
C5    C6    D    
Cr3   O20   S    
C25   O23   A    
C2    C41   S    
C31   O17   A    
C34   C37   S    
C37   H21   S    
C22   O25   A    
Cr6   O3    S    
C20   H14   S    
Cr4   O24   S    
C41   H27   S    
C2    C39   D    
C35   H23   S    
C33   H15   S    
C23   C24   S    
Cr6   O9    S    
C9    C10   D    
C11   H6    S    
C32   H1    S    
C5    H2    S    
C8    H8    S    
C33   H19   S    
C4    C34   S    
C14   H11   S    
C38   H25   S    
C18   C28   S    
C29   O5    A    
Cr4   O23   S    
Cr1   O18   S    
C3    H4    S    
C6    H30   S    
Cr5   O25   S    
C30   O20   A    
Cr2   O12   S    
C22   O24   A    
C40   H29   S    
C16   O1    A    
Cr4   O6    S    
C24   O2    A    
Cr2   O22   S    
C35   H20   S    
C19   H17   S    
C26   O7    A    
C22   C40   S    
C33   C34   S    
C31   O21   A    
C14   C26   S    
C27   O8    A    
Cr4   O11   S    
C32   H3    S    
C7    H31   S    
C5    C25   S    
C40   C41   D    
C12   H24   S    
C1    O13   A    
C23   C35   S    
C25   O3    A    
Cr6   O11   S    
C4    O15   A    
Cr4   O5    S    
C19   C29   S    
Cr1   O22   S    
C9    C27   S    
Cr5   O8    S    
C28   O19   A    
C15   C17   S    
C37   H26   S    
C16   O16   A    
C24   O26   A    
C34   C38   S    
C13   C31   S    
C36   C39   S    
Cr1   O4    S    
C30   O12   A    
C36   N1    T    
Cr3   O22   S    
C6    C7    S    
Cr5   O11   S    
C1    O4    A    
Cr2   O13   S    
C13   C17   D    
C8    C30   S    
C32   C33   S    
Cr3   O16   S    
C23   C32   S    
Cr3   O21   S    
C26   O6    A    
Cr2   O14   S    
Cr6   O2    S    
C12   C38   S    
C27   O9    A    
C15   H9    S    
C21   H16   S    
Cr3   O15   S    
C10   C11   S    
C16   C39   S    
C38   H12   S    
C20   C21   S    
C14   C15   D    
C9    H7    S    
C1    C3    S    
C2    H28   S    
C17   H10   S    
Cr5   O7    S    
