data_mof_unit_54981.cif
_audit_creation_date              2012-12-10T21:13:16-0500
_audit_creation_method            fapswitch 2.2
_symmetry_space_group_name_H-M    P1
_symmetry_Int_Tables_number       1
_space_group_crystal_system       triclinic
_cell_length_a                    17.242629
_cell_length_b                    17.06965
_cell_length_c                    14.882225
_cell_angle_alpha                 90.573006
_cell_angle_beta                  91.234264
_cell_angle_gamma                 90.561092
_cell_volume                      4378.7657022

loop_
_atom_site_label
_atom_site_type_symbol
_atom_type_description
_atom_site_fract_x
_atom_site_fract_y
_atom_site_fract_z
_atom_type_partial_charge
C1    C     C_R   0.352175 0.499586 0.505176 0.930148
C2    C     C_R   0.230377 0.426117 0.549793 -0.099580
C3    C     C_R   0.226199 0.569760 0.535713 -0.102271
C4    C     C_R   0.776089 0.430511 0.503530 -0.132288
C5    C     C_R   0.734214 0.501807 0.508591 -0.213853
C6    C     C_R   0.267545 0.498163 0.525858 -0.213586
C7    C     C_R   0.884265 0.493854 0.584321 -0.018961
C8    C     C_R   0.116895 0.497919 0.596359 -0.024564
C9    C     C_1   0.965715 0.493894 0.604413 0.067757
C10   C     C_1   0.034844 0.495515 0.607987 0.100048
C11   C     C_R   0.541291 0.832749 0.439370 0.205941
C12   C     C_R   0.648015 0.500543 0.498394 0.951833
C13   C     C_R   0.475689 0.170679 0.577971 0.251974
C14   C     C_R   0.460217 0.831589 0.566664 0.219374
C15   C     C_R   0.524830 0.165257 0.429629 0.251782
C16   C     C_R   0.522844 0.751970 0.427239 0.337300
C17   C     C_R   0.497505 0.251448 0.579940 0.304532
C18   C     C_R   0.478600 0.750778 0.575201 0.313341
C19   C     C_R   0.507398 0.246469 0.422625 0.234032
C20   C     C_R   0.500640 0.876440 0.503681 -0.283644
C21   C     C_R   0.499724 0.123900 0.505156 -0.235446
C22   C     C_1   0.500431 0.963951 0.505572 0.266019
C23   C     C_R   0.358117 0.560128 0.036735 0.438966
C24   C     C_1   0.499695 0.036338 0.506762 0.263599
C25   C     C_R   0.493953 0.500214 0.326684 1.006028
C26   C     C_R   0.505647 0.500942 0.673350 0.983350
C27   C     C_R   0.575387 0.525231 0.819027 0.417677
C28   C     C_R   0.421088 0.521749 0.182709 0.393778
C29   C     C_R   0.505647 0.506246 0.770466 -0.195458
C30   C     C_R   0.491877 0.504574 0.229604 -0.186825
C31   C     C_R   0.432752 0.511619 0.811036 -0.066130
C32   C     C_R   0.563954 0.510916 0.187145 -0.068775
C33   C     C_R   0.429397 0.529040 0.902818 0.027817
C34   C     C_R   0.635566 0.570080 0.964791 0.442764
C35   C     C_R   0.565763 0.531258 0.096756 0.023166
C36   C     C_R   0.498729 0.538440 0.953168 0.005875
C37   C     C_R   0.496038 0.537418 0.047240 0.009616
C38   C     C_R   0.570770 0.546088 0.910722 -0.113808
C39   C     C_R   0.424090 0.540916 0.090451 -0.110522
C40   C     C_R   0.358806 0.541605 0.945670 -0.170031
C41   C     C_R   0.635267 0.552633 0.055722 -0.148879
C42   C     C_2   0.360254 0.498270 0.757384 0.872966
C43   C     C_2   0.638051 0.495696 0.236160 0.915297
C44   C     C_2   0.886219 0.637628 0.619193 1.005051
C45   C     C_R   0.846476 0.566393 0.581472 -0.076910
C46   C     C_2   0.117223 0.352668 0.615211 0.976579
C47   C     C_2   0.107444 0.643613 0.581503 0.951502
C48   C     C_2   0.896297 0.353040 0.538475 0.988538
C49   C     C_2   0.739310 0.650311 0.523921 1.033961
C50   C     C_2   0.268213 0.348940 0.538716 1.025664
C51   C     C_2   0.261056 0.646706 0.513062 1.026376
C52   C     C_2   0.743414 0.360957 0.453918 1.037888
C53   C     C_R   0.155948 0.426775 0.587013 -0.101973
C54   C     C_R   0.151240 0.569224 0.571538 -0.102079
C55   C     C_R   0.850731 0.426471 0.543530 -0.088689
C56   C     C_R   0.773092 0.571523 0.538978 -0.090886
H1    H     H_    0.305049 0.546690 0.907682 0.222570
H2    H     H_    0.058794 0.295981 0.711362 0.394260
H3    H     H_    0.070485 0.743809 0.524854 0.374886
H4    H     H_    0.941437 0.268399 0.460529 0.386975
H5    H     H_    0.707824 0.754305 0.576465 0.362841
H6    H     H_    0.300712 0.263094 0.454195 0.367604
H7    H     H_    0.300494 0.718407 0.417283 0.365385
H8    H     H_    0.723816 0.244194 0.450593 0.378136
H9    H     H_    0.716486 0.828413 0.306268 0.405689
H10   H     H_    0.368174 0.172303 0.786633 0.412282
H11   H     H_    0.306798 0.836064 0.732953 0.406942
H12   H     H_    0.687396 0.564266 0.095750 0.205264
H13   H     H_    0.644450 0.147707 0.229296 0.417323
H14   H     H_    0.439251 0.831672 0.274543 0.367556
H15   H     H_    0.480887 0.317932 0.751851 0.388971
H16   H     H_    0.576888 0.831433 0.718518 0.368323
H17   H     H_    0.583012 0.325856 0.293842 0.392618
H18   H     H_    0.715607 0.425991 0.678843 0.401993
H19   H     H_    0.278706 0.439009 0.337918 0.406228
H20   H     H_    0.257629 0.541358 0.715669 0.353251
H21   H     H_    0.718557 0.534443 0.326019 0.359420
H22   H     H_    0.241583 0.733008 0.993805 0.406577
H23   H     H_    0.749388 0.748580 0.001401 0.408128
H24   H     H_    0.925088 0.747684 0.598656 0.376214
N1    N     N_R   0.500000 0.707230 0.500000 -0.227819
N2    N     N_R   0.500000 0.292770 0.500000 -0.213865
O1    O     O_R   0.389110 0.566570 0.500000 -0.603113
O2    O     O_2   0.721447 0.473424 0.841742 -0.233764
O3    O     O_3   0.661746 0.444276 0.686172 -0.524409
O4    O     O_2   0.295153 0.583857 0.261046 -0.150477
O5    O     O_2   0.274706 0.466562 0.166894 -0.240441
O6    O     O_3   0.333445 0.451969 0.324985 -0.528535
O7    O     O_2   0.346098 0.433481 0.725208 -0.593541
O8    O     O_R   0.308151 0.559582 0.745082 -0.728184
O9    O     O_2   0.678532 0.441187 0.212399 -0.522806
O10   O     O_R   0.664097 0.546989 0.304062 -0.738887
O11   O     O_2   0.218053 0.603939 0.096159 -0.179488
O12   O     O_R   0.610890 0.433430 0.500000 -0.584300
O13   O     O_2   0.330314 0.688617 0.137117 -0.190962
O14   O     O_3   0.276728 0.691131 0.973538 -0.496254
O15   O     O_2   0.776708 0.614179 0.907334 -0.170042
O16   O     O_2   0.664885 0.692918 0.858021 -0.178520
O17   O     O_3   0.714251 0.706851 0.022896 -0.506508
O18   O     O_2   0.909941 0.638174 0.697230 -0.485229
O19   O     O_R   0.897258 0.703242 0.565268 -0.772056
O20   O     O_2   0.114798 0.295509 0.564968 -0.564483
O21   O     O_R   0.082757 0.349211 0.699284 -0.718333
O22   O     O_2   0.076762 0.659170 0.652715 -0.545707
O23   O     O_R   0.610890 0.566570 0.500000 -0.583932
O24   O     O_R   0.101456 0.695469 0.509598 -0.743790
O25   O     O_2   0.922850 0.324230 0.607278 -0.552697
O26   O     O_R   0.909401 0.317680 0.455101 -0.745101
O27   O     O_2   0.719603 0.669510 0.447946 -0.529611
O28   O     O_R   0.731515 0.702829 0.595760 -0.704609
O29   O     O_2   0.290760 0.312989 0.604794 -0.533047
O30   O     O_R   0.275303 0.316410 0.452891 -0.722852
O31   O     O_2   0.274037 0.695331 0.572457 -0.546562
O32   O     O_R   0.277659 0.663868 0.423989 -0.679280
O33   O     O_2   0.712284 0.369348 0.380202 -0.600963
O34   O     O_R   0.389110 0.433430 0.500000 -0.583271
O35   O     O_R   0.748825 0.286089 0.490726 -0.719729
O36   O     O_2   0.590788 0.923976 0.306319 -0.158360
O37   O     O_2   0.669898 0.920802 0.445503 -0.243482
O38   O     O_3   0.673787 0.801156 0.337060 -0.434870
O39   O     O_2   0.363078 0.077615 0.636840 -0.206830
O40   O     O_2   0.485202 0.081599 0.724591 -0.180520
O41   O     O_3   0.392376 0.200260 0.736248 -0.509773
O42   O     O_2   0.431948 0.930424 0.702516 -0.176584
O43   O     O_2   0.334153 0.919642 0.580924 -0.237096
O44   O     O_3   0.343633 0.806510 0.695708 -0.411255
O45   O     O_R   0.499980 0.566550 0.367850 -0.538128
O46   O     O_2   0.640218 0.069460 0.389082 -0.220165
O47   O     O_2   0.523082 0.063712 0.292136 -0.190387
O48   O     O_3   0.619324 0.180631 0.275239 -0.492901
O49   O     O_2   0.562461 0.678962 0.274213 -0.171987
O50   O     O_2   0.423469 0.681062 0.310058 -0.264490
O51   O     O_3   0.486732 0.806751 0.251737 -0.425200
O52   O     O_2   0.597784 0.197206 0.705530 -0.181780
O53   O     O_2   0.635987 0.309886 0.619649 -0.228310
O54   O     O_3   0.537134 0.329000 0.748463 -0.460383
O55   O     O_2   0.449453 0.680492 0.732068 -0.185912
O56   O     O_R   0.500020 0.433450 0.632150 -0.558365
O57   O     O_2   0.584561 0.680179 0.680723 -0.250398
O58   O     O_3   0.530986 0.807407 0.746688 -0.418658
O59   O     O_2   0.443946 0.203217 0.262181 -0.164028
O60   O     O_2   0.399520 0.322969 0.329110 -0.191117
O61   O     O_3   0.535612 0.322896 0.255264 -0.462389
O62   O     O_R   0.500020 0.566550 0.632150 -0.571842
O63   O     O_R   0.499980 0.433450 0.367850 -0.568816
O64   O     O_2   0.702766 0.582049 0.737108 -0.196850
S1    S     S_3+6 0.667978 0.507618 0.771602 0.101019
S2    S     S_3+6 0.568890 0.271865 0.664565 0.164013
S3    S     S_3+6 0.511093 0.726257 0.685086 0.139823
S4    S     S_3+6 0.469693 0.274242 0.315743 0.156786
S5    S     S_3+6 0.328886 0.506926 0.233403 0.116722
S6    S     S_3+6 0.294068 0.636700 0.065333 0.141433
S7    S     S_3+6 0.699691 0.646578 0.933858 0.144246
S8    S     S_3+6 0.620088 0.873121 0.380977 0.135298
S9    S     S_3+6 0.428544 0.129331 0.670698 0.129324
S10   S     S_3+6 0.391382 0.875101 0.637722 0.145132
S11   S     S_3+6 0.577500 0.116800 0.344958 0.119965
S12   S     S_3+6 0.498637 0.726132 0.314396 0.139797
Zn1   Zn    Zn3+2 0.500000 0.588860 0.500000 1.132880
Zn2   Zn    Zn3+2 0.500000 0.411140 0.500000 1.112789

loop_
_geom_bond_atom_site_label_1
_geom_bond_atom_site_label_2
_ccdc_geom_bond_type
C48   C55   S    
C23   S6    S    
H21   O10   S    
N1    Zn1   S    
C31   C42   S    
C27   C29   A    
O40   S9    D    
C14   C18   A    
C5    C56   A    
C7    C55   A    
C3    C6    A    
C12   O12   A    
C18   N1    A    
O47   S11   D    
O41   S9    S    
C15   C19   A    
C46   O20   D    
C51   O31   D    
C4    C52   S    
O48   S11   S    
C7    C45   A    
H23   O17   S    
C36   C37   A    
C35   C37   A    
C15   S11   S    
C12   O23   A    
C3    C54   A    
C34   S7    S    
C48   O25   D    
C27   C38   A    
C23   C40   A    
O14   S6    S    
C33   C36   A    
C17   N2    A    
C13   S9    S    
O1    Zn1   S    
C2    C50   S    
C11   S8    S    
H7    O32   S    
C32   C43   S    
O61   S4    S    
C45   C56   A    
H22   O14   S    
H13   O48   S    
O59   S4    D    
H14   O51   S    
C31   C33   A    
C40   H1    S    
C1    O34   A    
O15   S7    D    
C18   S3    S    
C9    C10   T    
H4    O26   S    
O43   S10   D    
C52   O35   S    
O16   S7    D    
O5    S5    D    
O55   S3    D    
C2    C6    A    
C34   C41   A    
C26   O62   A    
H5    O28   S    
C50   O30   S    
O46   S11   D    
C41   H12   S    
C37   C39   A    
C11   C20   A    
C51   O32   S    
C16   S12   S    
C1    C6    S    
C33   C40   A    
C32   C35   A    
C14   C20   A    
C17   S2    S    
C5    C12   S    
H11   O44   S    
C8    C54   A    
H15   O54   S    
O63   Zn2   S    
C3    C51   S    
C28   C39   A    
O57   S3    D    
O50   S12   D    
H8    O35   S    
C42   O8    S    
O49   S12   D    
N2    Zn2   S    
C11   C16   A    
C19   S4    S    
H16   O58   S    
C47   O24   S    
O38   S8    S    
C13   C21   A    
C50   O29   D    
O62   Zn1   S    
O54   S2    S    
C35   C41   A    
C26   C29   S    
C47   C54   S    
C27   S1    S    
C20   C22   S    
O37   S8    D    
O42   S10   D    
C4    C55   A    
C48   O26   S    
O6    S5    S    
C22   C24   T    
C1    O1    A    
C19   N2    A    
O45   Zn1   S    
C44   C45   S    
C49   O27   D    
O64   S1    D    
H17   O61   S    
C52   O33   D    
C25   C30   S    
C7    C9    S    
O12   Zn2   S    
C47   O22   D    
O39   S9    D    
C14   S10   S    
C34   C38   A    
O3    S1    S    
C4    C5    A    
C26   O56   A    
C2    C53   A    
C8    C53   A    
C44   O19   S    
O34   Zn2   S    
H2    O21   S    
O2    S1    D    
C49   C56   S    
O52   S2    D    
C46   O21   S    
C43   O10   S    
C13   C17   A    
H24   O19   S    
C42   O7    D    
O60   S4    D    
C28   C30   A    
C25   O45   A    
C29   C31   A    
O4    S5    D    
C30   C32   A    
C44   O18   D    
H3    O24   S    
O23   Zn1   S    
C23   C39   A    
O17   S7    S    
C46   C53   S    
C36   C38   A    
C16   N1    A    
H9    O38   S    
O36   S8    D    
H18   O3    S    
O51   S12   S    
C43   O9    D    
O56   Zn2   S    
H19   O6    S    
C15   C21   A    
H6    O30   S    
C28   S5    S    
C8    C10   S    
O53   S2    D    
C21   C24   S    
H10   O41   S    
O11   S6    D    
C25   O63   A    
O13   S6    D    
O58   S3    S    
H20   O8    S    
C49   O28   S    
O44   S10   S    
