data_mof_unit_18648.cif
_audit_creation_date              2012-12-10T20:46:50-0500
_audit_creation_method            fapswitch 2.2
_symmetry_space_group_name_H-M    P1
_symmetry_Int_Tables_number       1
_space_group_crystal_system       triclinic
_cell_length_a                    12.863123
_cell_length_b                    8.90617
_cell_length_c                    8.163813
_cell_angle_alpha                 89.989962
_cell_angle_beta                  96.890781
_cell_angle_gamma                 90.027964
_cell_volume                      928.500099784

loop_
_atom_site_label
_atom_site_type_symbol
_atom_type_description
_atom_site_fract_x
_atom_site_fract_y
_atom_site_fract_z
_atom_type_partial_charge
Br1   Br    Br    0.793488 0.701687 0.852330 -0.498706
Br2   Br    Br    0.182252 0.511608 0.079813 -0.479533
C1    C     C_R   0.500007 0.218269 0.500012 0.927628
C2    C     C_R   0.867754 0.602937 0.691985 0.186116
C3    C     C_R   0.136516 0.552616 0.586018 -0.252275
C4    C     C_R   0.864864 0.505926 0.413527 -0.273242
C5    C     C_R   0.028617 0.560887 0.573992 -0.079015
C6    C     C_R   0.970667 0.529667 0.422367 -0.083339
C7    C     C_1   0.500038 0.065292 0.500033 -0.180643
C8    C     C_1   0.500052 0.934690 0.500012 -0.170352
C9    C     C_3   0.972675 0.778722 0.176683 0.202082
C10   C     C_3   0.884248 0.840281 0.268882 -0.400645
C11   C     C_3   0.876402 0.011024 0.255061 -0.918131
C12   C     C_R   0.500034 0.781732 0.500002 0.929107
C13   C     C_3   0.049614 0.847606 0.765038 0.029170
C14   C     C_3   0.146366 0.916073 0.864790 -0.319767
C15   C     C_3   0.166058 0.075972 0.808266 -0.895454
C16   C     C_R   0.297345 0.503413 0.467259 0.925167
C17   C     C_R   0.702145 0.508570 0.532070 0.940661
C18   C     C_R   0.813726 0.533157 0.551157 -0.219404
C19   C     C_R   0.184945 0.521503 0.445015 -0.230554
C20   C     C_R   0.017613 0.545798 0.279068 0.490271
C21   C     C_R   0.977036 0.617324 0.702664 0.518536
C22   C     C_R   0.125318 0.525589 0.287165 0.172481
H1    H     H_    0.822538 0.470589 0.296872 0.228008
H2    H     H_    0.980254 0.919418 0.777340 0.165953
H3    H     H_    0.063424 0.848422 0.632569 0.127245
H4    H     H_    0.136094 0.918088 0.997833 0.223940
H5    H     H_    0.215890 0.845696 0.849426 0.242392
H6    H     H_    0.179234 0.076711 0.676233 0.255402
H7    H     H_    0.236720 0.122301 0.882734 0.283251
H8    H     H_    0.098159 0.149051 0.825059 0.278623
H9    H     H_    0.182147 0.569877 0.704911 0.245478
H10   H     H_    0.966344 0.836014 0.056316 0.222010
H11   H     H_    0.050387 0.812835 0.241960 0.081008
H12   H     H_    0.808177 0.789878 0.217922 0.279953
H13   H     H_    0.899607 0.812075 0.401773 0.202491
H14   H     H_    0.951671 0.063854 0.305999 0.258326
H15   H     H_    0.813710 0.052068 0.326157 0.272391
H16   H     H_    0.856865 0.045148 0.124095 0.282496
N1    N     N_1   0.500020 0.500000 0.073640 -0.005266
N2    N     N_1   0.499980 0.500000 0.926360 -0.004307
O1    O     O_R   0.499990 0.285340 0.636850 -0.615003
O2    O     O_3   0.031697 0.701740 0.826419 -0.583701
O3    O     O_R   0.500010 0.714660 0.363150 -0.617085
O4    O     O_R   0.500010 0.285340 0.363150 -0.614722
O5    O     O_R   0.499990 0.714660 0.636850 -0.604281
O6    O     O_R   0.346350 0.500000 0.614250 -0.628327
O7    O     O_R   0.653650 0.500000 0.385750 -0.634404
O8    O     O_R   0.346360 0.500000 0.340500 -0.576806
O9    O     O_R   0.653640 0.500000 0.659500 -0.574851
O10   O     O_3   0.963749 0.620735 0.146821 -0.565395
Zn1   Zn    Zn3+2 0.499990 0.500000 0.682780 1.030963
Zn2   Zn    Zn3+2 0.500010 0.500000 0.317220 1.024059

loop_
_geom_bond_atom_site_label_1
_geom_bond_atom_site_label_2
_ccdc_geom_bond_type
C14   H4    S    
C6    C20   A    
C9    C10   S    
C12   O5    A    
C1    C7    S    
O6    Zn1   S    
C10   H12   S    
C16   C19   S    
C4    C18   A    
N1    N2    T    
C17   O7    A    
C1    O4    A    
C13   H3    S    
C17   C18   S    
O5    Zn1   S    
Br1   C2    S    
O4    Zn2   S    
C9    H11   S    
C5    C6    A    
C15   H6    S    
C1    O1    A    
C11   H14   S    
O8    Zn2   S    
C5    C21   A    
O3    Zn2   S    
C2    C21   A    
C12   O3    A    
C3    H9    S    
N2    Zn1   S    
Br2   C22   S    
C13   O2    S    
C15   H7    S    
C20   C22   A    
N1    Zn2   S    
C11   H15   S    
C4    H1    S    
C13   C14   S    
C2    C18   A    
C17   O9    A    
C3    C19   A    
C10   C11   S    
C16   O8    A    
C20   O10   S    
C7    C8    T    
C19   C22   A    
C10   H13   S    
C3    C5    A    
C15   H8    S    
C13   H2    S    
C11   H16   S    
C4    C6    A    
C9    O10   S    
C14   H5    S    
O1    Zn1   S    
C9    H10   S    
C21   O2    S    
O7    Zn2   S    
C8    C12   S    
C14   C15   S    
O9    Zn1   S    
C16   O6    A    
