data_mof_unit_61955.cif
_audit_creation_date              2012-12-10T18:19:15-0500
_audit_creation_method            fapswitch 2.2
_symmetry_space_group_name_H-M    P1
_symmetry_Int_Tables_number       1
_space_group_crystal_system       triclinic
_cell_length_a                    18.640766
_cell_length_b                    18.555243
_cell_length_c                    18.683553
_cell_angle_alpha                 109.55244
_cell_angle_beta                  109.810076
_cell_angle_gamma                 109.289034
_cell_volume                      4959.97676419

loop_
_atom_site_label
_atom_site_type_symbol
_atom_type_description
_atom_site_fract_x
_atom_site_fract_y
_atom_site_fract_z
_atom_type_partial_charge
C1    C     C_R   0.623259 0.501832 0.621280 0.832160
C2    C     C_3   0.848231 0.804293 0.584583 -0.415047
C3    C     C_3   0.268685 0.172908 0.512305 -0.453994
C4    C     C_3   0.739282 0.836546 0.503002 -0.469095
C5    C     C_3   0.763319 0.598167 0.763579 -0.400404
C6    C     C_3   0.235989 0.401902 0.237325 -0.401122
C7    C     C_3   0.832490 0.597904 0.837198 -0.401886
C8    C     C_3   0.166761 0.401992 0.163596 -0.400432
C9    C     C_3   0.648318 0.452684 0.729041 -0.421086
C10   C     C_3   0.351433 0.545890 0.269701 -0.421891
C11   C     C_3   0.735781 0.454802 0.651137 -0.375055
C12   C     C_R   0.376862 0.498299 0.378720 0.829825
C13   C     C_3   0.265462 0.546791 0.349128 -0.374505
C14   C     C_3   0.691395 0.501868 0.689599 0.187573
C15   C     C_3   0.308721 0.498246 0.310392 0.188841
C16   C     C_R   0.379414 0.378565 0.500693 0.852595
C17   C     C_R   0.619694 0.621448 0.498565 0.857099
C18   C     C_3   0.810473 0.501556 0.811991 0.187041
C19   C     C_3   0.189543 0.498357 0.187900 0.188477
C20   C     C_3   0.718184 0.450392 0.799858 -0.374182
C21   C     C_3   0.281537 0.548127 0.198849 -0.374287
C22   C     C_3   0.807733 0.456770 0.724145 -0.421068
C23   C     C_3   0.341105 0.245537 0.514885 -0.423275
C24   C     C_3   0.193408 0.544670 0.276077 -0.421810
C25   C     C_3   0.997776 0.309659 0.809267 0.189846
C26   C     C_3   0.003677 0.690433 0.192014 0.191669
C27   C     C_R   0.001424 0.122844 0.621477 0.834284
C28   C     C_R   0.000953 0.879613 0.378466 0.835897
C29   C     C_R   0.121352 0.119108 0.497763 0.836773
C30   C     C_R   0.878554 0.879106 0.500511 0.881078
C31   C     C_R   0.003109 0.621570 0.124006 0.830568
C32   C     C_R   0.998375 0.378276 0.877514 0.830960
C33   C     C_R   0.878559 0.501443 0.880227 0.832795
C34   C     C_3   0.663987 0.761752 0.495884 -0.419289
C35   C     C_R   0.121436 0.498439 0.119654 0.828783
C36   C     C_3   0.919707 0.146292 0.697600 -0.425599
C37   C     C_3   0.096087 0.845129 0.324656 -0.408902
C38   C     C_3   0.085405 0.237066 0.780345 -0.378084
C39   C     C_3   0.938124 0.788972 0.216402 -0.377977
C40   C     C_3   0.988735 0.329006 0.733177 -0.406458
C41   C     C_3   0.974737 0.655949 0.248277 -0.398626
C42   C     C_3   0.085638 0.310532 0.849842 -0.424966
C43   C     C_3   0.938746 0.716534 0.146601 -0.420644
C44   C     C_3   0.919962 0.216156 0.771049 -0.368831
C45   C     C_3   0.311260 0.310538 0.500875 0.113945
C46   C     C_3   0.097222 0.773481 0.254177 -0.385468
C47   C     C_3   0.000596 0.190489 0.689565 0.189733
C48   C     C_3   0.001765 0.811887 0.310403 0.180228
C49   C     C_3   0.994410 0.260880 0.664449 -0.406448
C50   C     C_3   0.972552 0.727394 0.317199 -0.411182
C51   C     C_3   0.294924 0.353311 0.576609 -0.388614
C52   C     C_3   0.697128 0.647102 0.417362 -0.459462
C53   C     C_3   0.218958 0.283035 0.575302 0.431895
C54   C     C_3   0.762171 0.718581 0.410574 0.436006
C55   C     C_3   0.224738 0.260038 0.411790 -0.418458
C56   C     C_3   0.687696 0.689514 0.498503 0.136119
C57   C     C_3   0.776350 0.732036 0.582872 -0.428186
C58   C     C_3   0.268515 0.361520 0.736092 -0.850571
C59   C     C_3   0.732657 0.725585 0.269485 -0.802430
C60   C     C_3   0.144835 0.378271 0.574386 -0.858939
C61   C     C_3   0.891117 0.689254 0.456166 -0.891161
C62   C     C_3   0.189711 0.189681 0.499968 0.072129
C63   C     C_3   0.809746 0.809942 0.499109 0.143587
C64   C     C_3   0.153406 0.186742 0.409792 -0.397129
H1    H     H_    0.041834 0.396339 0.758019 0.182262
H2    H     H_    0.769738 0.898640 0.565933 0.162619
H3    H     H_    0.235254 0.230257 0.356449 0.179155
H4    H     H_    0.771169 0.761309 0.642281 0.178626
H5    H     H_    0.132185 0.121336 0.355775 0.161130
H6    H     H_    0.874462 0.868718 0.643153 0.164719
H7    H     H_    0.733889 0.634414 0.792074 0.182032
H8    H     H_    0.264618 0.364621 0.208713 0.181744
H9    H     H_    0.795527 0.634141 0.736191 0.148219
H10   H     H_    0.204017 0.367053 0.265603 0.147840
H11   H     H_    0.898667 0.636980 0.847522 0.181417
H12   H     H_    0.907953 0.596115 0.206093 0.183737
H13   H     H_    0.100751 0.363858 0.154090 0.181814
H14   H     H_    0.833799 0.630700 0.899985 0.148185
H15   H     H_    0.164679 0.368112 0.100594 0.146996
H16   H     H_    0.053378 0.295334 0.661279 0.160678
H17   H     H_    0.904429 0.702355 0.305342 0.179947
H18   H     H_    0.617763 0.486380 0.758714 0.171482
H19   H     H_    0.381116 0.511097 0.239762 0.171855
H20   H     H_    0.719387 0.480359 0.863095 0.161177
H21   H     H_    0.279497 0.517078 0.135312 0.160993
H22   H     H_    0.686031 0.384792 0.599183 0.178869
H23   H     H_    0.354964 0.214688 0.462721 0.192007
H24   H     H_    0.315837 0.616851 0.400421 0.178252
H25   H     H_    0.765271 0.487966 0.620345 0.158857
H26   H     H_    0.236268 0.514780 0.380817 0.159463
H27   H     H_    0.872547 0.493437 0.730626 0.173412
H28   H     H_    0.128808 0.508987 0.270429 0.172389
H29   H     H_    0.794087 0.388133 0.706036 0.148438
H30   H     H_    0.207601 0.613344 0.293564 0.148484
H31   H     H_    0.595057 0.383974 0.676479 0.150141
H32   H     H_    0.405311 0.614581 0.321614 0.148838
H33   H     H_    0.699737 0.380330 0.779772 0.177035
H34   H     H_    0.653035 0.790223 0.551217 0.192875
H35   H     H_    0.300596 0.618206 0.218348 0.177517
H36   H     H_    0.926212 0.199319 0.823920 0.175089
H37   H     H_    0.119882 0.800763 0.216241 0.181606
H38   H     H_    0.921069 0.093451 0.712781 0.149493
H39   H     H_    0.118588 0.906627 0.320919 0.143777
H40   H     H_    0.935559 0.229657 0.598699 0.183382
H41   H     H_    0.016168 0.741600 0.384008 0.186156
H42   H     H_    0.857849 0.114731 0.634185 0.170294
H43   H     H_    0.143155 0.861238 0.391061 0.178315
H44   H     H_    0.856084 0.214910 0.744124 0.161922
H45   H     H_    0.403010 0.281349 0.579372 0.150340
H46   H     H_    0.145178 0.755526 0.286449 0.148758
H47   H     H_    0.924610 0.326330 0.701991 0.149288
H48   H     H_    0.021236 0.637150 0.281595 0.155718
H49   H     H_    0.144979 0.265454 0.775493 0.178332
H50   H     H_    0.869752 0.765548 0.204321 0.172238
H51   H     H_    0.088769 0.188487 0.801820 0.178797
H52   H     H_    0.958467 0.848879 0.209802 0.168815
H53   H     H_    0.095016 0.300533 0.907187 0.147309
H54   H     H_    0.958234 0.740957 0.105503 0.161339
H55   H     H_    0.142091 0.375534 0.874081 0.177670
H56   H     H_    0.601787 0.732184 0.433546 0.148067
H57   H     H_    0.871166 0.657943 0.102114 0.159318
H58   H     H_    0.282568 0.406393 0.572348 0.187017
H59   H     H_    0.719295 0.599320 0.422352 0.184114
H60   H     H_    0.357364 0.387347 0.640183 0.150719
H61   H     H_    0.631377 0.606302 0.356132 0.148869
H62   H     H_    0.202305 0.306459 0.402126 0.155539
H63   H     H_    0.794619 0.681183 0.585399 0.152496
H64   H     H_    0.094569 0.195099 0.393866 0.202177
H65   H     H_    0.905405 0.794264 0.597178 0.190883
H66   H     H_    0.301669 0.272761 0.677081 0.219626
H67   H     H_    0.296853 0.169024 0.572695 0.178646
H68   H     H_    0.294633 0.355484 0.795471 0.232384
H69   H     H_    0.207078 0.362830 0.726177 0.257017
H70   H     H_    0.318117 0.424542 0.748701 0.237858
H71   H     H_    0.646375 0.711355 0.319692 0.212494
H72   H     H_    0.701032 0.754595 0.235192 0.234510
H73   H     H_    0.708295 0.656626 0.220474 0.218126
H74   H     H_    0.804698 0.765556 0.299027 0.270323
H75   H     H_    0.092116 0.251981 0.558820 0.229226
H76   H     H_    0.083508 0.374174 0.572987 0.233585
H77   H     H_    0.149051 0.394237 0.523242 0.244269
H78   H     H_    0.711688 0.850718 0.449903 0.196215
H79   H     H_    0.201462 0.431984 0.640411 0.250209
H80   H     H_    0.787953 0.632418 0.331530 0.229855
H81   H     H_    0.914270 0.648416 0.422635 0.233503
H82   H     H_    0.867546 0.659682 0.491979 0.244384
H83   H     H_    0.948878 0.756647 0.501504 0.272025
H84   H     H_    0.245449 0.107754 0.456476 0.169299
N1    N     N_2   0.251376 0.286779 0.660731 -0.306780
N2    N     N_2   0.710415 0.726561 0.336857 -0.317074
N3    N     N_2   0.140802 0.293899 0.554507 -0.292541
N4    N     N_2   0.821724 0.689989 0.391355 -0.315735
O1    O     O_R   0.592570 0.552270 0.644860 -0.630464
O2    O     O_R   0.407350 0.552250 0.459650 -0.632885
O3    O     O_R   0.407370 0.459660 0.552260 -0.636953
O4    O     O_R   0.592630 0.540340 0.447740 -0.632803
O5    O     O_R   0.407450 0.355140 0.447760 -0.627467
O6    O     O_R   0.592550 0.644860 0.552240 -0.630660
O7    O     O_R   0.052270 0.092540 0.644860 -0.624775
O8    O     O_R   0.947730 0.907460 0.355140 -0.638912
O9    O     O_R   0.947710 0.092600 0.540380 -0.636391
O10   O     O_R   0.052290 0.907400 0.459620 -0.628532
O11   O     O_R   0.144880 0.092570 0.552230 -0.618874
O12   O     O_R   0.407430 0.447730 0.355140 -0.631317
O13   O     O_R   0.855120 0.907430 0.447770 -0.609925
O14   O     O_R   0.040310 0.092630 0.447750 -0.636070
O15   O     O_R   0.959690 0.907370 0.552250 -0.641291
O16   O     O_R   0.052260 0.644880 0.092510 -0.631046
O17   O     O_R   0.947740 0.355120 0.907490 -0.632594
O18   O     O_R   0.947720 0.540390 0.092600 -0.630833
O19   O     O_R   0.052280 0.459610 0.907400 -0.629519
O20   O     O_R   0.959660 0.552230 0.907350 -0.629481
O21   O     O_R   0.040340 0.447770 0.092650 -0.630592
O22   O     O_R   0.855120 0.447750 0.907440 -0.631628
O23   O     O_R   0.144880 0.552250 0.092560 -0.632377
O24   O     O_R   0.592650 0.447750 0.540350 -0.632083
Zn1   Zn    Zn3+2 0.499940 0.569790 0.569780 0.908262
Zn2   Zn    Zn3+2 0.500060 0.430210 0.430220 0.909958
Zn3   Zn    Zn3+2 0.069820 0.999960 0.569760 0.916610
Zn4   Zn    Zn3+2 0.930180 0.000040 0.430240 0.917675
Zn5   Zn    Zn3+2 0.069800 0.569760 0.999940 0.910051
Zn6   Zn    Zn3+2 0.930200 0.430240 0.000060 0.909107

loop_
_geom_bond_atom_site_label_1
_geom_bond_atom_site_label_2
_ccdc_geom_bond_type
O15   Zn3   S    
C32   O17   A    
C1    O24   A    
C34   C56   S    
C23   C45   S    
C13   H26   S    
C29   O11   A    
C3    C23   S    
C61   H82   S    
O22   Zn6   S    
C49   H40   S    
C2    C57   S    
C28   O10   A    
C54   N2    S    
C58   H70   S    
C6    H8    S    
C4    C63   S    
C3    H67   S    
C19   C21   S    
O6    Zn1   S    
C30   O15   A    
C38   C42   S    
C10   C15   S    
C25   C40   S    
C4    H78   S    
C21   H35   S    
C52   H59   S    
C42   H55   S    
C59   N2    S    
C54   C63   S    
C59   H73   S    
C11   H22   S    
C27   O7    A    
C40   C49   S    
C59   H72   S    
C28   O8    A    
C2    H65   S    
C56   C57   S    
C36   C47   S    
C36   H38   S    
H75   N3    S    
C61   H81   S    
O8    Zn4   S    
C62   C64   S    
C34   H34   S    
C6    C15   S    
O4    Zn2   S    
O20   Zn5   S    
C20   H33   S    
C58   H68   S    
C64   H64   S    
C41   H48   S    
C50   H41   S    
C22   H27   S    
C12   C15   S    
C43   H57   S    
C58   N1    S    
C9    H18   S    
O23   Zn5   S    
C39   H50   S    
C25   C32   S    
O24   Zn2   S    
H80   N4    S    
C26   C31   S    
C58   H69   S    
C23   H23   S    
C30   C63   S    
O18   Zn6   S    
C53   N1    S    
C51   H60   S    
C16   O3    A    
C24   H28   S    
C25   C44   S    
C18   C33   S    
C52   C54   S    
C26   C43   S    
C6    H10   S    
C40   H47   S    
O1    Zn1   S    
C44   H44   S    
C10   C21   S    
C34   H56   S    
C23   H45   S    
C46   H37   S    
C21   H21   S    
C8    C19   S    
C36   H42   S    
C35   O21   A    
C47   C49   S    
C12   O2    A    
C5    C7    S    
C38   H49   S    
C6    C8    S    
C59   H74   S    
C26   C41   S    
C10   H19   S    
C13   C24   S    
C37   C48   S    
C60   N3    S    
C29   O14   A    
C16   C45   S    
C9    C14   S    
C17   O6    A    
C24   H30   S    
C60   H77   S    
C12   O12   A    
C53   C62   S    
C11   H25   S    
C9    C20   S    
C55   H3    S    
C55   H62   S    
C10   H32   S    
C7    C18   S    
C55   C64   S    
H66   N1    S    
C38   C47   S    
C5    C14   S    
C7    H11   S    
C64   H5    S    
O9    Zn4   S    
C1    O1    A    
C33   O22   A    
C17   C56   S    
C45   C55   S    
O10   Zn3   S    
C60   H76   S    
C7    H14   S    
C32   O19   A    
O21   Zn6   S    
O16   Zn5   S    
C40   H1    S    
C20   H20   S    
O11   Zn3   S    
C8    H13   S    
C22   H29   S    
C36   C44   S    
O14   Zn4   S    
C57   H4    S    
C41   C50   S    
O12   Zn2   S    
C2    C63   S    
C37   H39   S    
C3    C62   S    
C27   C47   S    
C51   H58   S    
C9    H31   S    
C29   C62   S    
C28   C48   S    
C16   O5    A    
C18   C22   S    
O19   Zn5   S    
C30   O13   A    
O7    Zn3   S    
C25   C42   S    
C57   H63   S    
C54   N4    S    
C52   H61   S    
C42   H53   S    
C37   H43   S    
C31   O18   A    
H71   N2    S    
C11   C22   S    
C49   H16   S    
C35   O23   A    
C13   C15   S    
C19   C24   S    
C61   H83   S    
C33   O20   A    
C60   H79   S    
C8    H15   S    
C19   C35   S    
C27   O9    A    
C41   H12   S    
C4    H2    S    
C38   H51   S    
C44   H36   S    
C13   H24   S    
C48   C50   S    
C11   C14   S    
C18   C20   S    
O5    Zn2   S    
C4    C34   S    
C5    H9    S    
C61   N4    S    
O17   Zn6   S    
C26   C46   S    
C43   H54   S    
C52   C56   S    
C3    H84   S    
C31   O16   A    
C39   C43   S    
C5    H7    S    
C39   H52   S    
O2    Zn1   S    
C53   N3    S    
O13   Zn4   S    
C45   C51   S    
C46   H46   S    
C1    C14   S    
C51   C53   S    
C37   C46   S    
C2    H6    S    
C17   O4    A    
O3    Zn1   S    
C50   H17   S    
C39   C48   S    
