data_mof_unit_32414.cif
_audit_creation_date              2013-03-05T15:42:15-0500
_audit_creation_method            fapswitch 2.2
_symmetry_space_group_name_H-M    P1
_symmetry_Int_Tables_number       1
_space_group_crystal_system       triclinic
_cell_length_a                    11.442303
_cell_length_b                    11.67072
_cell_length_c                    19.54278
_cell_angle_alpha                 90.308968
_cell_angle_beta                  89.86685
_cell_angle_gamma                 59.715435
_cell_volume                      2253.52233512

loop_
_atom_site_label
_atom_site_type_symbol
_atom_site_description
_atom_site_fract_x
_atom_site_fract_y
_atom_site_fract_z
_atom_type_partial_charge
O1    O     O_R   0.267740 0.231960 0.575440 -0.499379
O2    O     O_R   0.527280 0.186640 0.570530 -0.482203
C1    C     C_R   0.640927 0.116633 0.599314 0.558828
O3    O     O_R   0.728090 0.003450 0.576380 -0.493192
O4    O     O_R   0.682970 0.789190 0.570490 -0.488739
C2    C     C_R   0.613310 0.745290 0.598550 0.557668
O5    O     O_R   0.499290 0.771880 0.575530 -0.487895
O6    O     O_R   0.285330 0.030870 0.569730 -0.489416
C3    C     C_R   0.241250 0.145025 0.598121 0.542246
O7    O     O_R   0.270980 0.227080 0.423890 -0.513081
O8    O     O_R   0.530280 0.182120 0.430050 -0.483724
C4    C     C_R   0.621485 0.081036 0.394137 0.528902
O9    O     O_R   0.731330 0.998570 0.424830 -0.496349
O10   O     O_R   0.685970 0.784660 0.430010 -0.522293
C5    C     C_R   0.590161 0.784746 0.393762 0.510502
O11   O     O_R   0.502530 0.767000 0.423990 -0.480071
O12   O     O_R   0.288330 0.026350 0.429250 -0.525389
C6    C     C_R   0.234410 0.146939 0.404424 0.523474
Cr1   Cr    Cr6+3 0.404720 0.198220 0.499960 1.065352
Cr2   Cr    Cr6+3 0.698290 0.897110 0.500380 1.061378
Cr3   Cr    Cr6+3 0.396970 0.904720 0.499610 1.070063
O13   O     O_3   0.499990 0.000020 0.499980 -0.298736
C7    C     C_1   0.670072 0.646745 0.860151 0.015340
C8    C     C_1   0.655492 0.683489 0.728403 -0.026060
C9    C     C_1   0.663583 0.666732 0.799688 -0.023919
C10   C     C_1   0.642235 0.703499 0.667936 0.006720
C11   C     C_1   0.126646 0.199853 0.859309 0.014295
C12   C     C_1   0.171320 0.170488 0.727716 -0.025695
C13   C     C_1   0.150131 0.183063 0.798947 -0.024307
C14   C     C_1   0.195128 0.160709 0.667342 0.009424
C15   C     C_1   0.677268 0.192428 0.860800 0.017160
C16   C     C_1   0.658793 0.166637 0.729040 -0.025410
C17   C     C_1   0.664892 0.181467 0.800350 -0.023161
C18   C     C_1   0.653801 0.148483 0.668676 0.007261
H1    H     H_    0.838080 0.620002 0.341513 0.134350
C19   C     C_R   0.682472 0.579276 0.205257 0.015841
C20   C     C_R   0.546870 0.638240 0.232144 -0.018054
C21   C     C_R   0.513553 0.723927 0.288001 -0.030425
C22   C     C_R   0.755906 0.632912 0.308968 -0.149448
C23   C     C_R   0.786478 0.569056 0.246139 -0.158036
C24   C     C_R   0.440677 0.623945 0.201881 -0.125142
C25   C     C_R   0.306075 0.708082 0.217781 0.442686
C26   C     C_R   0.273081 0.794550 0.271375 0.490905
C27   C     C_R   0.374023 0.806826 0.304389 -0.121552
C28   C     C_R   0.620745 0.718965 0.327588 0.025082
H2    H     H_    0.457182 0.549442 0.164246 0.169912
H3    H     H_    0.890543 0.515239 0.228469 0.132745
H4    H     H_    0.340815 0.880300 0.343098 0.165229
H5    H     H_    0.088245 0.052521 0.338513 0.219872
C29   C     C_R   0.130574 0.202597 0.197338 0.008741
C30   C     C_R   0.173944 0.280450 0.232304 -0.052736
C31   C     C_R   0.152657 0.296247 0.303111 -0.084040
C32   C     C_R   0.111182 0.114841 0.307732 -0.114938
C33   C     C_R   0.093863 0.123120 0.236693 0.352543
C34   C     C_R   0.235202 0.345266 0.200270 0.393942
C35   C     C_R   0.253553 0.437796 0.237030 -0.037482
C36   C     C_R   0.201584 0.475287 0.303466 0.144235
C37   C     C_R   0.143940 0.408865 0.334777 -0.108089
C38   C     C_R   0.153914 0.192009 0.340562 -0.068226
H6    H     H_    0.307862 0.479440 0.213235 0.180982
H7    H     H_    0.104768 0.436863 0.386457 0.179223
H8    H     H_    0.510664 0.318567 0.335351 0.198820
C39   C     C_R   0.654398 0.171835 0.185125 0.066759
C40   C     C_R   0.712451 0.036818 0.203508 0.001905
C41   C     C_R   0.720125 0.003990 0.273816 -0.046737
C42   C     C_R   0.568753 0.238057 0.299940 -0.132015
C43   C     C_R   0.582233 0.269929 0.233761 -0.146083
C44   C     C_R   0.772892 0.933380 0.154086 0.442361
C45   C     C_R   0.865653 0.805002 0.174111 0.481903
C46   C     C_R   0.890651 0.776425 0.243029 -0.068106
C47   C     C_R   0.812960 0.871576 0.292444 -0.145236
C48   C     C_R   0.639186 0.106467 0.322011 0.015210
H9    H     H_    0.543839 0.371926 0.222333 0.112446
H10   H     H_    0.965385 0.677539 0.258332 0.156222
H11   H     H_    0.831658 0.838279 0.344428 0.199855
O14   O     O_R   0.821500 0.119340 0.952830 -0.469710
O15   O     O_R   0.037130 0.162530 0.957360 -0.500487
C49   C     C_R   0.081242 0.231889 0.928602 0.545118
O16   O     O_R   0.056440 0.344740 0.951340 -0.482819
O17   O     O_R   0.797900 0.560360 0.957470 -0.472667
C50   C     C_R   0.683381 0.605005 0.929537 0.567533
O18   O     O_R   0.596130 0.579390 0.952730 -0.495633
O19   O     O_R   0.639060 0.321160 0.958670 -0.492360
C51   C     C_R   0.707521 0.207252 0.930162 0.572776
O20   O     O_R   0.821240 0.124200 0.104370 -0.404409
O21   O     O_R   0.036890 0.167040 0.097840 -0.443520
C52   C     C_R   0.081205 0.236670 0.126421 0.585722
O22   O     O_R   0.056180 0.349610 0.102880 -0.447608
O23   O     O_R   0.797660 0.564870 0.097950 -0.422260
C53   C     C_R   0.709349 0.545105 0.132780 0.535743
O24   O     O_R   0.595880 0.584250 0.104270 -0.519869
O25   O     O_R   0.638830 0.325670 0.099150 -0.538942
C54   C     C_R   0.703357 0.208325 0.124236 0.606322
Cr4   Cr    Cr6+3 0.926180 0.151990 0.028120 1.158430
Cr5   Cr    Cr6+3 0.921330 0.451820 0.027470 1.164610
Cr6   Cr    Cr6+3 0.626260 0.446870 0.028710 1.073598
O26   O     O_3   0.824590 0.350230 0.028100 -0.337086
N1    N     N_R   0.218092 0.570887 0.341873 0.103940
O27   O     O_R   0.123006 0.651583 0.383753 -0.312798
O28   O     O_R   0.337562 0.557613 0.346852 -0.373309
F1    F     F_    0.743073 0.956593 0.086503 -0.577723
F2    F     F_    0.933490 0.708475 0.126567 -0.545747
F3    F     F_    0.206900 0.703174 0.182248 -0.570082
F4    F     F_    0.145058 0.853440 0.295977 -0.557734
F5    F     F_    0.288847 0.310631 0.136292 -0.595359
F6    F     F_    0.039632 0.055061 0.207212 -0.558689

loop_
_geom_bond_atom_site_label_1
_geom_bond_atom_site_label_2
_geom_bond_distance
_ccdc_geom_bond_type
C23   H3    1.083066 S    
C52   O22   1.287439 A    
O11   Cr3   2.057739 S    
C11   C13   1.202123 T    
C24   C25   1.379127 A    
C34   C35   1.395479 A    
C11   C49   1.427883 S    
C25   F3    1.357206 S    
O14   C51   1.267996 A    
C50   O18   1.261703 A    
C32   C38   1.378814 A    
O4    Cr2   1.932500 S    
O15   C49   1.281222 A    
O16   Cr5   2.045962 S    
O8    Cr1   1.918810 S    
C29   C33   1.423908 A    
C34   F5    1.357999 S    
C40   C44   1.418006 A    
C12   C13   1.406589 S    
C8    C10   1.200848 T    
O4    C2    1.269421 A    
C36   N1    1.431098 S    
C5    O11   1.267002 A    
O15   Cr4   1.921008 S    
O25   Cr6   1.932150 S    
C35   C36   1.399511 A    
C26   F4    1.351702 S    
C21   C28   1.428111 A    
O21   Cr4   1.929224 S    
O14   Cr4   2.051170 S    
O24   Cr6   2.069283 S    
O20   C54   1.261682 A    
C42   C48   1.398040 A    
C44   C45   1.388825 A    
C46   H10   1.078012 S    
C24   H2    1.076793 S    
C15   C17   1.203930 T    
C46   C47   1.394566 A    
C43   H9    1.065726 S    
C22   C28   1.399910 A    
C37   H7    1.083658 S    
C42   C43   1.377287 A    
C4    C48   1.476399 S    
O22   Cr5   2.036847 S    
Cr3   O13   1.987186 S    
O12   C6    1.315182 A    
C36   C37   1.389004 A    
C39   C43   1.388191 A    
O1    Cr1   2.036684 S    
O18   Cr6   2.050613 S    
C33   F6    1.357116 S    
C30   C31   1.399463 A    
O10   Cr2   1.949737 S    
C19   C23   1.389630 A    
Cr1   O13   1.998929 S    
O1    C3    1.277556 A    
C8    C9    1.404574 S    
C22   C23   1.382250 A    
H8    C42   1.079128 S    
C45   F2    1.355852 S    
C49   O16   1.276222 A    
O6    C3    1.284598 A    
Cr4   O26   1.997876 S    
O5    Cr3   2.043963 S    
O12   Cr3   1.923604 S    
C15   C51   1.430816 S    
C35   H6    1.069724 S    
C16   C18   1.204006 T    
O23   Cr5   1.930968 S    
H1    C22   1.082708 S    
C26   C27   1.392913 A    
C21   C27   1.422649 A    
C20   C21   1.392396 A    
C31   C38   1.416985 A    
O20   Cr4   2.038920 S    
O19   C51   1.277091 A    
O7    Cr1   2.039948 S    
Cr6   O26   1.959694 S    
C29   C30   1.410101 A    
C44   F1    1.359024 S    
O17   Cr5   1.921966 S    
C31   C37   1.406812 A    
C3    C14   1.427782 S    
C29   C52   1.476824 S    
Cr2   O13   1.960245 S    
N1    O28   1.299766 A    
C25   C26   1.363969 A    
C5    C28   1.449301 S    
C1    O3    1.266192 A    
C19   C53   1.458769 S    
C19   C20   1.439618 A    
C7    C50   1.425659 S    
O9    Cr2   2.047617 S    
O2    Cr1   1.925296 S    
O21   C52   1.281206 A    
O17   C50   1.266608 A    
O6    Cr3   1.936606 S    
O8    C4    1.311236 A    
Cr5   O26   1.988702 S    
C32   C33   1.399787 A    
C2    O5    1.263605 A    
C41   C48   1.428936 A    
C39   C54   1.467698 S    
C1    C18   1.431093 S    
C40   C41   1.419403 A    
C12   C14   1.202092 T    
O2    C1    1.269546 A    
C41   C47   1.414657 A    
C16   C17   1.409598 S    
C47   H11   1.072501 S    
C53   O24   1.269931 A    
C2    C10   1.425666 S    
O7    C6    1.259465 A    
H5    C32   1.075284 S    
O19   Cr6   1.951448 S    
O25   C54   1.284560 A    
C30   C34   1.411843 A    
C7    C9    1.200848 T    
C20   C24   1.435552 A    
C45   C46   1.384722 A    
C39   C40   1.415913 A    
O3    Cr2   2.066826 S    
C6    C38   1.485399 S    
C4    O9    1.286660 A    
N1    O27   1.301795 A    
O10   C5    1.306198 A    
O23   C53   1.330855 A    
C27   H4    1.055926 S    
