data_mof_unit_34552.cif
_audit_creation_date              2013-03-05T16:04:28-0500
_audit_creation_method            fapswitch 2.2
_symmetry_space_group_name_H-M    P1
_symmetry_Int_Tables_number       1
_space_group_crystal_system       triclinic
_cell_length_a                    11.057173
_cell_length_b                    9.697528
_cell_length_c                    15.110339
_cell_angle_alpha                 89.997847
_cell_angle_beta                  93.382699
_cell_angle_gamma                 89.969305
_cell_volume                      1617.41682297

loop_
_atom_site_label
_atom_site_type_symbol
_atom_site_description
_atom_site_fract_x
_atom_site_fract_y
_atom_site_fract_z
_atom_type_partial_charge
O1    O     O_R   0.319640 0.618740 0.499990 -0.541795
O2    O     O_R   0.680360 0.381260 0.500010 -0.543567
O3    O     O_R   0.680360 0.618740 0.500010 -0.541711
O4    O     O_R   0.319640 0.381260 0.499990 -0.543489
C1    C     C_R   0.262672 0.500449 0.502753 0.920448
C2    C     C_R   0.737359 0.500368 0.497312 0.920239
O5    O     O_R   0.499970 0.618800 0.370260 -0.563944
O6    O     O_R   0.500030 0.381200 0.629740 -0.566105
O7    O     O_R   0.500030 0.618800 0.629740 -0.564201
O8    O     O_R   0.499970 0.381200 0.370260 -0.566360
C3    C     C_R   0.499961 0.500166 0.329281 0.885001
C4    C     C_R   0.500012 0.500178 0.670710 0.885056
Cu1   Cu    Cu3+1 0.500000 0.640660 0.500000 1.106707
Cu2   Cu    Cu3+1 0.500000 0.359340 0.500000 1.106973
C5    C     C_R   0.611097 0.493555 0.818773 0.272888
C6    C     C_R   0.388909 0.493684 0.181199 0.272976
C7    C     C_R   0.500617 0.501865 0.767481 -0.205978
C8    C     C_R   0.499396 0.501780 0.232492 -0.206009
C9    C     C_R   0.390401 0.516538 0.808641 0.090715
C10   C     C_R   0.609674 0.515904 0.191334 0.090321
C11   C     C_R   0.388476 0.503985 0.901576 -0.014999
C12   C     C_R   0.611569 0.503573 0.098376 -0.014863
C13   C     C_R   0.499706 0.505451 0.953129 -0.033097
C14   C     C_R   0.500305 0.505379 0.046837 -0.033038
C15   C     C_R   0.610488 0.509522 0.911425 -0.068686
C16   C     C_R   0.389500 0.509579 0.088535 -0.068629
C17   C     C_R   0.279393 0.500251 0.945415 0.135413
C18   C     C_R   0.720643 0.499840 0.054475 0.135524
C19   C     C_R   0.281414 0.526450 0.036026 0.180118
C20   C     C_R   0.718545 0.526322 0.963905 0.180280
C21   C     C_R   0.063283 0.376920 0.509521 0.237162
C22   C     C_R   0.936623 0.628479 0.499111 0.246118
C23   C     C_R   0.937116 0.376681 0.491533 0.236820
C24   C     C_R   0.063243 0.628540 0.500428 0.246407
C25   C     C_R   0.871621 0.502159 0.494050 -0.317759
C26   C     C_R   0.128464 0.502360 0.506123 -0.317837
C27   C     C_R   0.428131 0.073920 0.439512 0.225286
C28   C     C_R   0.569499 0.926415 0.562224 0.231840
C29   C     C_R   0.571811 0.073811 0.560523 0.225182
C30   C     C_R   0.430515 0.926526 0.437768 0.231918
N1    N     N_R   0.500000 0.852070 0.500000 -0.246250
N2    N     N_R   0.500000 0.147930 0.500000 -0.254724
N3    N     N_R   0.721725 0.456271 0.778731 0.134758
O9    O     O_R   0.751476 0.512214 0.704900 -0.358223
O10   O     O_R   0.794121 0.365186 0.816815 -0.286883
N4    N     N_R   0.278298 0.456569 0.221276 0.134683
O11   O     O_R   0.248574 0.512643 0.295085 -0.358119
O12   O     O_R   0.205962 0.365415 0.183302 -0.287018
I1    I     I_    0.237175 0.595328 0.731463 -0.135522
I2    I     I_    0.763344 0.592961 0.268748 -0.136224
I3    I     I_    0.126510 0.383270 0.895895 -0.038636
I4    I     I_    0.873628 0.382333 0.103465 -0.039392
I5    I     I_    0.136669 0.647217 0.082270 -0.065191
I6    I     I_    0.862990 0.647395 0.917692 -0.065528
N5    N     N_R   0.123324 0.251415 0.537516 0.178053
O13   O     O_R   0.178700 0.244706 0.615825 -0.294670
O14   O     O_R   0.116192 0.141285 0.488481 -0.209705
N6    N     N_R   0.876776 0.759948 0.502781 0.182013
O15   O     O_R   0.818088 0.807942 0.432211 -0.266162
O16   O     O_R   0.910748 0.846149 0.565398 -0.218385
N7    N     N_R   0.877374 0.250374 0.464868 0.177539
O17   O     O_R   0.821981 0.241611 0.386611 -0.293429
O18   O     O_R   0.886354 0.140938 0.514529 -0.208820
N8    N     N_R   0.122865 0.759988 0.496239 0.182094
O19   O     O_R   0.181443 0.808636 0.566625 -0.265690
O20   O     O_R   0.088648 0.845649 0.433350 -0.218801
I7    I     I_    0.307381 0.176293 0.345872 0.000454
I8    I     I_    0.676306 0.827323 0.667119 -0.047010
I9    I     I_    0.692083 0.176013 0.654465 0.000446
I10   I     I_    0.323995 0.827689 0.332695 -0.046980

loop_
_geom_bond_atom_site_label_1
_geom_bond_atom_site_label_2
_geom_bond_distance
_ccdc_geom_bond_type
C4    C7    1.461962 S    
O6    Cu2   1.971832 S    
C13   C14   1.415590 A    
C22   C25   1.420388 A    
C3    C8    1.462249 S    
C15   C20   1.404040 A    
C16   C19   1.404449 A    
O6    C4    1.309407 A    
C17   C19   1.391434 A    
N3    O10   1.302691 A    
C9    I1    2.140008 S    
C8    C10   1.407848 A    
O3    Cu1   2.005446 S    
C22   N6    1.438690 S    
Cu2   N2    2.050155 S    
O3    C2    1.311050 A    
N8    O19   1.300892 A    
C20   I6    2.133234 S    
N5    O13   1.301444 A    
C18   C20   1.391256 A    
C29   I9    2.131791 S    
C11   C17   1.410403 A    
C5    N3    1.442217 S    
C6    C8    1.409865 A    
C12   C18   1.410775 A    
Cu1   Cu2   2.728109 S    
O5    C3    1.306525 A    
C18   I4    2.134947 S    
N8    O20   1.301304 A    
O2    C2    1.317892 A    
C30   I10   2.146464 S    
N3    O9    1.300230 A    
O1    C1    1.310840 A    
C5    C7    1.409838 A    
C27   I7    2.132084 S    
Cu1   N1    2.050154 S    
C30   N1    1.382024 A    
C23   C25   1.417349 A    
C17   I3    2.134788 S    
C24   N8    1.438526 S    
C19   I5    2.133391 S    
C29   N2    1.377358 A    
C24   C26   1.420029 A    
N5    O14   1.299638 A    
C11   C13   1.416542 A    
O4    Cu2   2.005447 S    
N7    O17   1.302019 A    
O2    Cu2   2.005672 S    
O7    C4    1.306330 A    
C12   C14   1.416780 A    
C5    C15   1.408954 A    
O1    Cu1   2.005673 S    
O8    C3    1.309326 A    
C10   C12   1.411101 A    
N6    O16   1.301376 A    
C27   C30   1.429852 A    
C1    C26   1.487942 S    
O5    Cu1   1.971832 S    
C13   C15   1.410775 A    
C28   C29   1.429874 A    
C2    C25   1.488383 S    
C28   N1    1.381933 A    
C23   N7    1.438233 S    
O8    Cu2   1.971816 S    
C6    N4    1.442199 S    
C27   N2    1.377302 A    
N7    O18   1.300094 A    
O7    Cu1   1.971816 S    
C21   C26   1.416736 A    
C7    C9    1.407648 A    
C21   C23   1.405449 A    
C10   I2    2.140258 S    
C21   N5    1.437692 S    
N6    O15   1.301065 A    
N4    O11   1.300258 A    
N4    O12   1.302700 A    
C14   C16   1.410946 A    
C28   I8    2.146648 S    
O4    C1    1.317884 A    
C9    C11   1.410960 A    
C6    C16   1.409049 A    
C22   C24   1.399023 A    
