data_mof_unit_49133.cif
_audit_creation_date              2012-12-11T16:51:31-0500
_audit_creation_method            fapswitch 2.2
_symmetry_space_group_name_H-M    P1
_symmetry_Int_Tables_number       1
_space_group_crystal_system       triclinic
_cell_length_a                    24.326045
_cell_length_b                    17.153472
_cell_length_c                    15.552628
_cell_angle_alpha                 89.999937
_cell_angle_beta                  129.26547
_cell_angle_gamma                 89.999783
_cell_volume                      5024.49842865

loop_
_atom_site_label
_atom_site_type_symbol
_atom_type_description
_atom_site_fract_x
_atom_site_fract_y
_atom_site_fract_z
_atom_type_partial_charge
C1    C     C_R   0.848747 0.859093 0.240213 -0.114733
C2    C     C_R   0.151250 0.859091 0.759779 -0.114732
C3    C     C_R   0.348756 0.359084 0.240236 -0.114732
C4    C     C_R   0.651249 0.359089 0.759777 -0.114734
C5    C     C_R   0.911010 0.143968 0.591771 -0.121734
C6    C     C_R   0.088987 0.143972 0.408230 -0.121725
C7    C     C_R   0.411013 0.643971 0.591770 -0.121729
C8    C     C_R   0.588984 0.643973 0.408228 -0.121727
C9    C     C_R   0.860278 0.187783 0.498071 0.073376
C10   C     C_R   0.139713 0.187790 0.501931 0.073373
C11   C     C_R   0.360285 0.687789 0.498069 0.073375
C12   C     C_R   0.639709 0.687792 0.501927 0.073376
C13   C     C_R   0.851744 0.124400 0.133933 0.153868
C14   C     C_R   0.148260 0.124376 0.866081 0.153871
C15   C     C_R   0.351739 0.624377 0.133918 0.153870
C16   C     C_R   0.648262 0.624377 0.866083 0.153869
C17   C     C_R   0.775877 0.840486 0.605244 0.163127
C18   C     C_R   0.224114 0.840479 0.394746 0.163104
C19   C     C_R   0.275889 0.340473 0.605257 0.163088
C20   C     C_R   0.724118 0.340489 0.394747 0.163114
C21   C     C_R   0.760124 0.861119 0.504706 0.031756
C22   C     C_R   0.239873 0.861123 0.495286 0.031756
C23   C     C_R   0.260126 0.361122 0.504715 0.031761
C24   C     C_R   0.739877 0.361134 0.495287 0.031751
C25   C     C_R   0.690074 0.850123 0.406214 -0.198243
C26   C     C_R   0.309925 0.850134 0.593775 -0.198233
C27   C     C_R   0.190074 0.350137 0.406228 -0.198222
C28   C     C_R   0.809927 0.350140 0.593778 -0.198235
C29   C     C_R   0.144274 0.301292 0.406909 -0.198189
C30   C     C_R   0.855721 0.301283 0.593099 -0.198194
C31   C     C_R   0.644273 0.801282 0.406894 -0.198200
C32   C     C_R   0.355724 0.801287 0.593094 -0.198195
C33   C     C_R   0.169147 0.263117 0.505770 0.033028
C34   C     C_R   0.830847 0.263112 0.494236 0.033024
C35   C     C_R   0.669141 0.763120 0.505759 0.033028
C36   C     C_R   0.330852 0.763116 0.494232 0.033026
C37   C     C_R   0.231154 0.291639 0.605903 0.167850
C38   C     C_R   0.768848 0.291646 0.394104 0.167866
C39   C     C_R   0.731141 0.791654 0.605889 0.167869
C40   C     C_R   0.268847 0.791643 0.394101 0.167857
C41   C     C_3   0.792345 0.750617 0.708462 -0.524105
C42   C     C_3   0.207641 0.750595 0.291539 -0.524065
C43   C     C_3   0.292362 0.250577 0.708451 -0.524047
C44   C     C_3   0.707640 0.250608 0.291533 -0.524079
C45   C     C_R   0.114039 0.897811 0.407502 -0.152363
C46   C     C_R   0.885960 0.897809 0.592497 -0.152361
C47   C     C_R   0.614041 0.397819 0.407503 -0.152379
C48   C     C_R   0.385960 0.397810 0.592498 -0.152367
C49   C     C_3   0.840987 0.804428 0.707946 -0.521532
C50   C     C_3   0.159001 0.804411 0.292053 -0.521496
C51   C     C_3   0.341002 0.304391 0.707935 -0.521478
C52   C     C_3   0.659004 0.304431 0.292046 -0.521511
C53   C     C_2   0.145468 0.745316 0.858238 -0.289548
C54   C     C_2   0.854522 0.745328 0.141738 -0.289555
C55   C     C_2   0.645474 0.245321 0.858250 -0.289549
C56   C     C_2   0.354558 0.245288 0.141820 -0.289523
C57   C     C_2   0.187773 0.694466 0.858489 0.110242
C58   C     C_2   0.812231 0.694468 0.141506 0.110222
C59   C     C_2   0.687774 0.194467 0.858494 0.110224
C60   C     C_2   0.312219 0.194460 0.141526 0.110284
C61   C     C_2   0.804168 0.148445 0.017117 -0.207349
C62   C     C_2   0.195834 0.148416 0.982897 -0.207351
C63   C     C_2   0.304163 0.648422 0.017104 -0.207343
C64   C     C_2   0.695840 0.648420 0.982899 -0.207349
C65   C     C_2   0.733420 0.144851 0.956294 -0.179868
C66   C     C_2   0.266584 0.144847 0.043718 -0.179861
C67   C     C_2   0.233413 0.644845 0.956285 -0.179862
C68   C     C_2   0.766590 0.644842 0.043716 -0.179863
C69   C     C_R   0.188595 0.896088 0.591341 -0.120740
C70   C     C_R   0.811406 0.896086 0.408657 -0.120742
C71   C     C_R   0.688596 0.396093 0.591341 -0.120744
C72   C     C_R   0.311404 0.396088 0.408659 -0.120733
C73   C     C_R   0.058932 0.858994 0.759975 -0.144823
C74   C     C_R   0.941064 0.858999 0.240016 -0.144822
C75   C     C_R   0.558933 0.358994 0.759977 -0.144824
C76   C     C_R   0.441077 0.358983 0.240049 -0.144831
C77   C     C_R   0.881808 0.816866 0.208141 0.155730
C78   C     C_R   0.118186 0.816860 0.791845 0.155733
C79   C     C_R   0.381827 0.316844 0.208190 0.155734
C80   C     C_R   0.618187 0.316860 0.791846 0.155730
C81   C     C_R   0.182857 0.880691 0.498589 0.078900
C82   C     C_R   0.817142 0.880688 0.501408 0.078898
C83   C     C_R   0.682860 0.380702 0.498590 0.078909
C84   C     C_R   0.317142 0.380691 0.501410 0.078897
C85   C     C_R   0.838396 0.144023 0.406714 -0.147781
C86   C     C_R   0.161594 0.144029 0.593286 -0.147793
C87   C     C_R   0.338403 0.644028 0.406713 -0.147790
C88   C     C_R   0.661593 0.644030 0.593284 -0.147790
C89   C     C_R   0.922898 0.105929 0.196864 -0.163055
C90   C     C_R   0.077105 0.105916 0.803142 -0.163056
C91   C     C_R   0.422894 0.605915 0.196856 -0.163057
C92   C     C_R   0.577106 0.605915 0.803144 -0.163058
C93   C     C_R   0.167790 0.105860 0.802422 -0.132789
C94   C     C_R   0.832214 0.105877 0.197589 -0.132787
C95   C     C_R   0.667790 0.605860 0.802421 -0.132793
C96   C     C_R   0.332210 0.605861 0.197579 -0.132792
H1    H     H_    0.799369 0.846145 0.223530 0.101382
H2    H     H_    0.200629 0.846146 0.776462 0.101388
H3    H     H_    0.299376 0.346143 0.223552 0.101398
H4    H     H_    0.700626 0.346143 0.776458 0.101387
H5    H     H_    0.093936 0.285879 0.328241 0.126157
H6    H     H_    0.906056 0.285865 0.671768 0.126158
H7    H     H_    0.593939 0.785863 0.328225 0.126157
H8    H     H_    0.406061 0.785872 0.671762 0.126157
H9    H     H_    0.793893 0.760308 0.780665 0.191839
H10   H     H_    0.206085 0.760273 0.219324 0.191823
H11   H     H_    0.293926 0.260249 0.780676 0.191817
H12   H     H_    0.706093 0.260288 0.219327 0.191828
H13   H     H_    0.798549 0.688966 0.693759 0.200976
H14   H     H_    0.201443 0.688944 0.306265 0.200970
H15   H     H_    0.298551 0.188927 0.693711 0.200969
H16   H     H_    0.701433 0.188959 0.306246 0.200968
H17   H     H_    0.870110 0.845496 0.779377 0.189782
H18   H     H_    0.129873 0.845470 0.220610 0.189775
H19   H     H_    0.370140 0.345443 0.779388 0.189768
H20   H     H_    0.629884 0.345496 0.220609 0.189779
H21   H     H_    0.874357 0.772968 0.693247 0.203368
H22   H     H_    0.125635 0.772954 0.306769 0.203364
H23   H     H_    0.374359 0.272935 0.693200 0.203364
H24   H     H_    0.625630 0.272980 0.306748 0.203359
H25   H     H_    0.709740 0.118401 0.989308 0.126546
H26   H     H_    0.290268 0.118420 0.010698 0.126536
H27   H     H_    0.209732 0.618404 0.989302 0.126541
H28   H     H_    0.790270 0.618400 0.010699 0.126545
H29   H     H_    0.827459 0.176471 0.984200 0.134182
H30   H     H_    0.172537 0.176420 0.015818 0.134188
H31   H     H_    0.327457 0.676439 0.984185 0.134180
H32   H     H_    0.672548 0.676439 0.015819 0.134180
H33   H     H_    0.137715 0.739469 0.919577 0.131459
H34   H     H_    0.862261 0.739492 0.080383 0.131467
H35   H     H_    0.637734 0.239484 0.919603 0.131467
H36   H     H_    0.362348 0.239417 0.080524 0.131436
H37   H     H_    0.093922 0.906505 0.323310 0.100827
H38   H     H_    0.906076 0.906501 0.676688 0.100824
H39   H     H_    0.593924 0.406516 0.323312 0.100831
H40   H     H_    0.406077 0.406503 0.676690 0.100826
H41   H     H_    0.237067 0.900329 0.676173 0.082166
H42   H     H_    0.762934 0.900327 0.323825 0.082163
H43   H     H_    0.737068 0.400334 0.676173 0.082165
H44   H     H_    0.262932 0.400330 0.323827 0.082169
H45   H     H_    0.022283 0.843421 0.774337 0.100388
H46   H     H_    0.977712 0.843429 0.225649 0.100388
H47   H     H_    0.522285 0.343423 0.774343 0.100388
H48   H     H_    0.477730 0.343404 0.225700 0.100390
H49   H     H_    0.802033 0.160888 0.320958 0.109786
H50   H     H_    0.197950 0.160896 0.679041 0.109796
H51   H     H_    0.302046 0.660895 0.320958 0.109794
H52   H     H_    0.697949 0.660899 0.679039 0.109793
H53   H     H_    0.952362 0.102215 0.166476 0.093130
H54   H     H_    0.047638 0.102199 0.833527 0.093129
H55   H     H_    0.452361 0.602201 0.166472 0.093128
H56   H     H_    0.547641 0.602199 0.833530 0.093130
H57   H     H_    0.221127 0.102043 0.830108 0.081432
H58   H     H_    0.778877 0.102064 0.169902 0.081431
H59   H     H_    0.721127 0.602045 0.830105 0.081434
H60   H     H_    0.278874 0.602045 0.169894 0.081433
H61   H     H_    0.939941 0.159925 0.677630 0.092739
H62   H     H_    0.060058 0.159929 0.322372 0.092739
H63   H     H_    0.439945 0.659929 0.677629 0.092739
H64   H     H_    0.560052 0.659930 0.322369 0.092737
H65   H     H_    0.673319 0.870415 0.327023 0.124361
H66   H     H_    0.326685 0.870437 0.672966 0.124359
H67   H     H_    0.173314 0.370440 0.327037 0.124359
H68   H     H_    0.826688 0.370446 0.672969 0.124358
N1    N     N_R   0.888400 0.921830 0.294620 -0.047914
N2    N     N_R   0.111600 0.921830 0.705380 -0.047915
N3    N     N_R   0.388400 0.421830 0.294620 -0.047917
N4    N     N_R   0.611600 0.421830 0.705380 -0.047915
N5    N     N_R   0.079940 0.922160 0.443410 -0.037034
N6    N     N_R   0.920060 0.922160 0.556590 -0.037034
N7    N     N_R   0.579940 0.422160 0.443410 -0.037033
N8    N     N_R   0.420060 0.422160 0.556590 -0.037033
N9    N     N_R   0.125650 0.922400 0.556620 -0.039350
N10   N     N_R   0.874350 0.922400 0.443380 -0.039348
N11   N     N_R   0.625650 0.422400 0.556620 -0.039348
N12   N     N_R   0.374350 0.422400 0.443380 -0.039351
N13   N     N_R   0.054230 0.922730 0.705400 -0.042102
N14   N     N_R   0.945770 0.922730 0.294600 -0.042103
N15   N     N_R   0.554230 0.422730 0.705400 -0.042101
N16   N     N_R   0.445770 0.422730 0.294600 -0.042101
N17   N     N_R   0.873790 0.077030 0.443380 -0.040944
N18   N     N_R   0.126210 0.077030 0.556620 -0.040945
N19   N     N_R   0.373790 0.577030 0.443380 -0.040945
N20   N     N_R   0.626210 0.577030 0.556620 -0.040944
N21   N     N_R   0.945200 0.076700 0.294600 -0.038469
N22   N     N_R   0.054800 0.076700 0.705400 -0.038469
N23   N     N_R   0.445200 0.576700 0.294600 -0.038469
N24   N     N_R   0.554800 0.576700 0.705400 -0.038469
N25   N     N_R   0.111030 0.077600 0.705380 -0.042579
N26   N     N_R   0.888970 0.077600 0.294620 -0.042577
N27   N     N_R   0.611030 0.577600 0.705380 -0.042578
N28   N     N_R   0.388970 0.577600 0.294620 -0.042578
N29   N     N_R   0.919490 0.077280 0.556590 -0.039955
N30   N     N_R   0.080510 0.077280 0.443410 -0.039955
N31   N     N_R   0.419490 0.577280 0.556590 -0.039955
N32   N     N_R   0.580510 0.577280 0.443410 -0.039954
Ni1   Ni    Ni4+2 0.882160 0.999430 0.370180 0.207959
Ni2   Ni    Ni4+2 0.117840 0.999430 0.629820 0.207956
Ni3   Ni    Ni4+2 0.382160 0.499430 0.370180 0.207956
Ni4   Ni    Ni4+2 0.617840 0.499430 0.629820 0.207957
Ni5   Ni    Ni4+2 0.012460 0.999430 0.370180 0.210945
Ni6   Ni    Ni4+2 0.987540 0.999430 0.629820 0.210945
Ni7   Ni    Ni4+2 0.512460 0.499430 0.370180 0.210944
Ni8   Ni    Ni4+2 0.487540 0.499430 0.629820 0.210944
C97   C     C_1   0.195309 0.692874 0.773156 0.062193
N33   N     N_1   0.201354 0.691411 0.705092 -0.094324
C98   C     C_1   0.804721 0.692858 0.226866 0.062216
N34   N     N_1   0.798699 0.691380 0.294954 -0.094316
C99   C     C_1   0.695291 0.192859 0.773143 0.062209
N35   N     N_1   0.701320 0.191383 0.705060 -0.094317
C100  C     C_1   0.304628 0.192897 0.226803 0.062131
N36   N     N_1   0.298532 0.191462 0.294819 -0.094338

loop_
_geom_bond_atom_site_label_1
_geom_bond_atom_site_label_2
_ccdc_geom_bond_type
N25   Ni2   S    
C25   C31   A    
C49   H17   S    
C26   C32   A    
C75   H47   S    
C55   C59   D    
C27   C29   A    
C1    C77   A    
C59   C99   S    
C35   C39   A    
N18   Ni2   S    
C76   C79   A    
C90   H54   S    
N16   Ni7   S    
C3    C79   A    
C68   H28   S    
C94   N26   A    
C47   H39   S    
C3    N3    A    
N21   N26   A    
C39   C41   S    
C73   H45   S    
C97   N33   T    
C7    C11   A    
C18   C50   S    
C56   C79   S    
C87   H51   S    
N24   N27   A    
C32   C36   A    
C11   C36   S    
C56   C60   D    
C24   C83   S    
C85   H49   S    
C4    C80   A    
C52   H20   S    
N1    Ni1   S    
C64   C68   D    
C87   N19   A    
C88   N20   A    
C7    H63   S    
C14   C62   S    
C57   C97   S    
N22   Ni6   S    
C17   C39   A    
N28   Ni3   S    
N21   Ni5   S    
N8    Ni8   S    
C18   C40   A    
C14   C90   A    
C91   N23   A    
C19   C37   A    
C27   H67   S    
C48   N8    A    
C49   H21   S    
C20   C24   A    
C29   C33   A    
C11   C87   A    
C64   H32   S    
C74   C77   A    
C92   H56   S    
N19   N31   A    
C73   C78   A    
C66   H26   S    
N18   N30   A    
C55   H35   S    
C65   H25   S    
C75   N15   A    
C75   C80   A    
C2    N2    A    
C14   C93   A    
C95   N27   A    
N23   Ni7   S    
C9    C85   A    
C44   C52   S    
C40   C42   S    
N3    N16   A    
C74   H46   S    
N17   Ni1   S    
C50   H22   S    
N1    N14   A    
C43   H15   S    
C57   C67   S    
C86   H50   S    
C41   C49   S    
C6    H62   S    
C38   C44   S    
C71   C83   A    
C23   C27   A    
C44   H12   S    
C69   H41   S    
C54   H34   S    
C63   C67   D    
C89   H53   S    
C72   C84   A    
C23   C84   S    
C30   C34   A    
C98   N34   T    
C22   C81   S    
C46   C82   A    
C36   C40   A    
N27   Ni4   S    
C1    H1    S    
C15   C96   A    
C62   H30   S    
C62   C66   D    
C34   C38   A    
C71   H43   S    
N31   Ni8   S    
C90   N22   A    
N5    Ni5   S    
N20   Ni4   S    
N20   N32   A    
N30   Ni5   S    
N7    N11   A    
N24   Ni8   S    
C25   H65   S    
C51   H19   S    
N29   Ni6   S    
C48   C84   A    
C67   H27   S    
C50   H18   S    
C31   H7    S    
C37   C43   S    
C19   C23   A    
N2    Ni2   S    
C5    C9    A    
C2    C78   A    
C3    H3    S    
C46   H38   S    
C20   C38   A    
C69   N9    A    
C51   H23   S    
C100  N36   T    
C74   N14   A    
C1    N1    A    
C8    C12   A    
C12   C88   A    
C30   H6    S    
C32   H8    S    
C99   N35   T    
C88   H52   S    
C29   H5    S    
N2    N13   A    
C43   H11   S    
N15   Ni8   S    
C12   C35   S    
C70   N10   A    
N23   N28   A    
C56   H36   S    
C46   N6    A    
C41   H9    S    
C42   C50   S    
C60   C66   S    
C76   H48   S    
C58   C68   S    
C70   H42   S    
C47   C83   A    
C4    H4    S    
C9    C34   S    
C54   C58   D    
C31   C35   A    
C53   H33   S    
N12   Ni3   S    
C17   C49   S    
C8    H64   S    
C52   H24   S    
C6    N30   A    
N17   N29   A    
C28   H68   S    
C5    N29   A    
N6    N10   A    
C21   C25   A    
C61   H29   S    
C10   C86   A    
N10   Ni1   S    
C53   C57   D    
N4    Ni4   S    
C13   C89   A    
N9    Ni2   S    
C18   C22   A    
C89   N21   A    
C48   H40   S    
C45   C81   A    
C24   C28   A    
C76   N16   A    
C45   N5    A    
C6    C10   A    
C47   N7    A    
C92   N24   A    
C16   C92   A    
C85   N17   A    
C93   N25   A    
C45   H37   S    
N4    N15   A    
C44   H16   S    
C5    H61   S    
C15   C63   S    
C13   C94   A    
N32   Ni7   S    
C54   C77   S    
N22   N25   A    
C93   H57   S    
C53   C78   S    
C42   H14   S    
C73   N13   A    
C20   C52   S    
C59   C65   S    
C91   H55   S    
C55   C80   S    
C16   C95   A    
N5    N9    A    
C96   N28   A    
C96   H60   S    
C94   H58   S    
C58   C98   S    
C43   C51   S    
C19   C51   S    
C71   N11   A    
C28   C30   A    
C26   H66   S    
C33   C37   A    
C8    N32   A    
C10   C33   S    
C95   H59   S    
C72   N12   A    
C61   C65   D    
N7    Ni7   S    
C70   C82   A    
C60   C100  S    
N19   Ni3   S    
N11   Ni4   S    
N6    Ni6   S    
C69   C81   A    
C15   C91   A    
C42   H10   S    
C4    N4    A    
C72   H44   S    
C13   C61   S    
C21   C82   S    
C2    H2    S    
C22   C26   A    
N14   Ni5   S    
C86   N18   A    
N3    Ni3   S    
N13   Ni6   S    
C41   H13   S    
C16   C64   S    
C7    N31   A    
C63   H31   S    
N8    N12   A    
N26   Ni1   S    
C17   C21   A    
