data_mof_unit_33205.cif
_audit_creation_date              2012-12-10T19:27:29-0500
_audit_creation_method            fapswitch 2.2
_symmetry_space_group_name_H-M    P1
_symmetry_Int_Tables_number       1
_space_group_crystal_system       triclinic
_cell_length_a                    22.576314
_cell_length_b                    10.632458
_cell_length_c                    9.810936
_cell_angle_alpha                 89.072952
_cell_angle_beta                  85.529181
_cell_angle_gamma                 90.091107
_cell_volume                      2347.55095076

loop_
_atom_site_label
_atom_site_type_symbol
_atom_type_description
_atom_site_fract_x
_atom_site_fract_y
_atom_site_fract_z
_atom_type_partial_charge
Br1   Br    Br    0.930856 0.435922 0.954111 -0.386806
Br2   Br    Br    0.052325 0.978193 0.289758 -0.370808
Br3   Br    Br    0.215910 0.810759 0.729580 -0.404777
Br4   Br    Br    0.813209 0.341116 0.688744 -0.338638
Br5   Br    Br    0.336289 0.654337 0.780247 -0.532381
Br6   Br    Br    0.667731 0.309413 0.699832 -0.450266
Br7   Br    Br    0.552548 0.085365 0.793921 -0.576218
Br8   Br    Br    0.462135 0.925150 0.202369 -0.633593
C1    C     C_R   0.504290 0.258333 0.500405 0.928595
C2    C     C_R   0.715283 0.579819 0.391423 0.076307
C3    C     C_R   0.227627 0.550733 0.410204 0.116790
C4    C     C_R   0.775357 0.605724 0.418991 0.145685
C5    C     C_R   0.207382 0.640834 0.506997 0.123414
C6    C     C_R   0.792098 0.582891 0.554049 0.003777
C7    C     C_3   0.522672 0.037384 0.622888 0.296403
C8    C     C_3   0.488760 0.964628 0.379304 0.274416
C9    C     C_3   0.559220 0.953076 0.520285 0.097614
C10   C     C_3   0.452282 0.046781 0.481589 0.028899
C11   C     C_3   0.502049 0.877495 0.499562 -0.225707
C12   C     C_R   0.499532 0.742424 0.499513 0.914694
C13   C     C_3   0.508003 0.123523 0.502344 -0.241779
C14   C     C_3   0.466052 0.960760 0.603122 0.057464
C15   C     C_3   0.545055 0.041523 0.400439 0.071335
C16   C     C_R   0.387595 0.505032 0.505438 0.889308
C17   C     C_R   0.612307 0.502453 0.495329 0.903427
C18   C     C_3   0.470188 0.407174 0.053673 0.222782
C19   C     C_3   0.530539 0.592539 0.945385 0.253719
C20   C     C_3   0.523094 0.397804 0.948532 -0.079917
C21   C     C_3   0.477161 0.602828 0.051299 -0.093956
C22   C     C_3   0.446654 0.508772 0.961010 -0.122870
C23   C     C_R   0.244716 0.682293 0.603824 0.276103
C24   C     C_3   0.553330 0.490484 0.039339 -0.136822
C25   C     C_R   0.866527 0.754788 0.543175 0.570922
C26   C     C_R   0.116222 0.589432 0.637972 0.578568
C27   C     C_R   0.868877 0.607776 0.720412 0.622598
C28   C     C_R   0.115696 0.752993 0.467899 0.585792
C29   C     C_R   0.931269 0.614024 0.718925 -0.103045
C30   C     C_R   0.053501 0.768430 0.493932 -0.093398
C31   C     C_R   0.961275 0.691558 0.616858 -0.058634
C32   C     C_R   0.023618 0.689250 0.595074 -0.048796
C33   C     C_R   0.928249 0.771824 0.536996 -0.071568
C34   C     C_R   0.765348 0.475441 0.619659 0.288164
C35   C     C_R   0.055613 0.604507 0.672203 -0.058570
C36   C     C_R   0.964811 0.540775 0.806435 0.318314
C37   C     C_R   0.019539 0.857255 0.423089 0.316053
C38   C     C_R   0.026371 0.534796 0.780282 -0.164650
C39   C     C_R   0.957542 0.857944 0.445634 -0.179275
C40   C     C_3   0.435372 0.294663 0.115361 -0.390838
C41   C     C_3   0.404470 0.222423 0.007793 -0.829310
C42   C     C_3   0.571837 0.693209 0.877081 -0.396671
C43   C     C_3   0.595645 0.781289 0.979784 -0.879337
C44   C     C_3   0.291703 0.358348 0.373068 -0.412755
C45   C     C_R   0.300350 0.627078 0.613694 0.168402
C46   C     C_3   0.256976 0.266925 0.472033 -0.748268
C47   C     C_3   0.692172 0.625162 0.258262 -0.410588
C48   C     C_3   0.703153 0.528258 0.145554 -0.740242
C49   C     C_3   0.191075 0.525151 0.289387 -0.376976
C50   C     C_3   0.144549 0.421322 0.316357 -0.768070
C51   C     C_3   0.825353 0.612787 0.303555 -0.310296
C52   C     C_3   0.826247 0.729510 0.209180 -0.718468
C53   C     C_3   0.618601 0.886667 0.538823 -0.429095
C54   C     C_3   0.668725 0.977010 0.566644 -0.663273
C55   C     C_3   0.391585 0.100255 0.452943 -0.390709
C56   C     C_R   0.706768 0.445547 0.595525 0.181212
C57   C     C_3   0.344601 0.997406 0.440553 -0.753739
C58   C     C_3   0.415618 0.934783 0.714422 -0.331866
C59   C     C_3   0.434136 0.868907 0.843461 -0.726454
C60   C     C_3   0.587665 0.098002 0.285884 -0.316738
C61   C     C_3   0.628165 0.999460 0.216451 -0.820060
C62   C     C_R   0.322636 0.537910 0.516931 -0.207594
C63   C     C_R   0.678552 0.509492 0.491098 -0.254839
C64   C     C_R   0.283426 0.491436 0.422990 0.092576
H1    H     H_    0.544705 0.314835 0.901777 0.220614
H2    H     H_    0.466027 0.230115 0.164543 0.244917
H3    H     H_    0.401597 0.329485 0.192351 0.210610
H4    H     H_    0.615302 0.727776 0.062412 0.255593
H5    H     H_    0.630215 0.843526 0.927728 0.283616
H6    H     H_    0.559050 0.840603 0.023964 0.314540
H7    H     H_    0.609671 0.646582 0.819187 0.227957
H8    H     H_    0.547960 0.751541 0.806108 0.246043
H9    H     H_    0.280870 0.252586 0.565706 0.253215
H10   H     H_    0.212129 0.302785 0.504877 0.290267
H11   H     H_    0.251482 0.175416 0.422169 0.259977
H12   H     H_    0.455920 0.686648 0.098219 0.201753
H13   H     H_    0.277884 0.347782 0.267931 0.219927
H14   H     H_    0.338615 0.330553 0.370060 0.188736
H15   H     H_    0.681753 0.437301 0.177668 0.256437
H16   H     H_    0.685831 0.564081 0.049729 0.243779
H17   H     H_    0.750745 0.510611 0.120045 0.282027
H18   H     H_    0.644569 0.649010 0.271414 0.208966
H19   H     H_    0.712287 0.716233 0.224757 0.211140
H20   H     H_    0.165302 0.327331 0.304857 0.276340
H21   H     H_    0.121303 0.428649 0.419639 0.260484
H22   H     H_    0.110983 0.429394 0.239765 0.267381
H23   H     H_    0.401262 0.505313 0.927917 0.196908
H24   H     H_    0.168086 0.612532 0.260424 0.247280
H25   H     H_    0.220495 0.502622 0.197092 0.220399
H26   H     H_    0.800870 0.808965 0.256139 0.278186
H27   H     H_    0.872812 0.761101 0.184139 0.257649
H28   H     H_    0.807522 0.706663 0.111230 0.261236
H29   H     H_    0.869500 0.604763 0.345199 0.194341
H30   H     H_    0.824441 0.526615 0.242073 0.220575
H31   H     H_    0.668690 0.061950 0.499723 0.268757
H32   H     H_    0.664660 0.006134 0.674865 0.301541
H33   H     H_    0.712046 0.928561 0.547787 0.264282
H34   H     H_    0.596970 0.475137 0.077747 0.152234
H35   H     H_    0.612828 0.817697 0.624504 0.209881
H36   H     H_    0.631549 0.832720 0.445420 0.191729
H37   H     H_    0.364701 0.903073 0.424217 0.274014
H38   H     H_    0.313924 0.992980 0.534634 0.258246
H39   H     H_    0.318227 0.018619 0.352199 0.267444
H40   H     H_    0.376931 0.165903 0.535533 0.190828
H41   H     H_    0.397140 0.154078 0.355389 0.226047
H42   H     H_    0.447863 0.771366 0.822038 0.282303
H43   H     H_    0.470048 0.919133 0.889518 0.296749
H44   H     H_    0.395563 0.865397 0.920876 0.285867
H45   H     H_    0.051183 0.472878 0.843477 0.217657
H46   H     H_    0.395217 0.026128 0.744958 0.217478
H47   H     H_    0.381241 0.878011 0.669803 0.248431
H48   H     H_    0.669238 0.988060 0.270359 0.253708
H49   H     H_    0.605269 0.907333 0.216336 0.268766
H50   H     H_    0.641282 0.029559 0.109422 0.281673
H51   H     H_    0.560920 0.142840 0.208330 0.233411
H52   H     H_    0.615188 0.172601 0.327879 0.201010
H53   H     H_    0.932166 0.921810 0.385858 0.214560
H54   H     H_    0.371203 0.282865 0.961110 0.255463
H55   H     H_    0.437364 0.189231 0.926435 0.295181
H56   H     H_    0.381123 0.139372 0.056667 0.284026
N1    N     N_R   0.842103 0.649674 0.607877 -0.327428
N2    N     N_R   0.144654 0.660767 0.535238 -0.330481
N3    N     N_3   0.499960 0.500030 0.863290 -0.107872
N4    N     N_3   0.500040 0.499970 0.136710 -0.108122
O1    O     O_R   0.500000 0.313960 0.616610 -0.570354
O2    O     O_2   0.146823 0.502808 0.706013 -0.537473
O3    O     O_2   0.835490 0.566842 0.832008 -0.495495
O4    O     O_2   0.147216 0.827454 0.376562 -0.496307
O5    O     O_R   0.500000 0.686040 0.383390 -0.587633
O6    O     O_R   0.500030 0.313950 0.383350 -0.652839
O7    O     O_R   0.499970 0.686050 0.616650 -0.640254
O8    O     O_R   0.416140 0.499970 0.616650 -0.564082
O9    O     O_R   0.583860 0.500030 0.383350 -0.621527
O10   O     O_R   0.416170 0.499960 0.383400 -0.619757
O11   O     O_R   0.583830 0.500040 0.616600 -0.584944
O12   O     O_2   0.831889 0.838872 0.483544 -0.565244
Zn1   Zn    Zn3+2 0.499980 0.500010 0.655740 0.977654
Zn2   Zn    Zn3+2 0.500020 0.499990 0.344260 0.935311

loop_
_geom_bond_atom_site_label_1
_geom_bond_atom_site_label_2
_ccdc_geom_bond_type
C15   C60   S    
C47   C48   S    
C55   C57   S    
C19   C21   S    
C10   C13   S    
C19   N3    S    
O10   Zn2   S    
C16   O10   A    
C11   C12   S    
C24   N4    S    
C52   H27   S    
C42   H7    S    
C60   H52   S    
C16   C62   S    
C31   C33   A    
C54   H33   S    
C16   O8    A    
C41   H54   S    
C21   C22   S    
C12   O7    A    
Br5   C45   S    
C44   H13   S    
C27   C29   A    
C59   H42   S    
C47   H18   S    
C52   H26   S    
C10   C55   S    
C48   H16   S    
C21   N4    S    
C45   C62   A    
C22   N3    S    
O11   Zn1   S    
C56   C63   A    
Br6   C56   S    
C55   H40   S    
C53   H36   S    
C59   H43   S    
C14   C58   S    
C30   C37   A    
C47   H19   S    
C9    C53   S    
C4    C51   S    
C7    C14   S    
C57   H39   S    
C36   C38   A    
C60   C61   S    
C49   H24   S    
C5    N2    S    
C17   C63   S    
C27   N1    A    
C19   C42   S    
C18   C40   S    
C6    C34   A    
C2    C63   A    
Br7   C7    S    
C58   C59   S    
C51   C52   S    
Br8   C8    S    
C24   H34   S    
C40   H3    S    
C17   O11   A    
C20   H1    S    
C28   O4    S    
C60   H51   S    
C46   H11   S    
C44   C46   S    
C39   H53   S    
C54   H32   S    
C37   C39   A    
C25   O12   S    
C41   H55   S    
C51   H29   S    
C40   H2    S    
O5    Zn2   S    
C20   C24   S    
C11   C14   S    
C43   H4    S    
C21   H12   S    
C27   O3    S    
C31   C32   A    
C3    C64   A    
C48   H15   S    
C38   H45   S    
C12   O5    A    
C59   H44   S    
C43   H5    S    
C22   H23   S    
C44   C64   S    
C28   N2    A    
C1    O6    A    
Br1   C36   S    
C61   H49   S    
C49   H25   S    
C32   C35   A    
C42   C43   S    
C33   C39   A    
C9    C15   S    
C23   C45   A    
Br3   C23   S    
C2    C47   S    
C57   H37   S    
C2    C4    A    
O9    Zn2   S    
C48   H17   S    
C4    C6    A    
C18   C22   S    
C8    C15   S    
C58   H47   S    
C13   C15   S    
O1    Zn1   S    
C34   C56   A    
C46   H10   S    
C18   N4    S    
C54   H31   S    
C25   N1    A    
C7    C9    S    
C41   H56   S    
O7    Zn1   S    
C19   C24   S    
C10   C14   S    
C51   H30   S    
C5    C23   A    
C17   O9    A    
C26   C35   A    
C52   H28   S    
C42   H8    S    
O8    Zn1   S    
C62   C64   A    
C61   H48   S    
C18   C20   S    
C20   N3    S    
N4    Zn2   S    
C29   C36   A    
C28   C30   A    
C50   H22   S    
C43   H6    S    
C25   C33   A    
C29   C31   A    
C30   C32   A    
C3    C5    A    
C1    C13   S    
C49   C50   S    
Br4   C34   S    
C61   H50   S    
O6    Zn2   S    
C8    C11   S    
C40   C41   S    
C44   H14   S    
C9    C11   S    
N3    Zn1   S    
C53   C54   S    
C53   H35   S    
C35   C38   A    
C57   H38   S    
Br2   C37   S    
C55   H41   S    
C7    C13   S    
C26   N2    A    
C8    C10   S    
C58   H46   S    
C26   O2    S    
C50   H21   S    
C3    C49   S    
C50   H20   S    
C46   H9    S    
C6    N1    S    
C1    O1    A    
