data_mof_unit_57026.cif
_audit_creation_date              2013-03-05T16:02:12-0500
_audit_creation_method            fapswitch 2.2
_symmetry_space_group_name_H-M    P1
_symmetry_Int_Tables_number       1
_space_group_crystal_system       triclinic
_cell_length_a                    14.007958
_cell_length_b                    13.524248
_cell_length_c                    14.907872
_cell_angle_alpha                 89.52263
_cell_angle_beta                  89.269483
_cell_angle_gamma                 81.189696
_cell_volume                      2790.64431475

loop_
_atom_site_label
_atom_site_type_symbol
_atom_site_description
_atom_site_fract_x
_atom_site_fract_y
_atom_site_fract_z
_atom_type_partial_charge
O1    O     O_R   0.580280 0.500020 0.367860 -0.620187
O2    O     O_R   0.419720 0.499980 0.632140 -0.606660
O3    O     O_R   0.419730 0.500030 0.367840 -0.609124
O4    O     O_R   0.580270 0.499970 0.632160 -0.625563
C1    C     C_R   0.500623 0.500691 0.326744 0.972136
C2    C     C_R   0.499546 0.499591 0.673117 0.978747
O5    O     O_R   0.591830 0.359650 0.500030 -0.611404
O6    O     O_R   0.408170 0.640350 0.499970 -0.605077
O7    O     O_R   0.431280 0.359660 0.500010 -0.589232
O8    O     O_R   0.568720 0.640340 0.499990 -0.595347
C3    C     C_R   0.518690 0.313669 0.499001 0.956292
C4    C     C_R   0.481293 0.686257 0.499947 0.955513
Zn1   Zn    Zn3+2 0.607200 0.499990 0.500020 0.967917
Zn2   Zn    Zn3+2 0.392800 0.500010 0.499980 0.983412
C5    C     C_1   0.464308 0.790788 0.501535 -0.115219
C6    C     C_1   0.535416 0.208950 0.498120 -0.123298
C7    C     C_2   0.456493 0.983507 0.505582 -0.021516
C8    C     C_2   0.543028 0.015905 0.497931 -0.020770
C9    C     C_1   0.544329 0.120360 0.497799 -0.023843
C10   C     C_1   0.455088 0.879260 0.503529 -0.015242
C11   C     C_R   0.513043 0.406534 0.813308 0.049982
C12   C     C_R   0.523910 0.586659 0.186107 0.057286
C13   C     C_R   0.499888 0.498638 0.768581 -0.137262
C14   C     C_R   0.503988 0.500688 0.231063 -0.142738
C15   C     C_R   0.497536 0.589543 0.813008 0.038058
C16   C     C_R   0.496795 0.411668 0.186252 0.035602
C17   C     C_R   0.519914 0.588154 0.904565 0.028303
C18   C     C_R   0.518833 0.405594 0.094217 0.023250
C19   C     C_R   0.522783 0.496411 0.952359 -0.006567
C20   C     C_R   0.524147 0.495861 0.046395 -0.007662
C21   C     C_R   0.521181 0.405527 0.906432 0.083886
C22   C     C_R   0.528129 0.586057 0.092493 0.082224
C23   C     C_R   0.537778 0.674516 0.950802 -0.005824
C24   C     C_R   0.533562 0.313685 0.047467 -0.003554
C25   C     C_R   0.539031 0.672798 0.044088 -0.261142
C26   C     C_R   0.531655 0.315238 0.954310 -0.259762
H1    H     H_    0.551363 0.739924 0.077882 0.178966
H2    H     H_    0.541721 0.244318 0.920032 0.179133
C27   C     C_R   0.800763 0.472635 0.575704 -0.057208
C28   C     C_R   0.199399 0.525264 0.423969 -0.040771
N1    N     N_R   0.750030 0.500040 0.500070 -0.109144
N2    N     N_R   0.249970 0.499960 0.499930 -0.108559
C29   C     C_R   0.794810 0.527258 0.424367 -0.034611
C30   C     C_R   0.205131 0.474098 0.576042 -0.027951
C31   C     C_R   0.895908 0.526203 0.421295 -0.052405
C32   C     C_R   0.104292 0.472689 0.578759 -0.048423
C33   C     C_R   0.949462 0.499646 0.500125 0.047620
C34   C     C_R   0.050653 0.498884 0.500008 0.045431
C35   C     C_R   0.901520 0.473345 0.578904 -0.045004
C36   C     C_R   0.098634 0.524544 0.421118 -0.046968
C37   C     C_R   0.944219 0.550322 0.341693 -0.057959
C38   C     C_R   0.056293 0.447097 0.658063 -0.055721
C39   C     C_R   0.045601 0.548839 0.341562 -0.053646
C40   C     C_R   0.954986 0.447296 0.658138 -0.055071
H3    H     H_    0.761801 0.450047 0.633348 0.168028
H4    H     H_    0.238454 0.546582 0.365872 0.170699
H5    H     H_    0.750966 0.549258 0.366358 0.173961
H6    H     H_    0.248905 0.455062 0.634533 0.170678
C41   C     C_R   0.636980 0.947939 0.488152 0.147042
C42   C     C_R   0.697669 0.958934 0.414215 -0.132635
C43   C     C_R   0.784136 0.893219 0.402365 -0.147515
C44   C     C_R   0.811065 0.816336 0.464509 -0.100329
C45   C     C_R   0.752224 0.806031 0.539348 -0.111200
C46   C     C_R   0.666004 0.872067 0.551723 -0.145933
H7    H     H_    0.677225 0.017539 0.365195 0.134608
H8    H     H_    0.830036 0.901776 0.344765 0.116475
H9    H     H_    0.877682 0.765057 0.454893 0.127606
H10   H     H_    0.773346 0.746793 0.587708 0.129411
H11   H     H_    0.621403 0.863462 0.610280 0.151511
C47   C     C_R   0.362115 0.050822 0.513287 0.131229
C48   C     C_R   0.299689 0.040298 0.586072 -0.118016
C49   C     C_R   0.210678 0.102824 0.593328 -0.158174
C50   C     C_R   0.183348 0.176365 0.528201 -0.136038
C51   C     C_R   0.244399 0.186529 0.454987 -0.095480
C52   C     C_R   0.332882 0.123277 0.446904 -0.121485
H12   H     H_    0.320278 0.984215 0.637433 0.151739
H13   H     H_    0.163097 0.094686 0.649798 0.130595
H14   H     H_    0.114811 0.225309 0.534397 0.132172
H15   H     H_    0.222968 0.243072 0.404274 0.146863
H16   H     H_    0.378599 0.130506 0.388926 0.162941
I1    I     I_    0.512718 0.271160 0.738576 -0.467635
I2    I     I_    0.539679 0.718482 0.261343 -0.449609
I3    I     I_    0.434735 0.723450 0.743156 -0.425964
I4    I     I_    0.432482 0.297965 0.256392 -0.457858
C53   C     C_R   0.569351 0.762563 0.905593 0.160024
C54   C     C_R   0.648736 0.749670 0.845854 -0.138109
C55   C     C_R   0.679565 0.832557 0.804419 -0.151054
C56   C     C_R   0.631774 0.928931 0.822420 -0.092475
C57   C     C_R   0.553497 0.942643 0.882432 -0.114441
C58   C     C_R   0.522652 0.859987 0.924383 -0.144780
H17   H     H_    0.686216 0.675568 0.830993 0.119587
H18   H     H_    0.740403 0.822022 0.758174 0.125971
H19   H     H_    0.655441 0.992985 0.789932 0.144603
H20   H     H_    0.516628 0.017350 0.896316 0.134525
H21   H     H_    0.461614 0.871684 0.970438 0.128574
C59   C     C_R   0.567153 0.215645 0.091132 0.164059
C60   C     C_R   0.649562 0.203461 0.145415 -0.122778
C61   C     C_R   0.683697 0.110198 0.183725 -0.150617
C62   C     C_R   0.636217 0.028416 0.168007 -0.107692
C63   C     C_R   0.554595 0.039690 0.113798 -0.104679
C64   C     C_R   0.520434 0.132653 0.074909 -0.148128
H22   H     H_    0.687596 0.265968 0.157493 0.122053
H23   H     H_    0.747196 0.101256 0.225387 0.123605
H24   H     H_    0.662773 0.956248 0.197666 0.137678
H25   H     H_    0.517927 0.976288 0.101786 0.134889
H26   H     H_    0.457200 0.140282 0.032866 0.124777
C65   C     C_R   0.889702 0.573789 0.257533 0.120524
C66   C     C_R   0.864440 0.496233 0.205038 -0.157347
C67   C     C_R   0.812046 0.518466 0.126260 -0.122473
C68   C     C_R   0.785083 0.618020 0.099389 -0.089678
C69   C     C_R   0.809272 0.695545 0.151839 -0.108915
C70   C     C_R   0.861294 0.673600 0.230825 -0.132521
H27   H     H_    0.885151 0.418898 0.225303 0.126190
H28   H     H_    0.792417 0.458586 0.086039 0.123270
H29   H     H_    0.745414 0.635149 0.038019 0.126061
H30   H     H_    0.787662 0.772613 0.131297 0.127556
H31   H     H_    0.879585 0.734075 0.271058 0.112568
C71   C     C_R   0.111374 0.423238 0.741986 0.110097
C72   C     C_R   0.173370 0.331899 0.751185 -0.180025
C73   C     C_R   0.229724 0.312149 0.827846 -0.098464
C74   C     C_R   0.224126 0.383232 0.895952 -0.102544
C75   C     C_R   0.161469 0.473784 0.887791 -0.128831
C76   C     C_R   0.105198 0.493880 0.811060 -0.117295
H32   H     H_    0.179174 0.277112 0.698344 0.142092
H33   H     H_    0.278278 0.242095 0.834136 0.147763
H34   H     H_    0.268533 0.368096 0.954801 0.128849
H35   H     H_    0.156987 0.528808 0.940483 0.138563
H36   H     H_    0.057941 0.564836 0.804820 0.127180
C77   C     C_R   0.097406 0.568832 0.257475 0.113624
C78   C     C_R   0.102803 0.667569 0.230570 -0.151379
C79   C     C_R   0.160905 0.686030 0.157169 -0.119814
C80   C     C_R   0.214738 0.606190 0.111065 -0.119735
C81   C     C_R   0.209466 0.507720 0.137506 -0.120595
C82   C     C_R   0.150613 0.488916 0.210152 -0.138777
H37   H     H_    0.063988 0.729954 0.267696 0.120172
H38   H     H_    0.165492 0.762253 0.136973 0.134408
H39   H     H_    0.260907 0.620587 0.055192 0.139517
H40   H     H_    0.252038 0.446006 0.102565 0.143107
H41   H     H_    0.148700 0.412403 0.231331 0.137504
C83   C     C_R   0.905532 0.418310 0.740914 0.121500
C84   C     C_R   0.845829 0.490899 0.791397 -0.175773
C85   C     C_R   0.795530 0.462488 0.866661 -0.126713
C86   C     C_R   0.804937 0.361843 0.892178 -0.095300
C87   C     C_R   0.865147 0.289444 0.842822 -0.122305
C88   C     C_R   0.915369 0.317440 0.767388 -0.131639
H42   H     H_    0.837557 0.568964 0.771671 0.119196
H43   H     H_    0.748875 0.518208 0.905061 0.120229
H44   H     H_    0.765508 0.339968 0.950121 0.123776
H45   H     H_    0.872411 0.211519 0.862687 0.129027
H46   H     H_    0.960958 0.260615 0.729003 0.120743

loop_
_geom_bond_atom_site_label_1
_geom_bond_atom_site_label_2
_geom_bond_distance
_ccdc_geom_bond_type
C55   C56   1.397480 A    
C17   C19   1.421080 A    
C65   C70   1.403410 A    
C75   H35   1.081171 S    
C69   C70   1.398384 A    
Zn1   N1    2.000869 S    
C60   C61   1.398551 A    
C58   H21   1.082997 S    
C33   C35   1.415244 A    
C72   H32   1.079728 S    
C17   C23   1.417498 A    
O5    C3    1.277628 A    
C11   C21   1.394184 A    
C41   C46   1.407897 A    
C87   H45   1.082321 S    
C12   C22   1.396110 A    
C44   H9    1.082728 S    
O1    C1    1.278714 A    
C12   I2    2.155338 S    
C25   H1    1.079679 S    
C14   C16   1.399340 A    
C54   H17   1.081039 S    
C21   C26   1.398328 A    
C48   H12   1.083358 S    
C31   C37   1.418915 A    
C86   C87   1.398091 A    
C32   C38   1.419085 A    
O4    Zn1   2.000998 S    
C7    C10   1.413603 S    
C66   C67   1.398855 A    
C5    C10   1.184225 T    
C8    C9    1.415569 S    
C50   C51   1.396872 A    
C39   C77   1.484053 S    
C57   H20   1.082276 S    
C23   C53   1.485978 S    
C71   C72   1.403767 A    
C49   H13   1.082436 S    
C68   C69   1.398117 A    
C43   H8    1.082224 S    
C27   H3    1.079071 S    
C78   H37   1.083238 S    
C30   C32   1.415645 A    
C80   C81   1.398210 A    
C28   H4    1.079174 S    
C16   I4    2.154808 S    
C50   H14   1.082824 S    
C47   C48   1.404868 A    
C52   H16   1.081852 S    
C60   H22   1.083451 S    
Zn2   N2    2.000871 S    
C34   C36   1.414143 A    
C62   H24   1.082722 S    
C18   C24   1.416184 A    
C41   C42   1.404235 A    
C35   C40   1.419538 A    
C55   H18   1.082281 S    
N1    C29   1.359552 A    
O2    C2    1.280282 A    
N2    C30   1.358981 A    
C38   C40   1.418687 A    
C31   C33   1.416241 A    
C86   H44   1.082762 S    
C32   C34   1.415057 A    
C36   C39   1.416918 A    
C51   C52   1.398453 A    
C22   C25   1.399365 A    
C59   C64   1.407183 A    
C83   C84   1.405106 A    
C49   C50   1.398277 A    
C27   N1    1.358883 A    
C79   H38   1.082617 S    
C30   H6    1.078968 S    
C82   H41   1.083524 S    
C73   H33   1.082471 S    
C40   C83   1.486503 S    
C80   H39   1.082646 S    
C53   C54   1.406445 A    
C45   C46   1.398918 A    
C42   C43   1.398415 A    
C37   C39   1.417206 A    
C66   H27   1.083214 S    
O7    Zn2   1.892093 S    
C19   C20   1.402184 A    
O7    C3    1.285589 A    
C3    C6    1.399798 S    
C33   C34   1.415922 A    
C4    C5    1.397531 S    
O6    C4    1.276508 A    
C59   C60   1.406390 A    
C44   C45   1.397393 A    
C7    C8    1.353770 D    
C63   H25   1.082108 S    
C46   H11   1.082877 S    
C72   C73   1.397832 A    
C81   H40   1.081865 S    
C29   C31   1.414220 A    
C74   C75   1.398540 A    
C69   H30   1.082673 S    
O3    Zn2   2.000998 S    
O8    C4    1.285493 A    
C67   H28   1.082351 S    
C84   H42   1.082955 S    
O4    C2    1.278915 A    
C27   C35   1.414320 A    
C11   I1    2.151713 S    
C42   H7    1.081848 S    
C51   H15   1.082729 S    
C11   C13   1.396114 A    
C81   C82   1.397888 A    
C12   C14   1.400194 A    
O1    Zn1   2.010689 S    
C65   C66   1.404386 A    
C79   C80   1.398815 A    
C73   C74   1.397270 A    
C77   C78   1.403919 A    
C64   H26   1.083125 S    
C56   H19   1.082506 S    
O6    Zn2   1.942654 S    
C54   C55   1.398064 A    
C85   H43   1.081427 S    
C88   H46   1.083308 S    
C24   C59   1.485094 S    
C87   C88   1.399023 A    
O3    C1    1.282485 A    
O8    Zn1   1.892093 S    
C83   C88   1.403780 A    
C53   C58   1.407071 A    
C15   C17   1.403665 A    
C45   H10   1.082749 S    
C16   C18   1.402806 A    
C62   C63   1.397027 A    
C18   C20   1.419914 A    
C78   C79   1.398967 A    
C57   C58   1.398878 A    
C74   H34   1.081864 S    
C19   C21   1.415248 A    
C84   C85   1.399499 A    
C26   H2    1.079746 S    
C20   C22   1.413916 A    
C76   H36   1.083165 S    
C70   H31   1.081953 S    
C1    C14   1.426569 S    
C6    C9    1.185469 T    
C28   C36   1.414217 A    
C2    C13   1.423186 S    
C28   N2    1.356855 A    
C63   C64   1.398732 A    
C23   C25   1.390974 A    
C24   C26   1.389294 A    
C71   C76   1.403357 A    
C13   C15   1.397072 A    
C43   C44   1.398007 A    
O2    Zn2   2.010687 S    
C29   H5    1.080225 S    
C77   C82   1.404940 A    
C8    C41   1.491638 S    
O5    Zn1   1.942654 S    
C48   C49   1.398773 A    
C56   C57   1.397333 A    
C37   C65   1.483777 S    
C61   C62   1.397934 A    
C47   C52   1.406600 A    
C15   I3    2.154511 S    
C85   C86   1.397326 A    
C75   C76   1.398521 A    
C67   C68   1.398207 A    
C7    C47   1.489623 S    
C68   H29   1.081424 S    
C61   H23   1.082339 S    
C38   C71   1.485372 S    
