data_mof_unit_31569.cif
_audit_creation_date              2012-12-11T15:27:03-0500
_audit_creation_method            fapswitch 2.2
_symmetry_space_group_name_H-M    P1
_symmetry_Int_Tables_number       1
_space_group_crystal_system       triclinic
_cell_length_a                    13.834253
_cell_length_b                    13.965346
_cell_length_c                    27.45394
_cell_angle_alpha                 89.757574
_cell_angle_beta                  90.24378
_cell_angle_gamma                 119.756747
_cell_volume                      4604.65210528

loop_
_atom_site_label
_atom_site_type_symbol
_atom_type_description
_atom_site_fract_x
_atom_site_fract_y
_atom_site_fract_z
_atom_type_partial_charge
C1    C     C_R   0.234150 0.786750 0.568657 0.543021
C2    C     C_R   0.212741 0.446809 0.568595 0.544629
C3    C     C_R   0.552587 0.765106 0.568820 0.541711
C4    C     C_3   0.654297 0.730209 0.790818 0.135342
C5    C     C_3   0.252136 0.950421 0.784208 0.137269
C6    C     C_3   0.046008 0.306125 0.784620 0.136511
C7    C     C_3   0.635968 0.715444 0.734376 -0.062647
C8    C     C_3   0.272492 0.934151 0.729600 -0.062950
C9    C     C_3   0.060366 0.339090 0.729354 -0.062753
C10   C     C_1   0.704982 0.862604 0.859077 -0.009228
C11   C     C_1   0.116277 0.877467 0.851973 -0.012315
C12   C     C_1   0.116161 0.235725 0.851543 -0.014774
C13   C     C_1   0.627073 0.812000 0.658663 -0.083146
C14   C     C_1   0.180597 0.816571 0.656613 -0.082826
C15   C     C_1   0.178750 0.362380 0.656407 -0.085123
C16   C     C_1   0.600016 0.795060 0.616485 -0.019523
C17   C     C_1   0.200785 0.804114 0.615358 -0.020475
C18   C     C_1   0.193837 0.395569 0.615199 -0.019853
C19   C     C_R   0.070571 0.162698 0.941670 0.535650
C20   C     C_R   0.779803 0.887244 0.948905 0.549015
C21   C     C_R   0.091745 0.928034 0.941627 0.530124
C22   C     C_R   0.597007 0.799281 0.382277 -0.010829
C23   C     C_R   0.198263 0.802179 0.383388 -0.016842
C24   C     C_R   0.184738 0.384055 0.385665 -0.012780
C25   C     C_R   0.546414 0.842666 0.351843 -0.128629
C26   C     C_R   0.133555 0.708335 0.355077 -0.120946
C27   C     C_R   0.234265 0.321653 0.372731 -0.139256
C28   C     C_R   0.570900 0.857430 0.302802 -0.160875
C29   C     C_R   0.124177 0.718490 0.305579 -0.144709
C30   C     C_R   0.209043 0.268063 0.327804 -0.143743
C31   C     C_R   0.648718 0.832049 0.283406 0.035685
C32   C     C_R   0.175221 0.822888 0.283704 0.046531
C33   C     C_R   0.136105 0.278243 0.295006 0.033530
C34   C     C_R   0.233564 0.786917 0.431313 0.537831
C35   C     C_R   0.212039 0.446648 0.431125 0.543184
C36   C     C_R   0.552194 0.765651 0.431063 0.541007
C37   C     C_R   0.705542 0.795069 0.314410 0.246435
C38   C     C_R   0.232942 0.918340 0.312628 0.253276
C39   C     C_R   0.087605 0.342475 0.308013 0.234198
C40   C     C_R   0.677304 0.776457 0.363678 -0.082571
C41   C     C_R   0.245459 0.907261 0.362321 -0.083557
C42   C     C_R   0.110460 0.392550 0.353295 -0.078023
C43   C     C_R   0.658400 0.753126 0.204418 -0.078876
C44   C     C_R   0.255533 0.894332 0.201829 -0.081230
C45   C     C_R   0.013131 0.171575 0.225883 -0.041125
C46   C     C_R   0.683145 0.765382 0.155358 -0.133769
C47   C     C_R   0.239860 0.907806 0.152983 -0.132883
C48   C     C_R   0.000268 0.148080 0.176532 -0.126894
C49   C     C_R   0.703739 0.949874 0.155890 -0.021854
C50   C     C_R   0.042341 0.769963 0.160036 -0.010443
C51   C     C_R   0.200257 0.222244 0.168181 0.005028
C52   C     C_R   0.681783 0.936524 0.206179 -0.104061
C53   C     C_R   0.058538 0.764701 0.209978 -0.068564
C54   C     C_R   0.212188 0.253475 0.217487 -0.061260
C55   C     C_R   0.665667 0.841540 0.230654 0.050291
C56   C     C_R   0.163472 0.828703 0.231054 0.054356
C57   C     C_R   0.119711 0.231165 0.245840 0.064254
C58   C     C_R   0.715245 0.865927 0.131602 0.020526
C59   C     C_R   0.132851 0.851702 0.132443 0.021291
C60   C     C_R   0.092199 0.177756 0.146440 0.017616
C61   C     C_R   0.068303 0.154135 0.093795 0.563005
C62   C     C_R   0.777021 0.884847 0.085789 0.543742
C63   C     C_R   0.115351 0.893118 0.086050 0.557546
C64   C     C_3   0.562561 0.849092 0.736165 -0.226148
C65   C     C_3   0.140756 0.729425 0.738129 -0.225712
C66   C     C_3   0.266281 0.405478 0.737632 -0.221915
C67   C     C_3   0.766469 0.921871 0.722584 -0.231156
C68   C     C_3   0.063873 0.852048 0.714001 -0.230400
C69   C     C_3   0.136566 0.209328 0.713571 -0.229662
C70   C     C_3   0.787362 0.932864 0.778304 -0.268137
C71   C     C_3   0.046094 0.867226 0.768428 -0.271794
C72   C     C_3   0.115978 0.174238 0.767730 -0.270469
C73   C     C_1   0.733222 0.873373 0.901134 0.018219
C74   C     C_1   0.104416 0.898556 0.893212 0.019207
C75   C     C_1   0.097789 0.203421 0.892954 0.014961
C76   C     C_3   0.648936 0.824273 0.711446 0.041635
C77   C     C_3   0.164800 0.833736 0.708079 0.038569
C78   C     C_3   0.159698 0.328931 0.707776 0.037241
C79   C     C_3   0.584680 0.867428 0.791722 -0.181801
C80   C     C_3   0.122090 0.744396 0.792683 -0.182336
C81   C     C_3   0.251968 0.368828 0.791723 -0.174258
C82   C     C_3   0.681799 0.848150 0.806467 0.059997
C83   C     C_3   0.134199 0.859607 0.800818 0.059806
C84   C     C_3   0.132723 0.271570 0.800404 0.057394
Cr1   Cr    Cr6+3 0.164410 0.584450 0.499910 1.027565
Cr2   Cr    Cr6+3 0.415550 0.579960 0.499910 1.030253
Cr3   Cr    Cr6+3 0.420040 0.835590 0.499910 1.026548
Cr4   Cr    Cr6+3 0.156760 0.076070 0.017830 1.025876
Cr5   Cr    Cr6+3 0.923930 0.080690 0.017830 1.015074
Cr6   Cr    Cr6+3 0.919310 0.843240 0.017830 1.013427
H1    H     H_    0.605939 0.953172 0.801098 0.150052
H2    H     H_    0.037436 0.678889 0.803814 0.141472
H3    H     H_    0.314107 0.343088 0.801161 0.140801
H4    H     H_    0.476695 0.779351 0.729983 0.129592
H5    H     H_    0.211614 0.713309 0.734851 0.130744
H6    H     H_    0.283962 0.492325 0.735384 0.140077
H7    H     H_    0.507780 0.811024 0.812152 0.209642
H8    H     H_    0.182765 0.734039 0.815591 0.205979
H9    H     H_    0.269274 0.439687 0.815630 0.221043
H10   H     H_    0.725750 0.719469 0.802106 0.133116
H11   H     H_    0.256791 0.031520 0.789311 0.126310
H12   H     H_    0.961611 0.234561 0.791438 0.128319
H13   H     H_    0.482321 0.858782 0.365310 0.153261
H14   H     H_    0.096840 0.626150 0.370393 0.150566
H15   H     H_    0.292237 0.314708 0.397119 0.141358
H16   H     H_    0.637563 0.675917 0.222260 0.149082
H17   H     H_    0.338538 0.939030 0.217207 0.149650
H18   H     H_    0.940004 0.148416 0.247953 0.157838
H19   H     H_    0.683935 0.698029 0.136596 0.121585
H20   H     H_    0.310598 0.966219 0.131727 0.120018
H21   H     H_    0.917808 0.106312 0.161660 0.115755
H22   H     H_    0.525754 0.884963 0.279652 0.121140
H23   H     H_    0.079512 0.644068 0.284090 0.158293
H24   H     H_    0.248448 0.220684 0.318156 0.193339
H25   H     H_    0.678654 0.999973 0.227282 0.111478
H26   H     H_    0.989108 0.713140 0.233342 0.152421
H27   H     H_    0.293612 0.298210 0.234127 0.117991
H28   H     H_    0.566427 0.923839 0.719601 0.119596
H29   H     H_    0.065676 0.655656 0.723496 0.123405
H30   H     H_    0.339735 0.403845 0.722183 0.120818
H31   H     H_    0.717017 0.743682 0.387241 0.156002
H32   H     H_    0.294792 0.980237 0.384133 0.159348
H33   H     H_    0.073498 0.442787 0.362200 0.155930
H34   H     H_    0.831882 0.911270 0.704106 0.112387
H35   H     H_    0.075732 0.924936 0.692703 0.113989
H36   H     H_    0.064129 0.151136 0.691100 0.113277
H37   H     H_    0.772929 0.999145 0.708071 0.116966
H38   H     H_    0.987832 0.779769 0.699233 0.119521
H39   H     H_    0.209600 0.204914 0.700082 0.117468
H40   H     H_    0.811884 0.018349 0.789766 0.117166
H41   H     H_    0.960956 0.802945 0.779623 0.114585
H42   H     H_    0.174161 0.145039 0.779156 0.111692
H43   H     H_    0.858200 0.919338 0.787156 0.094682
H44   H     H_    0.051163 0.948203 0.773500 0.095486
H45   H     H_    0.029633 0.104449 0.771983 0.096297
H46   H     H_    0.549058 0.648988 0.726746 0.169834
H47   H     H_    0.339967 0.912705 0.727427 0.168528
H48   H     H_    0.082923 0.427297 0.725733 0.170368
O1    O     O_R   0.137310 0.468260 0.552980 -0.509807
O2    O     O_R   0.531740 0.669050 0.552980 -0.510967
O3    O     O_R   0.330950 0.862690 0.552980 -0.510462
O4    O     O_R   0.180530 0.983530 0.965090 -0.476843
O5    O     O_R   0.016470 0.197000 0.965090 -0.457881
O6    O     O_R   0.803000 0.819470 0.965090 -0.498538
O7    O     O_R   0.174120 0.688790 0.549730 -0.497209
O8    O     O_R   0.311210 0.485330 0.549730 -0.499566
O9    O     O_R   0.514670 0.825880 0.549730 -0.496465
O10   O     O_R   0.139940 0.470480 0.446230 -0.523415
O11   O     O_R   0.529520 0.669460 0.446230 -0.508124
O12   O     O_R   0.330540 0.860060 0.446230 -0.520448
O13   O     O_R   0.176560 0.690850 0.450770 -0.502772
O14   O     O_R   0.309150 0.485710 0.450770 -0.494915
O15   O     O_R   0.514290 0.823440 0.450770 -0.500489
O16   O     O_3   0.333333 0.666667 0.499990 -0.271391
O17   O     O_3   0.000000 1.000000 0.017910 -0.291935
O18   O     O_R   0.149710 0.171070 0.967700 -0.485449
O19   O     O_R   0.828930 0.978640 0.967700 -0.522996
O20   O     O_R   0.021360 0.850290 0.967700 -0.479137
O21   O     O_R   0.178510 0.985930 0.071830 -0.537181
O22   O     O_R   0.014070 0.192580 0.071830 -0.491441
O23   O     O_R   0.807420 0.821490 0.071830 -0.526818
O24   O     O_R   0.147830 0.173300 0.066650 -0.497322
O25   O     O_R   0.826700 0.974530 0.066650 -0.532439
O26   O     O_R   0.025470 0.852170 0.066650 -0.504269
C85   C     C_3   0.712921 0.050283 0.128681 -0.265903
C86   C     C_3   0.714425 0.141149 0.160712 -0.318019
C87   C     C_3   0.745274 0.244993 0.131055 -0.444316
H49   H     H_    0.828223 0.276735 0.113847 0.179764
H50   H     H_    0.681977 0.227653 0.102317 0.151181
H51   H     H_    0.749970 0.309671 0.155778 0.161590
H52   H     H_    0.631271 0.111174 0.177512 0.164703
H53   H     H_    0.778171 0.164690 0.189895 0.192922
H54   H     H_    0.790846 0.092043 0.107709 0.186557
H55   H     H_    0.642757 0.021028 0.102341 0.149851
C88   C     C_3   0.929093 0.694241 0.137081 -0.240526
C89   C     C_3   0.849314 0.592733 0.167355 -0.320682
C90   C     C_3   0.749659 0.511712 0.137000 -0.462701
H56   H     H_    0.708749 0.553304 0.118879 0.155790
H57   H     H_    0.776502 0.473435 0.108634 0.159062
H58   H     H_    0.688272 0.446511 0.161277 0.151235
H59   H     H_    0.893250 0.549494 0.181101 0.192514
H60   H     H_    0.817658 0.619060 0.198767 0.197161
H61   H     H_    0.887320 0.742997 0.130032 0.193168
H62   H     H_    0.943281 0.663752 0.101967 0.167512
C91   C     C_3   0.300629 0.235551 0.139715 -0.242658
C92   C     C_3   0.402436 0.256405 0.170401 -0.321470
C93   C     C_3   0.487288 0.243905 0.139948 -0.463347
H63   H     H_    0.449255 0.160705 0.123294 0.155398
H64   H     H_    0.520988 0.307349 0.110718 0.158395
H65   H     H_    0.556060 0.253982 0.164075 0.154114
H66   H     H_    0.443471 0.341279 0.185608 0.161811
H67   H     H_    0.375906 0.195664 0.200719 0.227216
H68   H     H_    0.274486 0.157065 0.120412 0.195527
H69   H     H_    0.326041 0.303186 0.112631 0.170230
Cl1   Cl    Cl    0.813697 0.773763 0.293416 -0.649768
Cl2   Cl    Cl    0.289568 0.052494 0.288585 -0.708974
Cl3   Cl    Cl    0.007150 0.372946 0.267393 -0.673882
C94   C     C_3   0.714691 0.678793 0.711221 -0.290943
C95   C     C_3   0.682462 0.560085 0.725368 -0.298630
C96   C     C_3   0.766986 0.529719 0.706067 -0.458880
H70   H     H_    0.770636 0.534822 0.665675 0.158114
H71   H     H_    0.850830 0.585759 0.721411 0.150465
H72   H     H_    0.742195 0.444283 0.717322 0.147727
H73   H     H_    0.678460 0.550067 0.765567 0.205057
H74   H     H_    0.598930 0.502127 0.710151 0.164215
H75   H     H_    0.711875 0.682858 0.670869 0.161697
H76   H     H_    0.801689 0.735577 0.722823 0.134877
C97   C     C_3   0.312775 0.042128 0.699852 -0.289376
C98   C     C_3   0.428573 0.133918 0.715717 -0.295816
C99   C     C_3   0.465783 0.237699 0.684990 -0.459790
H77   H     H_    0.473297 0.220622 0.646128 0.161190
H78   H     H_    0.405516 0.267918 0.688251 0.147988
H79   H     H_    0.547911 0.303559 0.698020 0.142938
H80   H     H_    0.427725 0.155602 0.754508 0.200907
H81   H     H_    0.489944 0.105119 0.711582 0.171273
H82   H     H_    0.317332 0.026300 0.660562 0.164629
H83   H     H_    0.252181 0.071314 0.703872 0.133466
C100  C     C_3   0.949823 0.269995 0.700858 -0.288805
C101  C     C_3   0.861542 0.301589 0.713952 -0.300658
C102  C     C_3   0.753301 0.230179 0.686283 -0.456120
H84   H     H_    0.767655 0.240946 0.646368 0.161945
H85   H     H_    0.718851 0.141891 0.695945 0.147912
H86   H     H_    0.691275 0.254818 0.696222 0.144194
H87   H     H_    0.843586 0.290756 0.753599 0.199894
H88   H     H_    0.892875 0.389612 0.704493 0.167302
H89   H     H_    0.964939 0.282642 0.661048 0.164575
H90   H     H_    0.916513 0.181037 0.708458 0.133738
Cl4   Cl    Cl    0.535137 0.624666 0.822432 -0.676977
Cl5   Cl    Cl    0.360483 0.953821 0.821874 -0.672316
Cl6   Cl    Cl    0.055042 0.416678 0.821252 -0.654495

loop_
_geom_bond_atom_site_label_1
_geom_bond_atom_site_label_2
_ccdc_geom_bond_type
C9    C100  S    
C58   C62   S    
C15   C18   T    
C86   H53   S    
C85   C86   S    
C2    C18   S    
C53   H26   S    
C24   C42   A    
C21   O20   A    
C20   O6    A    
C1    O7    A    
C24   C27   A    
C63   O21   A    
C91   H69   S    
C67   H34   S    
C81   C84   S    
C6    C9    S    
C102  H85   S    
C34   O12   A    
C100  C101  S    
C87   H50   S    
C28   H22   S    
C25   C28   A    
C3    O9    A    
C40   H31   S    
C45   C57   A    
C33   C39   A    
Cr3   O9    S    
C60   C61   S    
C68   C77   S    
C2    O1    A    
Cr4   O18   S    
C66   H6    S    
Cr1   O7    S    
C21   O4    A    
C37   C40   A    
Cr2   O14   S    
C80   C83   S    
C5    C83   S    
C10   C73   T    
C100  H89   S    
C36   O11   A    
Cr5   O17   S    
C15   C78   S    
C94   H75   S    
C27   H15   S    
C85   H54   S    
C95   H74   S    
C64   H28   S    
C12   C84   S    
C45   H18   S    
C8    C97   S    
Cr4   O21   S    
C92   H66   S    
C23   C26   A    
C93   H65   S    
C29   H23   S    
C26   H14   S    
C101  H87   S    
C1    O3    A    
C88   C89   S    
C96   H70   S    
C90   H57   S    
Cr3   O12   S    
C36   O15   A    
C70   H43   S    
C19   O5    A    
Cr3   O15   S    
C48   C60   A    
C94   C95   S    
C32   C38   A    
C87   H51   S    
C68   H38   S    
C79   H1    S    
C52   C55   A    
Cr2   O2    S    
C9    C78   S    
Cr1   O16   S    
C49   C52   A    
C4    Cl4   S    
C39   Cl3   S    
C69   H39   S    
C95   C96   S    
C97   H82   S    
C65   C80   S    
C66   H30   S    
C46   C58   A    
C27   C30   A    
C32   C56   S    
C19   O18   A    
C14   C17   T    
C69   C78   S    
C63   O26   A    
C71   H44   S    
C4    C7    S    
Cr2   O8    S    
Cr4   O4    S    
C102  H84   S    
C42   H33   S    
C72   H42   S    
C39   C42   A    
C71   C83   S    
C65   H29   S    
C89   H59   S    
C66   C78   S    
C5    H11   S    
C24   C35   S    
C6    C84   S    
Cr6   O23   S    
C61   O24   A    
C50   C53   A    
Cr4   O17   S    
C65   C77   S    
C38   C41   A    
Cr2   O11   S    
C101  C102  S    
C14   C77   S    
C97   C98   S    
C72   H45   S    
C81   H9    S    
C11   C83   S    
C85   H55   S    
Cr5   O5    S    
C47   C59   A    
C21   C74   S    
C10   C82   S    
C101  H88   S    
C49   C58   A    
C31   C37   A    
Cr6   O26   S    
C8    H47   S    
C45   C48   A    
C43   H16   S    
C41   H32   S    
C80   H2    S    
C69   C72   S    
C89   H60   S    
Cr1   O13   S    
C49   C85   S    
C51   C91   S    
C67   H37   S    
C5    C8    S    
C81   H3    S    
C9    H48   S    
C44   C56   A    
C62   O25   A    
C13   C76   S    
C23   C34   S    
C22   C40   A    
C44   H17   S    
C98   C99   S    
C64   C76   S    
Cr3   O16   S    
C98   H81   S    
Cr3   O3    S    
C72   C84   S    
C86   H52   S    
C92   C93   S    
C43   C55   A    
C89   C90   S    
C22   C25   A    
C69   H36   S    
C99   H77   S    
C99   H78   S    
C20   O19   A    
C6    Cl6   S    
C95   H73   S    
C64   C79   S    
C5    Cl5   S    
C61   O22   A    
C51   C60   A    
C35   O14   A    
C50   C59   A    
C47   H20   S    
C70   H40   S    
C37   Cl1   S    
C100  H90   S    
C87   H49   S    
Cr1   O10   S    
Cr5   O22   S    
C88   H61   S    
C30   H24   S    
C52   H25   S    
C97   H83   S    
Cr1   O1    S    
C33   C57   S    
C30   C33   A    
C80   H8    S    
C94   H76   S    
C59   C63   S    
C79   H7    S    
C28   C31   A    
C25   H13   S    
C91   H68   S    
C90   H58   S    
C11   C74   T    
C79   C82   S    
C34   O13   A    
C44   C47   A    
C13   C16   T    
Cr5   O19   S    
C7    C76   S    
C3    O2    A    
C2    O8    A    
C99   H79   S    
C22   C36   S    
C1    C17   S    
C98   H80   S    
C23   C41   A    
C96   H72   S    
C67   C70   S    
C51   C54   A    
C7    C94   S    
C4    H10   S    
Cr2   O16   S    
C64   H4    S    
C7    H46   S    
C66   C81   S    
C91   C92   S    
C8    C77   S    
C86   C87   S    
C68   C71   S    
Cr4   O24   S    
C19   C75   S    
C38   Cl2   S    
C20   C73   S    
C35   O10   A    
C6    H12   S    
C92   H67   S    
C70   C82   S    
C43   C46   A    
C53   C56   A    
C93   H64   S    
C29   C32   A    
C12   C75   T    
C71   H41   S    
C62   O23   A    
C65   H5    S    
C48   H21   S    
C4    C82   S    
Cr6   O20   S    
C26   C29   A    
C96   H71   S    
C90   H56   S    
C54   H27   S    
C46   H19   S    
C50   C88   S    
C93   H63   S    
C67   C76   S    
C31   C55   S    
Cr6   O17   S    
C68   H35   S    
Cr5   O25   S    
C102  H86   S    
Cr6   O6    S    
C3    C16   S    
C88   H62   S    
C54   C57   A    
