data_mof_unit_30251.cif
_audit_creation_date              2012-12-11T14:04:01-0500
_audit_creation_method            fapswitch 2.2
_symmetry_space_group_name_H-M    P1
_symmetry_Int_Tables_number       1
_space_group_crystal_system       triclinic
_cell_length_a                    19.153365
_cell_length_b                    11.01516
_cell_length_c                    18.700358
_cell_angle_alpha                 90.306061
_cell_angle_beta                  89.295091
_cell_angle_gamma                 89.741338
_cell_volume                      3944.95627665

loop_
_atom_site_label
_atom_site_type_symbol
_atom_type_description
_atom_site_fract_x
_atom_site_fract_y
_atom_site_fract_z
_atom_type_partial_charge
C1    C     C_R   0.239937 0.465823 0.647524 0.560740
C2    C     C_R   0.759586 0.464734 0.351748 0.560648
C3    C     C_R   0.740459 0.964715 0.648190 0.558723
C4    C     C_R   0.260125 0.965914 0.352454 0.563597
C5    C     C_2   0.282544 0.835561 0.534210 -0.118094
C6    C     C_2   0.717644 0.835801 0.465886 -0.124784
C7    C     C_2   0.782361 0.335153 0.533633 -0.125972
C8    C     C_2   0.217531 0.336052 0.465348 -0.116944
C9    C     C_R   0.008550 0.656345 0.422988 -0.026053
C10   C     C_R   0.998493 0.665971 0.572955 -0.023139
C11   C     C_R   0.501201 0.165959 0.427303 -0.024620
C12   C     C_R   0.491221 0.156538 0.577223 -0.024832
C13   C     C_R   0.040660 0.869611 0.419289 -0.122217
C14   C     C_R   0.013004 0.891049 0.565217 -0.106759
C15   C     C_R   0.486074 0.391022 0.436206 -0.107481
C16   C     C_R   0.459021 0.370474 0.582142 -0.120729
C17   C     C_R   0.053190 0.978918 0.454192 0.370398
C18   C     C_R   0.037779 0.990605 0.526846 0.385532
C19   C     C_R   0.461541 0.491105 0.475201 0.383297
C20   C     C_R   0.446585 0.480019 0.547898 0.371558
C21   C     C_R   0.009080 0.774742 0.532897 -0.075785
C22   C     C_R   0.017861 0.767427 0.457875 -0.079114
C23   C     C_R   0.481645 0.267740 0.542938 -0.078340
C24   C     C_R   0.490280 0.274820 0.467932 -0.076551
C25   C     C_R   0.986952 0.554650 0.536313 0.018567
C26   C     C_R   0.008791 0.547390 0.463338 0.019383
C27   C     C_R   0.491180 0.047564 0.536327 0.019847
C28   C     C_R   0.512993 0.054550 0.463394 0.018446
C29   C     C_R   0.960375 0.446932 0.570619 0.051142
C30   C     C_R   0.024897 0.430293 0.432806 0.064388
C31   C     C_R   0.475380 0.930674 0.566257 0.064863
C32   C     C_R   0.539884 0.946533 0.428549 0.049983
C33   C     C_R   0.968821 0.335801 0.535270 0.013367
C34   C     C_R   0.002174 0.327532 0.469485 0.043715
C35   C     C_R   0.498135 0.827612 0.528894 0.045567
C36   C     C_R   0.531490 0.835469 0.463161 0.011964
C37   C     C_2   0.238446 0.898651 0.928534 -0.111810
C38   C     C_2   0.744922 0.928467 0.084088 -0.087931
C39   C     C_2   0.738444 0.398652 0.928535 -0.112151
C40   C     C_2   0.244925 0.428458 0.084086 -0.087956
C41   C     C_2   0.248888 0.895933 0.085090 -0.112629
C42   C     C_2   0.744023 0.939390 0.927282 -0.065901
C43   C     C_2   0.748889 0.395929 0.085090 -0.113137
C44   C     C_2   0.244026 0.439382 0.927279 -0.065774
C45   C     C_R   0.227906 0.875332 0.647998 0.533728
C46   C     C_R   0.772255 0.875289 0.352252 0.531456
C47   C     C_R   0.727787 0.375173 0.647781 0.534520
C48   C     C_R   0.272139 0.375443 0.352045 0.530672
C49   C     C_2   0.189389 0.912794 0.050214 -0.136463
C50   C     C_2   0.771554 0.024137 0.970915 -0.120124
C51   C     C_2   0.689389 0.412782 0.050215 -0.136626
C52   C     C_2   0.271561 0.524124 0.970912 -0.120379
C53   C     C_2   0.184042 0.888402 0.974241 -0.136311
C54   C     C_2   0.784502 0.003476 0.045974 -0.114307
C55   C     C_2   0.684043 0.388390 0.974242 -0.136347
C56   C     C_2   0.284508 0.503460 0.045970 -0.113564
C57   C     C_2   0.990849 0.664933 0.918315 0.409004
C58   C     C_2   0.928622 0.654593 0.066617 0.420397
C59   C     C_2   0.490854 0.164928 0.918319 0.409819
C60   C     C_2   0.428624 0.154592 0.066617 0.419627
C61   C     C_2   0.944398 0.559241 0.024620 -0.111837
C62   C     C_2   0.957644 0.569214 0.947302 -0.100370
C63   C     C_2   0.444397 0.059237 0.024621 -0.111832
C64   C     C_2   0.457647 0.069210 0.947302 -0.100334
C65   C     C_R   0.029669 0.655617 0.644822 0.535322
C66   C     C_R   0.972213 0.653884 0.353689 0.537938
C67   C     C_R   0.527700 0.153894 0.646406 0.530300
C68   C     C_R   0.470226 0.155659 0.355280 0.541606
C69   C     C_R   0.237488 0.471092 0.852689 0.544414
C70   C     C_R   0.761012 0.463195 0.150430 0.543331
C71   C     C_R   0.737486 0.971097 0.852691 0.547454
C72   C     C_R   0.261011 0.963193 0.150432 0.540354
C73   C     C_R   0.225727 0.870853 0.854295 0.538552
C74   C     C_R   0.771781 0.875501 0.148681 0.567799
C75   C     C_R   0.725727 0.370854 0.854296 0.541681
C76   C     C_R   0.271782 0.375498 0.148680 0.564641
C77   C     C_R   0.027815 0.652951 0.850186 0.533129
C78   C     C_R   0.932290 0.646752 0.144289 0.583540
C79   C     C_R   0.527815 0.152950 0.850187 0.533222
C80   C     C_R   0.432291 0.146752 0.144289 0.582345
C81   C     C_2   0.253007 0.919334 0.578666 -0.051634
C82   C     C_2   0.747826 0.919142 0.422325 -0.040921
C83   C     C_2   0.752109 0.418693 0.577854 -0.042619
C84   C     C_2   0.246983 0.419693 0.421570 -0.049945
C85   C     C_2   0.244810 0.901881 0.418160 -0.093839
C86   C     C_2   0.756812 0.900906 0.582262 -0.078463
C87   C     C_2   0.743232 0.401158 0.417420 -0.078052
C88   C     C_2   0.255301 0.401488 0.581586 -0.093561
C89   C     C_2   0.295814 0.856200 0.458445 0.339700
C90   C     C_2   0.706244 0.853342 0.542442 0.325198
C91   C     C_2   0.793749 0.352755 0.457060 0.325276
C92   C     C_2   0.204278 0.356519 0.541145 0.339662
Cr1   Cr    Cr6+3 0.113970 0.508630 0.747920 1.065886
Cr2   Cr    Cr6+3 0.886030 0.508630 0.252080 1.036764
Cr3   Cr    Cr6+3 0.613970 0.008630 0.747920 1.052776
Cr4   Cr    Cr6+3 0.386030 0.008630 0.252080 1.049724
Cr5   Cr    Cr6+3 0.269200 0.666740 0.749850 1.040643
Cr6   Cr    Cr6+3 0.730800 0.666740 0.250150 1.003991
Cr7   Cr    Cr6+3 0.769200 0.166740 0.749850 1.009500
Cr8   Cr    Cr6+3 0.230800 0.166740 0.250150 1.033536
Cr9   Cr    Cr6+3 0.112300 0.820070 0.749800 1.061485
Cr10  Cr    Cr6+3 0.887700 0.820070 0.250200 1.062716
Cr11  Cr    Cr6+3 0.612300 0.320070 0.749800 1.061158
Cr12  Cr    Cr6+3 0.387700 0.320070 0.250200 1.062917
H1    H     H_    0.131933 0.869773 0.954751 0.218648
H2    H     H_    0.830986 0.044476 0.068257 0.172504
H3    H     H_    0.631934 0.369750 0.954752 0.218681
H4    H     H_    0.330995 0.544454 0.068251 0.173037
H5    H     H_    0.292387 0.846612 0.060702 0.096606
H6    H     H_    0.724033 0.853326 0.946485 0.105134
H7    H     H_    0.792389 0.346611 0.060701 0.096375
H8    H     H_    0.224032 0.353320 0.946482 0.105548
H9    H     H_    0.291242 0.916478 0.946114 0.091414
H10   H     H_    0.696432 0.893050 0.062972 0.103503
H11   H     H_    0.791239 0.416492 0.946114 0.091622
H12   H     H_    0.196433 0.393045 0.062971 0.103175
H13   H     H_    0.953856 0.470711 0.048012 0.085599
H14   H     H_    0.952158 0.486186 0.916272 0.078650
H15   H     H_    0.453851 0.970707 0.048012 0.085593
H16   H     H_    0.452157 0.986184 0.916270 0.078165
H17   H     H_    0.297021 0.746519 0.553797 0.177719
H18   H     H_    0.701060 0.748767 0.444819 0.138233
H19   H     H_    0.799216 0.248080 0.554240 0.137488
H20   H     H_    0.203375 0.247014 0.445278 0.177545
H21   H     H_    0.192375 0.910357 0.440124 0.080757
H22   H     H_    0.808821 0.913169 0.559640 0.048219
H23   H     H_    0.691184 0.414083 0.440036 0.048009
H24   H     H_    0.307700 0.409432 0.559580 0.077487
H25   H     H_    0.053471 0.862798 0.362825 0.152746
H26   H     H_    0.997356 0.906704 0.620188 0.164365
H27   H     H_    0.501516 0.406340 0.381275 0.164750
H28   H     H_    0.446450 0.364097 0.638627 0.152268
H29   H     H_    0.949561 0.252996 0.559361 0.154499
H30   H     H_    0.008164 0.238846 0.445543 0.208805
H31   H     H_    0.492092 0.738949 0.552214 0.210067
H32   H     H_    0.550728 0.752381 0.438489 0.152363
H33   H     H_    0.144385 0.955320 0.076136 0.179979
H34   H     H_    0.790746 0.109839 0.950013 0.154267
H35   H     H_    0.644384 0.455304 0.076137 0.179440
H36   H     H_    0.290756 0.609825 0.950011 0.153904
O1    O     O_R   0.043230 0.549300 0.667990 -0.483549
O2    O     O_R   0.956770 0.549300 0.332010 -0.496835
O3    O     O_R   0.543230 0.049300 0.667990 -0.498085
O4    O     O_R   0.456770 0.049300 0.332010 -0.481798
O5    O     O_R   0.262920 0.788600 0.824420 -0.508821
O6    O     O_R   0.737080 0.788600 0.175580 -0.504044
O7    O     O_R   0.762920 0.288600 0.824420 -0.505703
O8    O     O_R   0.237080 0.288600 0.175580 -0.507344
O9    O     O_R   0.167530 0.905110 0.830340 -0.497604
O10   O     O_R   0.832470 0.905110 0.169660 -0.488793
O11   O     O_R   0.667530 0.405110 0.830340 -0.498363
O12   O     O_R   0.332470 0.405110 0.169660 -0.487956
O13   O     O_R   0.054010 0.748440 0.822860 -0.464537
O14   O     O_R   0.945990 0.748440 0.177140 -0.458142
O15   O     O_R   0.554010 0.248440 0.822860 -0.463856
O16   O     O_R   0.445990 0.248440 0.177140 -0.458715
O17   O     O_3   0.165160 0.665150 0.749190 -0.272541
O18   O     O_3   0.834840 0.665150 0.250810 -0.291375
O19   O     O_3   0.665160 0.165150 0.749190 -0.264585
O20   O     O_3   0.334840 0.165150 0.250810 -0.298947
O21   O     O_R   0.178620 0.457600 0.674100 -0.424436
O22   O     O_R   0.821380 0.457600 0.325900 -0.419097
O23   O     O_R   0.678620 0.957600 0.674100 -0.418455
O24   O     O_R   0.321380 0.957600 0.325900 -0.425237
O25   O     O_R   0.284680 0.542100 0.669460 -0.481083
O26   O     O_R   0.715320 0.542100 0.330540 -0.539201
O27   O     O_R   0.784680 0.042100 0.669460 -0.538706
O28   O     O_R   0.215320 0.042100 0.330540 -0.481994
O29   O     O_R   0.262860 0.790390 0.676650 -0.515328
O30   O     O_R   0.737140 0.790390 0.323350 -0.522973
O31   O     O_R   0.762860 0.290390 0.676650 -0.521802
O32   O     O_R   0.237140 0.290390 0.323350 -0.517360
O33   O     O_R   0.167460 0.907030 0.670940 -0.481136
O34   O     O_R   0.832540 0.907030 0.329060 -0.498425
O35   O     O_R   0.667460 0.407030 0.670940 -0.494645
O36   O     O_R   0.332540 0.407030 0.329060 -0.485248
O37   O     O_R   0.053950 0.750220 0.675100 -0.520477
O38   O     O_R   0.946050 0.750220 0.324900 -0.499997
O39   O     O_R   0.553950 0.250220 0.675100 -0.503885
O40   O     O_R   0.446050 0.250220 0.324900 -0.516687
O41   O     O_R   0.043300 0.547370 0.827390 -0.561451
O42   O     O_R   0.956700 0.547370 0.172610 -0.570771
O43   O     O_R   0.543300 0.047370 0.827390 -0.563043
O44   O     O_R   0.456700 0.047370 0.172610 -0.568663
O45   O     O_R   0.178690 0.455820 0.821860 -0.499607
O46   O     O_R   0.821310 0.455820 0.178140 -0.529618
O47   O     O_R   0.678690 0.955820 0.821860 -0.498366
O48   O     O_R   0.321310 0.955820 0.178140 -0.530844
O49   O     O_R   0.284750 0.540170 0.828860 -0.504777
O50   O     O_R   0.715250 0.540170 0.171140 -0.505739
O51   O     O_R   0.784750 0.040170 0.828860 -0.505512
O52   O     O_R   0.215250 0.040170 0.171140 -0.505284
F1    F     F_    0.361259 0.834743 0.432135 -0.579041
F2    F     F_    0.643716 0.821166 0.571444 -0.650503
F3    F     F_    0.856301 0.319790 0.427835 -0.651192
F4    F     F_    0.138883 0.335657 0.567344 -0.579056
F5    F     F_    0.904915 0.760454 0.038341 -0.579964
F6    F     F_    0.004512 0.766844 0.956950 -0.591098
F7    F     F_    0.404920 0.260454 0.038340 -0.579963
F8    F     F_    0.504523 0.266834 0.956956 -0.590911
C93   C     C_3   0.242563 0.052025 0.559087 -0.265998
C94   C     C_3   0.307737 0.108318 0.523544 -0.439533
H37   H     H_    0.322493 0.193588 0.550745 0.120334
H38   H     H_    0.353341 0.047088 0.525278 0.195891
H39   H     H_    0.298676 0.127540 0.466363 0.149623
H40   H     H_    0.196910 0.061862 0.523698 0.213249
H41   H     H_    0.229788 0.104844 0.608402 0.189053
C95   C     C_3   0.759199 0.051321 0.443036 -0.270220
C96   C     C_3   0.695917 0.108174 0.482622 -0.426394
H42   H     H_    0.649622 0.050030 0.480060 0.188744
H43   H     H_    0.706792 0.122276 0.539975 0.151199
H44   H     H_    0.681400 0.196557 0.459433 0.121965
H45   H     H_    0.806856 0.060243 0.475695 0.162669
H46   H     H_    0.769067 0.104564 0.393621 0.182422
C97   C     C_3   0.740359 0.550962 0.557932 -0.268947
C98   C     C_3   0.803433 0.607153 0.518544 -0.425854
H47   H     H_    0.817902 0.695292 0.542241 0.121599
H48   H     H_    0.849835 0.548553 0.520599 0.188725
H49   H     H_    0.792425 0.621363 0.461322 0.150737
H50   H     H_    0.692632 0.560290 0.525396 0.163693
H51   H     H_    0.730449 0.604407 0.607660 0.182886
C99   C     C_3   0.257137 0.552258 0.442006 -0.267597
C100  C     C_3   0.191839 0.609277 0.477856 -0.439924
H52   H     H_    0.146317 0.548574 0.475677 0.195721
H53   H     H_    0.200844 0.628360 0.535179 0.149833
H54   H     H_    0.177042 0.694822 0.451211 0.120698
H55   H     H_    0.302763 0.561565 0.477463 0.210934
H56   H     H_    0.269854 0.604934 0.393031 0.188241
F9    F     F_    0.082294 0.071970 0.417498 -0.657237
F10   F     F_    0.049330 0.097103 0.561167 -0.615956
F11   F     F_    0.449894 0.597642 0.441441 -0.617256
F12   F     F_    0.418227 0.574083 0.585309 -0.655986
C101  C     C_3   0.066189 0.401468 0.363399 -0.228741
C102  C     C_3   0.104918 0.502817 0.322886 -0.416609
H57   H     H_    0.123170 0.576120 0.358059 0.137019
H58   H     H_    0.150937 0.464157 0.294359 0.148045
H59   H     H_    0.072550 0.542005 0.280066 0.178456
H60   H     H_    0.106077 0.332328 0.376822 0.182034
H61   H     H_    0.030900 0.355108 0.325304 0.171251
C103  C     C_3   0.920933 0.437661 0.642734 -0.239583
C104  C     C_3   0.887026 0.551831 0.676146 -0.415614
H62   H     H_    0.835505 0.528802 0.700124 0.141513
H63   H     H_    0.919021 0.586995 0.720671 0.153761
H64   H     H_    0.878891 0.625049 0.637246 0.138698
H65   H     H_    0.878574 0.371253 0.635934 0.141185
H66   H     H_    0.955155 0.393734 0.682669 0.178089
C105  C     C_3   0.579398 0.936869 0.356438 -0.240252
C106  C     C_3   0.613245 0.050687 0.323913 -0.413050
H67   H     H_    0.621531 0.123465 0.363443 0.136735
H68   H     H_    0.664666 0.026954 0.299531 0.139257
H69   H     H_    0.581136 0.086713 0.279801 0.172826
H70   H     H_    0.621769 0.869915 0.362903 0.141874
H71   H     H_    0.545308 0.893425 0.316134 0.179327
C107  C     C_3   0.434240 0.902284 0.635564 -0.226902
C108  C     C_3   0.395506 0.003960 0.676981 -0.419814
H72   H     H_    0.349125 0.966030 0.704647 0.149306
H73   H     H_    0.427732 0.041609 0.720487 0.160918
H74   H     H_    0.377753 0.078367 0.642609 0.138265
H75   H     H_    0.394379 0.833704 0.621756 0.183357
H76   H     H_    0.469663 0.855328 0.673224 0.172066

loop_
_geom_bond_atom_site_label_1
_geom_bond_atom_site_label_2
_ccdc_geom_bond_type
Cr2   O22   S    
C47   C83   S    
C69   O45   A    
C7    C83   D    
C108  H73   S    
C58   F5    S    
Cr3   O3    S    
C95   H45   S    
C6    C82   D    
Cr7   O19   S    
C57   F6    S    
C86   H22   S    
C93   C94   S    
C14   C18   A    
C85   H21   S    
C35   C36   A    
C98   H49   S    
Cr6   O30   S    
C101  H60   S    
C67   O3    A    
Cr10  O18   S    
C87   H23   S    
C100  H54   S    
C3    O27   A    
C57   C62   D    
Cr12  O36   S    
C79   O43   A    
C40   H12   S    
C105  H70   S    
C106  H67   S    
C15   C19   A    
C66   O38   A    
C12   C23   A    
C59   C64   D    
C50   C54   S    
C94   H38   S    
C60   C63   D    
Cr3   O19   S    
C32   C36   A    
C14   C21   A    
Cr12  O20   S    
C87   C91   D    
C38   C74   S    
C38   H10   S    
C49   C53   S    
C9    C22   A    
Cr8   O32   S    
C4    O24   A    
C34   H30   S    
C53   H1    S    
C5    H17   S    
C11   C24   A    
C96   H44   S    
C5    C81   D    
C17   C18   A    
C104  H62   S    
C41   H5    S    
C70   O46   A    
Cr4   O48   S    
C9    C66   S    
C56   H4    S    
C37   C73   S    
C60   F7    S    
C77   O13   A    
C43   C51   D    
C46   C82   S    
C52   C56   S    
Cr9   O33   S    
C39   C55   D    
Cr6   O18   S    
C29   C33   A    
C75   O11   A    
C95   C96   S    
C40   C56   D    
C94   H39   S    
C90   F2    S    
C77   O41   A    
C93   H40   S    
C46   O34   A    
C8    C92   S    
C107  H76   S    
C102  H58   S    
C101  C102  S    
Cr10  O14   S    
C29   C103  S    
Cr11  O39   S    
C61   C62   S    
C106  H69   S    
Cr11  O11   S    
C99   H56   S    
C37   C53   D    
C44   C52   D    
C58   C61   D    
Cr5   O49   S    
C108  H74   S    
Cr9   O17   S    
Cr2   O18   S    
C48   O32   A    
C21   C22   A    
C3    C86   S    
C103  H66   S    
C2    O22   A    
C2    C87   S    
Cr8   O52   S    
Cr1   O41   S    
Cr4   O44   S    
C97   H51   S    
C41   C49   D    
C106  H68   S    
C9    C26   A    
C80   O16   A    
Cr7   O27   S    
C10   C21   A    
C25   C29   A    
C12   C67   S    
C45   C81   S    
C94   H37   S    
C30   C34   A    
C32   C105  S    
Cr3   O47   S    
C99   H55   S    
Cr2   O2    S    
C88   C92   D    
C28   C32   A    
C98   H47   S    
C100  H52   S    
C86   C90   D    
C59   C79   S    
C85   C89   D    
C8    H20   S    
C81   C93   S    
C4    C85   S    
Cr6   O6    S    
C1    C88   S    
C75   O7    A    
C25   C26   A    
C6    C90   S    
C27   C31   A    
C68   O40   A    
Cr4   O24   S    
C73   O5    A    
C104  H63   S    
C102  H59   S    
Cr5   O17   S    
C97   C98   S    
C107  C108  S    
C45   O33   A    
Cr4   O4    S    
C65   O1    A    
Cr8   O20   S    
C47   O31   A    
C38   C54   D    
Cr1   O21   S    
C59   F8    S    
C16   C20   A    
C7    C91   S    
Cr11  O35   S    
C96   H42   S    
C93   H41   S    
C15   H27   S    
C44   C69   S    
Cr12  O16   S    
C54   H2    S    
Cr1   O17   S    
Cr8   O28   S    
Cr6   O26   S    
C46   O30   A    
Cr6   O50   S    
C42   C50   D    
C41   C72   S    
C89   F1    S    
C44   H8    S    
C10   C25   A    
Cr11  O15   S    
C15   C24   A    
Cr4   O20   S    
Cr10  O10   S    
C26   C30   A    
C43   C70   S    
C39   C75   S    
C20   F12   S    
C18   F10   S    
C103  H65   S    
Cr10  O38   S    
C31   C35   A    
C72   O48   A    
Cr10  O34   S    
C102  H57   S    
C6    H18   S    
Cr9   O13   S    
C35   H31   S    
C108  H72   S    
C105  H71   S    
Cr1   O1    S    
C11   C68   S    
C70   O50   A    
C49   H33   S    
C14   H26   S    
C10   C65   S    
Cr7   O7    S    
C60   C80   S    
C95   H46   S    
C31   C107  S    
C73   O9    A    
C1    O25   A    
C8    C84   D    
C4    O28   A    
Cr5   O5    S    
C74   O6    A    
C33   H29   S    
C78   O14   A    
C82   C95   S    
Cr2   O46   S    
C71   O47   A    
C92   F4    S    
C69   O49   A    
C17   F9    S    
C83   C97   S    
C105  C106  S    
C100  H53   S    
C51   H35   S    
C66   O2    A    
C13   H25   S    
C3    O23   A    
C52   H36   S    
C16   C23   A    
C79   O15   A    
C2    O26   A    
C91   F3    S    
C19   C20   A    
C39   H11   S    
C64   H16   S    
C13   C17   A    
Cr3   O23   S    
C36   H32   S    
C104  H64   S    
C71   O51   A    
Cr12  O12   S    
C57   C77   S    
C42   H6    S    
Cr5   O29   S    
C88   H24   S    
C61   H13   S    
C67   O39   A    
C97   H50   S    
Cr7   O51   S    
Cr11  O19   S    
Cr12  O40   S    
C65   O37   A    
C11   C28   A    
Cr8   O8    S    
Cr5   O25   S    
C12   C27   A    
Cr9   O9    S    
C42   C71   S    
C96   H43   S    
C33   C34   A    
C13   C22   A    
C68   O4    A    
C51   C55   S    
C80   O44   A    
C30   C101  S    
Cr3   O43   S    
C99   C100  S    
C16   H28   S    
C47   O35   A    
C62   H14   S    
Cr9   O37   S    
C58   C78   S    
C23   C24   A    
C1    O21   A    
C63   C64   S    
C43   H7    S    
C48   C84   S    
C101  H61   S    
C37   H9    S    
C76   O8    A    
C63   H15   S    
C40   C76   S    
C55   H3    S    
C27   C28   A    
C103  C104  S    
C76   O12   A    
C50   H34   S    
C74   O10   A    
C84   C99   S    
Cr2   O42   S    
C78   O42   A    
C107  H75   S    
C19   F11   S    
C72   O52   A    
C5    C89   S    
C45   O29   A    
C98   H48   S    
Cr7   O31   S    
C7    H19   S    
C48   O36   A    
Cr1   O45   S    
