data_mof_unit_53417.cif
_audit_creation_date              2012-12-10T18:12:29-0500
_audit_creation_method            fapswitch 2.2
_symmetry_space_group_name_H-M    P1
_symmetry_Int_Tables_number       1
_space_group_crystal_system       triclinic
_cell_length_a                    9.408173
_cell_length_b                    10.738159
_cell_length_c                    17.347196
_cell_angle_alpha                 90.126419
_cell_angle_beta                  86.082352
_cell_angle_gamma                 90.11582
_cell_volume                      1748.42327213

loop_
_atom_site_label
_atom_site_type_symbol
_atom_type_description
_atom_site_fract_x
_atom_site_fract_y
_atom_site_fract_z
_atom_type_partial_charge
C1    C     C_R   0.500328 0.740146 0.500294 0.779042
C2    C     C_R   0.340259 0.487319 0.776535 -0.202667
C3    C     C_R   0.410551 0.533993 0.147341 -0.183782
C4    C     C_R   0.403078 0.521583 0.226854 -0.206804
C5    C     C_R   0.660916 0.516404 0.224248 -0.239826
C6    C     C_R   0.670375 0.528532 0.143678 0.121473
C7    C     C_R   0.542926 0.535277 0.104817 0.167083
C8    C     C_2   0.451350 0.481664 0.980033 -0.245326
C9    C     C_2   0.546110 0.543219 0.020203 -0.239509
C10   C     C_R   0.527902 0.511832 0.265841 -0.053540
C11   C     C_3   0.442259 0.925716 0.424098 -0.425848
C12   C     C_R   0.481602 0.498560 0.649930 0.792465
C13   C     C_3   0.442492 0.070127 0.423191 0.261333
C14   C     C_3   0.406186 0.928201 0.569698 -0.403669
C15   C     C_3   0.654775 0.929044 0.505184 -0.386906
C16   C     C_3   0.501060 0.877893 0.499879 0.122452
C17   C     C_3   0.500162 0.121680 0.499449 0.084209
C18   C     C_3   0.409264 0.071805 0.570888 -0.388165
C19   C     C_3   0.654505 0.071735 0.504424 -0.453597
C20   C     C_3   0.922638 0.408763 0.441590 -0.211065
C21   C     C_3   0.090394 0.408071 0.441224 -0.146589
C22   C     C_3   0.920638 0.623207 0.478312 -0.220538
C23   C     C_R   0.500011 0.259737 0.499710 0.808333
C24   C     C_3   0.905730 0.464872 0.575040 -0.222109
C25   C     C_3   0.087955 0.621570 0.478943 -0.296448
C26   C     C_3   0.073477 0.463303 0.575806 0.414904
C27   C     C_R   0.518448 0.502182 0.350085 0.808256
C28   C     C_R   0.472798 0.493291 0.734304 -0.027484
C29   C     C_R   0.598602 0.491570 0.773290 -0.216303
C30   C     C_R   0.592245 0.486316 0.853229 -0.157862
C31   C     C_R   0.459821 0.483750 0.895526 0.198477
C32   C     C_R   0.334051 0.481701 0.856888 -0.174094
Cu1   Cu    Cu3+1 0.357600 0.500140 0.499960 0.947022
Cu2   Cu    Cu3+1 0.642400 0.499860 0.500040 0.893927
H1    H     H_    0.702347 0.493922 0.742195 0.137783
H2    H     H_    0.332812 0.888781 0.418401 0.174502
H3    H     H_    0.509493 0.890213 0.373490 0.129843
H4    H     H_    0.516205 0.101145 0.373993 0.117598
H5    H     H_    0.294318 0.895884 0.566161 0.163041
H6    H     H_    0.298666 0.108457 0.572660 0.196239
H7    H     H_    0.699522 0.895914 0.559270 0.170803
H8    H     H_    0.725505 0.894461 0.455655 0.164939
H9    H     H_    0.724247 0.105034 0.454182 0.161365
H10   H     H_    0.299060 0.520702 0.257753 0.147240
H11   H     H_    0.700730 0.106969 0.557748 0.186363
H12   H     H_    0.444429 0.891758 0.624613 0.159148
H13   H     H_    0.455543 0.104413 0.624773 0.161562
H14   H     H_    0.891406 0.430793 0.382521 0.143040
H15   H     H_    0.881941 0.313472 0.454968 0.150920
H16   H     H_    0.127063 0.312150 0.452810 0.208386
H17   H     H_    0.135970 0.432006 0.382310 0.132877
H18   H     H_    0.889123 0.652883 0.420486 0.150937
H19   H     H_    0.136144 0.651398 0.421556 0.160551
H20   H     H_    0.863839 0.532702 0.619416 0.106261
H21   H     H_    0.757656 0.510059 0.254516 0.138955
H22   H     H_    0.860405 0.372548 0.592562 0.161661
H23   H     H_    0.104332 0.533664 0.619095 0.058213
H24   H     H_    0.878349 0.694548 0.520362 0.146927
H25   H     H_    0.120024 0.692070 0.521507 0.142413
H26   H     H_    0.630262 0.596898 0.990078 0.152345
H27   H     H_    0.231295 0.478031 0.888940 0.125937
H28   H     H_    0.311984 0.543788 0.119149 0.132581
H29   H     H_    0.241775 0.487141 0.747676 0.136542
H30   H     H_    0.365070 0.429109 0.009406 0.153652
H31   H     H_    0.691066 0.482937 0.881692 0.124218
N1    N     N_3   0.856560 0.499750 0.498270 -0.126167
N2    N     N_3   0.143860 0.496700 0.498910 -0.123522
O1    O     O_R   0.379740 0.682430 0.499960 -0.607110
O2    O     O_R   0.620260 0.682190 0.500020 -0.597853
O3    O     O_R   0.365800 0.500150 0.613560 -0.571843
O4    O     O_R   0.606310 0.499910 0.613620 -0.600452
O5    O     O_R   0.379740 0.317810 0.499980 -0.512406
O6    O     O_R   0.620260 0.317570 0.500040 -0.613378
O7    O     O_R   0.393690 0.500090 0.386380 -0.592727
O8    O     O_R   0.634200 0.499850 0.386440 -0.597722
C33   C     C_3   0.816835 0.532223 0.101467 -0.434209
C34   C     C_3   0.852869 0.408196 0.060723 -0.319437
C35   C     C_3   0.999592 0.413440 0.017548 -0.888280
H32   H     H_    0.002135 0.487538 0.972901 0.247369
H33   H     H_    0.083018 0.432621 0.058350 0.250041
H34   H     H_    0.023198 0.322761 0.988617 0.242952
H35   H     H_    0.851896 0.332297 0.104252 0.219144
H36   H     H_    0.772643 0.385596 0.018737 0.224160
H37   H     H_    0.823529 0.610461 0.059641 0.187428
H38   H     H_    0.899419 0.551443 0.142912 0.190537
O9    O     O_3   0.306838 0.117331 0.409721 -0.746950
H39   H     H_    0.236704 0.081545 0.448875 0.326217
O10   O     O_3   0.120161 0.345587 0.598667 -0.734407
H40   H     H_    0.092588 0.337655 0.654718 0.284927

loop_
_geom_bond_atom_site_label_1
_geom_bond_atom_site_label_2
_ccdc_geom_bond_type
C10   C27   S    
C14   C18   S    
C25   N2    S    
C18   H13   S    
Cu2   N1    S    
C14   H12   S    
C34   C35   S    
C15   C19   S    
C17   C23   S    
C12   C28   S    
C26   N2    S    
C20   N1    S    
C11   H2    S    
C25   H19   S    
C32   H27   S    
C3    C7    A    
C5    C6    A    
C35   H33   S    
C34   H36   S    
C24   H20   S    
C15   C16   S    
C1    O1    A    
C2    C32   A    
C11   H3    S    
C18   H6    S    
C22   N1    S    
Cu1   O5    S    
C14   H5    S    
C8    C9    D    
C22   C25   S    
C13   O9    S    
C27   O7    A    
C24   N1    S    
Cu2   O8    S    
C21   N2    S    
C33   H37   S    
C23   O6    A    
C27   O8    A    
C21   H16   S    
C19   H9    S    
C17   C18   S    
C33   C34   S    
C15   H7    S    
O9    H39   S    
C4    H10   S    
C1    O2    A    
C20   H15   S    
C11   C16   S    
C31   C32   A    
Cu1   Cu2   S    
C1    C16   S    
C20   C21   S    
Cu2   O2    S    
C13   H4    S    
C20   H14   S    
Cu1   O3    S    
C8    H30   S    
C12   O4    A    
C14   C16   S    
C4    C10   A    
C3    C4    A    
C21   H17   S    
C2    H29   S    
Cu1   N2    S    
C22   H18   S    
C3    H28   S    
C7    C9    S    
C12   O3    A    
C28   C29   A    
C35   H32   S    
C8    C31   S    
C23   O5    A    
C5    H21   S    
C15   H8    S    
C24   C26   S    
C22   H24   S    
C19   H11   S    
C6    C33   S    
C6    C7    A    
C24   H22   S    
C29   H1    S    
C13   C17   S    
C9    H26   S    
C5    C10   A    
C11   C13   S    
C35   H34   S    
C30   C31   A    
C34   H35   S    
Cu2   O4    S    
C17   C19   S    
C26   H23   S    
C30   H31   S    
Cu2   O6    S    
C29   C30   A    
Cu1   O7    S    
O10   H40   S    
C26   O10   S    
C2    C28   A    
C25   H25   S    
C33   H38   S    
Cu1   O1    S    
