data_mof_unit_58145.cif
_audit_creation_date              2012-12-10T17:09:28-0500
_audit_creation_method            fapswitch 2.2
_symmetry_space_group_name_H-M    P1
_symmetry_Int_Tables_number       1
_space_group_crystal_system       triclinic
_cell_length_a                    10.63566
_cell_length_b                    10.756941
_cell_length_c                    10.017648
_cell_angle_alpha                 90.342394
_cell_angle_beta                  89.801042
_cell_angle_gamma                 90.994465
_cell_volume                      1145.89113519

loop_
_atom_site_label
_atom_site_type_symbol
_atom_type_description
_atom_site_fract_x
_atom_site_fract_y
_atom_site_fract_z
_atom_type_partial_charge
C1    C     C_R   0.493459 0.262692 0.499082 0.948611
C2    C     C_3   0.958212 0.601523 0.432314 0.253031
C3    C     C_3   0.037131 0.497894 0.368235 0.419131
C4    C     C_3   0.123022 0.498784 0.493604 -0.394000
C5    C     C_2   0.436941 0.930114 0.399848 -0.215013
C6    C     C_2   0.472390 0.867469 0.507099 -0.343880
C7    C     C_2   0.421207 0.063954 0.406463 0.524226
C8    C     C_2   0.490294 0.130405 0.495412 -0.499335
C9    C     C_2   0.580265 0.562196 0.925724 -0.256473
C10   C     C_2   0.560402 0.583112 0.074250 0.505935
C11   C     C_R   0.257468 0.499570 0.498899 1.036913
C12   C     C_R   0.493537 0.737099 0.501054 1.027478
C13   C     C_R   0.742218 0.501446 0.500047 1.005380
C14   C     C_3   0.040783 0.398365 0.563259 -0.437468
C15   C     C_3   0.954931 0.399402 0.439469 0.486097
C16   C     C_3   0.876402 0.502593 0.499758 -0.377361
C17   C     C_3   0.961185 0.504590 0.623203 0.396010
C18   C     C_3   0.044016 0.603933 0.556339 0.273869
H1    H     H_    0.555084 0.087762 0.563917 0.115565
H2    H     H_    0.658497 0.608764 0.876584 0.209909
H3    H     H_    0.421114 0.467883 0.898193 0.161477
H4    H     H_    0.472214 0.420316 0.101488 0.152784
H5    H     H_    0.077896 0.316365 0.615660 0.188595
H6    H     H_    0.417356 0.882537 0.306347 0.194517
H7    H     H_    0.477454 0.910280 0.605354 0.168960
N1    N     N_2   0.501360 0.501330 0.852150 -0.208637
N2    N     N_2   0.501400 0.501360 0.147810 -0.238420
O1    O     O_R   0.499980 0.319060 0.613040 -0.626997
O2    O     O_R   0.500020 0.319100 0.386900 -0.571551
O3    O     O_R   0.313930 0.499950 0.613050 -0.589972
O4    O     O_R   0.313970 0.499990 0.386910 -0.640628
O5    O     O_R   0.499980 0.680900 0.613100 -0.600322
O6    O     O_R   0.500020 0.680940 0.386960 -0.593886
O7    O     O_R   0.686030 0.500010 0.613090 -0.594452
O8    O     O_R   0.686070 0.500050 0.386950 -0.557610
Zn1   Zn    Zn3+2 0.499970 0.499970 0.650990 0.997935
Zn2   Zn    Zn3+2 0.500030 0.500030 0.349010 1.040527
O9    O     O_3   0.910725 0.293120 0.369571 -0.564458
C19   C     C_3   0.822908 0.224313 0.446755 0.041114
H8    H     H_    0.731083 0.227828 0.395359 0.147860
H9    H     H_    0.808918 0.259097 0.550707 0.100009
C20   C     C_3   0.861423 0.088850 0.452575 -0.363914
H10   H     H_    0.785986 0.033982 0.503260 0.194988
H11   H     H_    0.872804 0.052071 0.349409 0.262730
C21   C     C_3   0.983627 0.074607 0.529359 -0.542913
H12   H     H_    0.061184 0.127480 0.480673 0.291386
H13   H     H_    0.009177 0.975993 0.530139 0.342219
H14   H     H_    0.972439 0.106206 0.634231 0.197161
O10   O     O_3   0.612398 0.687901 0.136673 -0.554762
C22   C     C_3   0.596239 0.797655 0.060512 0.054053
H15   H     H_    0.559371 0.870490 0.128181 0.157172
H16   H     H_    0.524921 0.787828 0.979511 0.144570
C23   C     C_3   0.722572 0.845670 0.004973 -0.285493
H17   H     H_    0.778826 0.887835 0.087426 0.249301
H18   H     H_    0.777049 0.767993 0.961933 0.239184
C24   C     C_3   0.704099 0.943501 0.897302 -0.943660
H19   H     H_    0.650746 0.902955 0.811886 0.276242
H20   H     H_    0.797106 0.976787 0.860032 0.281827
H21   H     H_    0.652407 0.023961 0.938727 0.273804
O11   O     O_3   0.906125 0.521025 0.750576 -0.618448
C25   C     C_3   0.964922 0.449136 0.848364 0.126666
H22   H     H_    0.955969 0.500976 0.943831 0.195181
H23   H     H_    0.067346 0.436762 0.829419 0.143289
C26   C     C_3   0.895567 0.324201 0.864776 -0.396454
H24   H     H_    0.795167 0.340790 0.889224 0.248042
H25   H     H_    0.899214 0.270869 0.770047 0.210463
C27   C     C_3   0.953582 0.247251 0.975484 -0.857056
H26   H     H_    0.054204 0.229833 0.953395 0.266118
H27   H     H_    0.902935 0.156497 0.983255 0.262760
H28   H     H_    0.945704 0.296406 0.072789 0.324858
S1    S     S_3+6 0.105069 0.735593 0.645346 0.050330
O12   O     O_2   0.187819 0.693417 0.756938 -0.327679
O13   O     O_2   0.181332 0.815957 0.552323 -0.281616
O14   O     O_3   0.985439 0.817102 0.709494 -0.533489
H29   H     H_    0.955781 0.768737 0.787626 0.375470
S2    S     S_3+6 0.894622 0.731701 0.348677 0.026617
O15   O     O_2   0.991682 0.833528 0.333807 -0.313311
O16   O     O_2   0.852841 0.688126 0.213253 -0.294274
O17   O     O_3   0.771529 0.786034 0.434989 -0.561430
H30   H     H_    0.727206 0.839897 0.371287 0.361727
O18   O     O_3   0.043417 0.477957 0.227670 -0.593749
C28   C     C_3   0.150378 0.528193 0.162224 0.094310
H31   H     H_    0.138416 0.508392 0.054576 0.129544
H32   H     H_    0.235550 0.475801 0.183975 0.203611
C29   C     C_3   0.163915 0.669782 0.175995 -0.281296
H33   H     H_    0.079780 0.712755 0.131916 0.283827
H34   H     H_    0.173105 0.696585 0.282615 0.259532
C30   C     C_3   0.278568 0.720678 0.102356 -0.917992
H35   H     H_    0.270202 0.822512 0.088788 0.307295
H36   H     H_    0.289273 0.676157 0.002814 0.272313
H37   H     H_    0.362524 0.704289 0.163624 0.270667
S3    S     S_3+6 0.313607 0.129180 0.292390 0.012033
O19   O     O_2   0.246753 0.236472 0.355620 -0.327863
O20   O     O_2   0.384130 0.173472 0.170928 -0.335286
O21   O     O_3   0.206907 0.020141 0.246262 -0.536343
H38   H     H_    0.145168 0.064802 0.191325 0.392265

loop_
_geom_bond_atom_site_label_1
_geom_bond_atom_site_label_2
_ccdc_geom_bond_type
C10   N2    D    
H3    N1    S    
C2    C18   S    
C1    C8    S    
O21   H38   S    
S2    O17   S    
O18   C28   S    
C3    C15   S    
C7    C8    D    
C19   H9    S    
C23   H17   S    
O5    Zn1   S    
O8    Zn2   S    
S2    O16   D    
C13   O8    A    
C6    C12   S    
O9    C19   S    
C21   H14   S    
C6    H7    S    
C15   C16   S    
C24   H19   S    
C25   H23   S    
C11   O3    A    
C16   C17   S    
C3    O18   S    
C1    O1    A    
C22   H16   S    
C2    C16   S    
C9    C10   S    
C4    C18   S    
C21   H13   S    
C11   O4    A    
C12   O5    A    
C14   C17   S    
C20   H11   S    
C1    O2    A    
C9    N1    D    
C22   H15   S    
C19   C20   S    
C23   H18   S    
C8    H1    S    
O14   H29   S    
C29   H34   S    
C27   H26   S    
C22   C23   S    
C26   C27   S    
S2    O15   D    
C19   H8    S    
S1    O13   D    
C21   H12   S    
S3    O21   S    
O6    Zn2   S    
O4    Zn2   S    
O11   C25   S    
C27   H27   S    
C20   C21   S    
C26   H25   S    
C14   H5    S    
C25   C26   S    
C15   O9    S    
C9    H2    S    
C30   H37   S    
S3    O20   D    
C17   C18   S    
C4    C11   S    
C29   H33   S    
N1    Zn1   S    
C30   H36   S    
O10   C22   S    
C28   H32   S    
H4    N2    S    
C20   H10   S    
C3    C4    S    
C2    S2    S    
C29   C30   S    
C5    C7    S    
C23   C24   S    
C18   S1    S    
S1    O14   S    
C28   C29   S    
C24   H21   S    
O3    Zn1   S    
C27   H28   S    
C26   H24   S    
C2    C3    S    
S1    O12   D    
C5    C6    D    
C5    H6    S    
N2    Zn2   S    
C7    S3    S    
S3    O19   D    
C24   H20   S    
O7    Zn1   S    
C4    C14   S    
C25   H22   S    
C17   O11   S    
O17   H30   S    
C13   O7    A    
C30   H35   S    
O1    Zn1   S    
C28   H31   S    
C13   C16   S    
O2    Zn2   S    
C14   C15   S    
C12   O6    A    
C10   O10   S    
