data_mof_unit_33772.cif
_audit_creation_date              2012-12-11T14:52:43-0500
_audit_creation_method            fapswitch 2.2
_symmetry_space_group_name_H-M    P1
_symmetry_Int_Tables_number       1
_space_group_crystal_system       triclinic
_cell_length_a                    19.052579
_cell_length_b                    11.20398
_cell_length_c                    18.69082
_cell_angle_alpha                 90.134944
_cell_angle_beta                  90.924126
_cell_angle_gamma                 90.146836
_cell_volume                      3989.28702928

loop_
_atom_site_label
_atom_site_type_symbol
_atom_type_description
_atom_site_fract_x
_atom_site_fract_y
_atom_site_fract_z
_atom_type_partial_charge
C1    C     C_R   0.272185 0.040289 0.855002 0.529845
C2    C     C_R   0.695927 0.509650 0.043511 0.007499
C3    C     C_3   0.036054 0.327141 0.061750 0.047128
C4    C     C_3   0.359125 0.817307 0.033469 -0.294645
C5    C     C_3   0.314735 0.807236 0.967843 -0.386568
C6    C     C_3   0.645380 0.820248 0.964486 -0.291294
C7    C     C_3   0.689990 0.805875 0.029850 -0.386225
C8    C     C_3   0.859977 0.317384 0.033443 -0.295404
C9    C     C_3   0.815169 0.306381 0.968086 -0.387984
C10   C     C_3   0.146189 0.320447 0.963344 -0.292466
C11   C     C_3   0.191578 0.305815 0.028179 -0.389748
C12   C     C_3   0.352590 0.434362 0.436168 -0.258613
C13   C     C_R   0.808239 0.016348 0.959820 0.010181
C14   C     C_3   0.415310 0.395830 0.482319 -0.492835
C15   C     C_3   0.648679 0.427604 0.562203 -0.261283
C16   C     C_3   0.588620 0.380375 0.514992 -0.493448
C17   C     C_3   0.852599 0.934404 0.436159 -0.258567
C18   C     C_3   0.915343 0.895952 0.482301 -0.492771
C19   C     C_3   0.148692 0.927551 0.562194 -0.261304
C20   C     C_3   0.088666 0.880224 0.514975 -0.493417
C21   C     C_3   0.375215 0.466469 0.923370 -0.267323
C22   C     C_3   0.379427 0.332257 0.930444 -0.469933
C23   C     C_3   0.632761 0.461550 0.085424 -0.255207
C24   C     C_R   0.196488 0.009245 0.043887 0.007801
C25   C     C_3   0.597407 0.348013 0.058250 -0.472545
C26   C     C_3   0.871305 0.964436 0.919682 -0.257545
C27   C     C_3   0.893823 0.838931 0.941193 -0.480723
C28   C     C_3   0.133808 0.960252 0.086041 -0.255323
C29   C     C_3   0.099839 0.845596 0.059249 -0.472306
C30   C     C_3   0.370184 0.469132 0.083385 -0.263352
C31   C     C_3   0.394747 0.536248 0.151889 -0.396139
C32   C     C_3   0.627755 0.502144 0.923638 -0.267069
C33   C     C_3   0.614712 0.379883 0.890486 -0.386005
C34   C     C_3   0.870897 0.973721 0.081841 -0.265668
C35   C     C_R   0.308818 0.522648 0.037946 0.016124
C36   C     C_3   0.893906 0.039048 0.151517 -0.397315
C37   C     C_3   0.127909 0.001328 0.924268 -0.266868
C38   C     C_3   0.115239 0.878983 0.891077 -0.384843
C39   C     C_R   0.695966 0.517683 0.966611 0.018595
C40   C     C_R   0.808054 0.023224 0.037231 0.015034
C41   C     C_R   0.196225 0.017490 0.966994 0.020214
C42   C     C_R   0.245741 0.564453 0.070763 0.014368
C43   C     C_R   0.757797 0.560284 0.932076 0.007974
C44   C     C_R   0.745283 0.064961 0.070594 0.016436
C45   C     C_R   0.728457 0.041371 0.146139 0.536277
C46   C     C_R   0.257944 0.060276 0.932290 0.000987
C47   C     C_R   0.187629 0.594051 0.027659 -0.175384
C48   C     C_R   0.816659 0.590185 0.974397 -0.174943
C49   C     C_R   0.686924 0.095185 0.027832 -0.174250
C50   C     C_R   0.316942 0.090116 0.974618 -0.179132
C51   C     C_R   0.191051 0.598646 0.954831 -0.195236
C52   C     C_R   0.813237 0.598725 0.047403 -0.184112
C53   C     C_R   0.689875 0.099613 0.954896 -0.193080
C54   C     C_R   0.313541 0.099145 0.047576 -0.179483
C55   C     C_R   0.252321 0.570224 0.919942 0.000357
C56   C     C_R   0.772161 0.540310 0.854925 0.534837
C57   C     C_R   0.752436 0.566388 0.082713 -0.005481
C58   C     C_R   0.750707 0.069574 0.919694 -0.002723
C59   C     C_R   0.252841 0.066332 0.082956 -0.005138
C60   C     C_R   0.511744 0.723328 0.540759 -0.130841
C61   C     C_R   0.515152 0.721542 0.467660 -0.127939
C62   C     C_R   0.012153 0.223453 0.540896 -0.130933
C63   C     C_R   0.015663 0.221633 0.467800 -0.127937
C64   C     C_R   0.511322 0.827941 0.428362 0.035392
C65   C     C_R   0.499539 0.830718 0.576604 0.035508
C66   C     C_R   0.011545 0.327933 0.428444 0.035371
C67   C     C_R   0.228485 0.541213 0.146164 0.536757
C68   C     C_R   0.999672 0.330787 0.576674 0.035435
C69   C     C_R   0.502946 0.936878 0.464110 -0.146612
C70   C     C_R   0.498365 0.938426 0.538433 -0.142791
C71   C     C_R   0.002965 0.436851 0.464141 -0.146664
C72   C     C_R   0.998361 0.438447 0.538460 -0.142714
C73   C     C_R   0.441983 0.818633 0.862690 0.541338
C74   C     C_R   0.559889 0.817562 0.137376 0.545813
C75   C     C_R   0.942260 0.318669 0.862719 0.540567
C76   C     C_R   0.060357 0.317576 0.137395 0.546723
C77   C     C_R   0.175423 0.582338 0.549576 -0.140409
C78   C     C_3   0.520121 0.735917 0.961152 -0.131972
C79   C     C_R   0.824126 0.586000 0.450985 -0.140962
C80   C     C_R   0.675430 0.082360 0.549573 -0.140389
C81   C     C_R   0.324135 0.085963 0.450979 -0.140923
C82   C     C_R   0.167654 0.558506 0.477838 -0.147838
C83   C     C_R   0.831743 0.562210 0.522594 -0.147109
C84   C     C_R   0.667664 0.058539 0.477834 -0.147811
C85   C     C_R   0.331761 0.062141 0.522586 -0.147075
C86   C     C_R   0.224132 0.515250 0.438714 0.029467
C87   C     C_R   0.775809 0.515370 0.561138 0.029912
C88   C     C_R   0.724140 0.015276 0.438711 0.029510
C89   C     C_3   0.484960 0.730374 0.033698 -0.117161
C90   C     C_R   0.275822 0.015329 0.561134 0.029837
C91   C     C_R   0.288725 0.483814 0.474663 0.006875
C92   C     C_R   0.711873 0.481209 0.524583 0.005253
C93   C     C_R   0.788734 0.983844 0.474658 0.006867
C94   C     C_R   0.211882 0.981183 0.524581 0.005212
C95   C     C_R   0.294472 0.508083 0.547555 -0.100665
C96   C     C_R   0.705934 0.506838 0.451919 -0.102500
C97   C     C_R   0.794478 0.008100 0.547551 -0.100724
C98   C     C_R   0.205933 0.006847 0.451923 -0.102563
C99   C     C_R   0.240753 0.565949 0.582779 0.014499
C100  C     C_3   0.020998 0.236176 0.960866 -0.132548
C101  C     C_R   0.759209 0.566985 0.417288 0.015775
C102  C     C_R   0.740757 0.065959 0.582777 0.014460
C103  C     C_R   0.259209 0.066985 0.417290 0.015780
C104  C     C_R   0.259925 0.629416 0.849099 0.524481
C105  C     C_R   0.741073 0.628475 0.151865 0.522990
C106  C     C_R   0.759588 0.129329 0.849031 0.521937
C107  C     C_R   0.241146 0.128497 0.151939 0.523034
C108  C     C_R   0.288852 0.000073 0.637840 0.567944
C109  C     C_R   0.711104 0.000238 0.362015 0.567032
C110  C     C_R   0.788846 0.500089 0.637838 0.568002
C111  C     C_3   0.986022 0.230790 0.033472 -0.117483
C112  C     C_R   0.211101 0.500230 0.362015 0.567133
C113  C     C_R   0.470418 0.823405 0.647820 0.550423
C114  C     C_R   0.532179 0.822854 0.353930 0.549872
C115  C     C_R   0.970441 0.323414 0.647838 0.550418
C116  C     C_R   0.032248 0.322847 0.353969 0.549925
C117  C     C_R   0.257915 0.632141 0.646887 0.547008
C118  C     C_R   0.742003 0.632405 0.353185 0.546735
C119  C     C_R   0.757916 0.132141 0.646888 0.546590
C120  C     C_R   0.242002 0.132409 0.353188 0.546734
C121  C     C_3   0.483784 0.925659 0.038041 -0.108700
C122  C     C_R   0.310546 0.519110 0.960589 0.020847
C123  C     C_3   0.519539 0.930032 0.963392 -0.111000
C124  C     C_3   0.984691 0.425914 0.037749 -0.108314
C125  C     C_3   0.020305 0.430231 0.963017 -0.110798
C126  C     C_3   0.433978 0.827501 0.010394 0.001370
C127  C     C_3   0.570512 0.832121 0.988093 -0.000778
C128  C     C_3   0.934847 0.327695 0.010225 0.001470
C129  C     C_3   0.071458 0.332439 0.987672 0.001143
C130  C     C_3   0.469137 0.831603 0.936777 0.048911
C131  C     C_3   0.534984 0.826771 0.062042 0.048335
C132  C     C_3   0.969862 0.331712 0.936591 0.048571
Cr1   Cr    Cr6+3 0.229630 0.835900 0.747350 0.964908
Cr2   Cr    Cr6+3 0.614200 0.677120 0.250660 0.972688
Cr3   Cr    Cr6+3 0.885800 0.177120 0.749340 0.982051
Cr4   Cr    Cr6+3 0.114200 0.177120 0.250660 0.972633
Cr5   Cr    Cr6+3 0.770370 0.835900 0.252650 0.963438
Cr6   Cr    Cr6+3 0.729630 0.335900 0.747350 0.964719
Cr7   Cr    Cr6+3 0.270370 0.335900 0.252650 0.962207
Cr8   Cr    Cr6+3 0.387410 0.989850 0.750850 0.995351
Cr9   Cr    Cr6+3 0.612590 0.989850 0.249150 0.994310
Cr10  Cr    Cr6+3 0.887410 0.489850 0.750850 0.994453
Cr11  Cr    Cr6+3 0.112590 0.489850 0.249150 0.994347
Cr12  Cr    Cr6+3 0.385800 0.677120 0.749340 0.980798
H1    H     H_    0.132159 0.623462 0.577260 0.130925
H2    H     H_    0.657570 0.490005 0.422791 0.140653
H3    H     H_    0.355256 0.376883 0.098489 0.176095
H4    H     H_    0.418271 0.458248 0.052179 0.115693
H5    H     H_    0.615594 0.383946 0.831177 0.179306
H6    H     H_    0.655146 0.319187 0.910450 0.192219
H7    H     H_    0.562322 0.344520 0.904902 0.096209
H8    H     H_    0.584214 0.517716 0.960096 0.136034
H9    H     H_    0.624573 0.569279 0.880167 0.136653
H10   H     H_    0.867909 0.126170 0.159032 0.151046
H11   H     H_    0.884016 0.982761 0.199074 0.168474
H12   H     H_    0.951542 0.050968 0.153948 0.141789
H13   H     H_    0.843077 0.992561 0.576396 0.143965
H14   H     H_    0.859316 0.879475 0.095630 0.170513
H15   H     H_    0.918489 0.971375 0.049232 0.127027
H16   H     H_    0.116098 0.883093 0.831770 0.180499
H17   H     H_    0.155715 0.818440 0.911061 0.191203
H18   H     H_    0.063003 0.843132 0.905374 0.098115
H19   H     H_    0.084288 0.016600 0.960790 0.135692
H20   H     H_    0.124545 0.068310 0.880738 0.136630
H21   H     H_    0.157561 0.990042 0.422803 0.140584
H22   H     H_    0.468329 0.004923 0.069791 0.112030
H23   H     H_    0.533119 0.012749 0.934132 0.108441
H24   H     H_    0.969233 0.505293 0.069401 0.112709
H25   H     H_    0.033703 0.512966 0.933685 0.108726
H26   H     H_    0.530157 0.661380 0.925418 0.125200
H27   H     H_    0.473292 0.642998 0.056597 0.120577
H28   H     H_    0.030944 0.161372 0.925264 0.124254
H29   H     H_    0.867082 0.629298 0.423887 0.129424
H30   H     H_    0.975307 0.143743 0.056935 0.119631
H31   H     H_    0.136082 0.606392 0.049845 0.147462
H32   H     H_    0.867691 0.603561 0.951371 0.145676
H33   H     H_    0.635622 0.108405 0.050387 0.147261
H34   H     H_    0.368011 0.103117 0.951474 0.148926
H35   H     H_    0.144220 0.623544 0.925019 0.122156
H36   H     H_    0.858605 0.633382 0.076425 0.127967
H37   H     H_    0.643110 0.125350 0.925272 0.121518
H38   H     H_    0.358860 0.134082 0.076538 0.126499
H39   H     H_    0.514326 0.638696 0.568592 0.129847
H40   H     H_    0.632166 0.123486 0.577255 0.130880
H41   H     H_    0.522846 0.635847 0.442288 0.132393
H42   H     H_    0.014872 0.138881 0.568779 0.129832
H43   H     H_    0.023612 0.135994 0.442466 0.132469
H44   H     H_    0.500984 0.020186 0.434913 0.110224
H45   H     H_    0.491519 0.022736 0.565699 0.111022
H46   H     H_    0.000847 0.520110 0.434908 0.110245
H47   H     H_    0.991368 0.522744 0.565691 0.111079
H48   H     H_    0.325740 0.877988 0.930170 0.156611
H49   H     H_    0.335256 0.731164 0.939297 0.161511
H50   H     H_    0.258698 0.800653 0.980940 0.163124
H51   H     H_    0.367093 0.129246 0.423878 0.129427
H52   H     H_    0.352087 0.736926 0.065807 0.153862
H53   H     H_    0.344681 0.891166 0.068542 0.163992
H54   H     H_    0.679794 0.875406 0.068987 0.158200
H55   H     H_    0.745978 0.800314 0.016716 0.164249
H56   H     H_    0.669769 0.726741 0.055873 0.158459
H57   H     H_    0.651959 0.741733 0.929857 0.141037
H58   H     H_    0.660489 0.894562 0.930510 0.166564
H59   H     H_    0.825821 0.376910 0.930038 0.156607
H60   H     H_    0.835269 0.229231 0.940111 0.161325
H61   H     H_    0.759173 0.300355 0.981624 0.163847
H62   H     H_    0.118211 0.580322 0.452018 0.127985
H63   H     H_    0.853185 0.237204 0.065973 0.155038
H64   H     H_    0.845496 0.391426 0.068375 0.163996
H65   H     H_    0.181423 0.374467 0.067872 0.158655
H66   H     H_    0.247631 0.300846 0.014454 0.167891
H67   H     H_    0.171614 0.226507 0.054114 0.159071
H68   H     H_    0.152398 0.241927 0.928604 0.139429
H69   H     H_    0.161065 0.394612 0.929106 0.165104
H70   H     H_    0.399212 0.328964 0.522724 0.154957
H71   H     H_    0.454708 0.353358 0.447376 0.134923
H72   H     H_    0.439890 0.474437 0.508914 0.148921
H73   H     H_    0.880568 0.586987 0.548739 0.125501
H74   H     H_    0.336574 0.352988 0.407743 0.208887
H75   H     H_    0.371536 0.501702 0.397346 0.169077
H76   H     H_    0.562057 0.455065 0.487223 0.139367
H77   H     H_    0.608223 0.314873 0.475385 0.159816
H78   H     H_    0.549648 0.334583 0.549014 0.135700
H79   H     H_    0.666409 0.349157 0.591646 0.213331
H80   H     H_    0.627002 0.494270 0.599968 0.164129
H81   H     H_    0.899275 0.829100 0.522727 0.154848
H82   H     H_    0.954735 0.853479 0.447354 0.134937
H83   H     H_    0.939914 0.974599 0.508868 0.149140
H84   H     H_    0.618225 0.080371 0.452014 0.127941
H85   H     H_    0.836592 0.853002 0.407754 0.208814
H86   H     H_    0.871523 0.001734 0.397319 0.169194
H87   H     H_    0.062066 0.954864 0.487200 0.139256
H88   H     H_    0.108311 0.814756 0.475370 0.159868
H89   H     H_    0.049710 0.834373 0.548989 0.135755
H90   H     H_    0.166437 0.849138 0.591653 0.213392
H91   H     H_    0.126987 0.994213 0.599943 0.164080
H92   H     H_    0.384279 0.303140 0.986528 0.136908
H93   H     H_    0.331480 0.293170 0.905216 0.179165
H94   H     H_    0.425961 0.298301 0.901709 0.133881
H95   H     H_    0.380601 0.086865 0.548727 0.125530
H96   H     H_    0.376400 0.474778 0.865210 0.194347
H97   H     H_    0.424186 0.510818 0.942424 0.131525
H98   H     H_    0.547684 0.367822 0.029044 0.129106
H99   H     H_    0.633699 0.300430 0.023901 0.168766
H100  H     H_    0.583387 0.289096 0.103652 0.145802
H101  H     H_    0.651436 0.436043 0.139855 0.174236
H102  H     H_    0.592464 0.532461 0.090104 0.166475
H103  H     H_    0.948722 0.838901 0.961436 0.116735
H104  H     H_    0.859768 0.804020 0.982949 0.159418
H105  H     H_    0.891624 0.777731 0.894321 0.163383
H106  H     H_    0.343070 0.492546 0.576399 0.144003
H107  H     H_    0.859032 0.952326 0.862258 0.184171
H108  H     H_    0.916518 0.026860 0.924901 0.153707
H109  H     H_    0.050073 0.864150 0.030178 0.125810
H110  H     H_    0.136573 0.799392 0.024775 0.169259
H111  H     H_    0.086502 0.786348 0.104720 0.148225
H112  H     H_    0.152610 0.935668 0.140583 0.174337
H113  H     H_    0.092844 0.030144 0.090398 0.165760
H114  H     H_    0.369708 0.624426 0.158397 0.151316
H115  H     H_    0.384557 0.482177 0.200302 0.167444
H116  H     H_    0.452545 0.546591 0.153428 0.140534
O1    O     O_R   0.214270 0.709000 0.827470 -0.538555
O2    O     O_R   0.543270 0.717630 0.330160 -0.524508
O3    O     O_R   0.956730 0.217630 0.669840 -0.520950
O4    O     O_R   0.043270 0.217630 0.330160 -0.524573
O5    O     O_R   0.320620 0.625640 0.672920 -0.507180
O6    O     O_R   0.679380 0.625640 0.327080 -0.510004
O7    O     O_R   0.820620 0.125640 0.672920 -0.507192
O8    O     O_R   0.179380 0.125640 0.327080 -0.510111
O9    O     O_3   0.334280 0.834290 0.749180 -0.278155
O10   O     O_3   0.665720 0.834290 0.250820 -0.279260
O11   O     O_3   0.834280 0.334290 0.749180 -0.277749
O12   O     O_R   0.785730 0.709000 0.172530 -0.527852
O13   O     O_3   0.165720 0.334290 0.250820 -0.279432
O14   O     O_R   0.236160 0.958490 0.823130 -0.500565
O15   O     O_R   0.763840 0.958490 0.176870 -0.505429
O16   O     O_R   0.736160 0.458490 0.823130 -0.501736
O17   O     O_R   0.263840 0.458490 0.176870 -0.507197
O18   O     O_R   0.332080 0.075470 0.831280 -0.531513
O19   O     O_R   0.667920 0.075470 0.168720 -0.531457
O20   O     O_R   0.832080 0.575470 0.831280 -0.532769
O21   O     O_R   0.167920 0.575470 0.168720 -0.531414
O22   O     O_R   0.446300 0.918110 0.826620 -0.504803
O23   O     O_R   0.714270 0.209000 0.827470 -0.537820
O24   O     O_R   0.553700 0.918110 0.173380 -0.502985
O25   O     O_R   0.946300 0.418110 0.826620 -0.504984
O26   O     O_R   0.053700 0.418110 0.173380 -0.502863
O27   O     O_R   0.457110 0.716200 0.831760 -0.534390
O28   O     O_R   0.542890 0.716200 0.168240 -0.540301
O29   O     O_R   0.957110 0.216200 0.831760 -0.534451
O30   O     O_R   0.042890 0.216200 0.168240 -0.540442
O31   O     O_R   0.320980 0.624310 0.823030 -0.534046
O32   O     O_R   0.679020 0.624310 0.176970 -0.535558
O33   O     O_R   0.820980 0.124310 0.823030 -0.532730
O34   O     O_R   0.285730 0.209000 0.172530 -0.529978
O35   O     O_R   0.179020 0.124310 0.176970 -0.535242
O36   O     O_R   0.213890 0.710430 0.665540 -0.555327
O37   O     O_R   0.786110 0.710430 0.334460 -0.553833
O38   O     O_R   0.713890 0.210430 0.665540 -0.555399
O39   O     O_R   0.286110 0.210430 0.334460 -0.553803
O40   O     O_R   0.235810 0.959820 0.673020 -0.523289
O41   O     O_R   0.764190 0.959820 0.326980 -0.527656
O42   O     O_R   0.735810 0.459820 0.673020 -0.523330
O43   O     O_R   0.264190 0.459820 0.326980 -0.527512
O44   O     O_R   0.331700 0.076900 0.669350 -0.516610
O45   O     O_R   0.445950 0.919440 0.676520 -0.518447
O46   O     O_R   0.668300 0.076900 0.330650 -0.517632
O47   O     O_R   0.831700 0.576900 0.669350 -0.517054
O48   O     O_R   0.168300 0.576900 0.330650 -0.517607
O49   O     O_R   0.554050 0.919440 0.323480 -0.516379
O50   O     O_R   0.945950 0.419440 0.676520 -0.518531
O51   O     O_R   0.054050 0.419440 0.323480 -0.516347
O52   O     O_R   0.456730 0.717630 0.669840 -0.521452

loop_
_geom_bond_atom_site_label_1
_geom_bond_atom_site_label_2
_ccdc_geom_bond_type
C73   O22   A    
C56   O20   A    
C114  O49   A    
C79   H29   S    
C12   C91   S    
C16   H78   S    
Cr12  O5    S    
C75   O29   A    
C25   H98   S    
C44   C45   S    
C121  H22   S    
C110  O47   A    
C50   H34   S    
C6    C127  S    
C95   C99   A    
C1    C46   S    
C35   C42   A    
C124  H24   S    
C19   C20   S    
Cr6   O23   S    
Cr2   O28   S    
C29   H109  S    
C125  H25   S    
C72   H47   S    
C81   C85   A    
C21   C22   S    
Cr12  O27   S    
C24   C41   A    
C78   C127  S    
C12   H74   S    
C49   H33   S    
C78   C89   S    
C85   C90   A    
Cr8   O18   S    
Cr9   O19   S    
Cr5   O15   S    
C37   C38   S    
C116  O4    A    
C27   H103  S    
C17   H86   S    
Cr3   O11   S    
Cr9   O10   S    
Cr3   O29   S    
C19   C94   S    
C88   C109  S    
C108  O44   A    
C10   H68   S    
C60   C65   A    
C119  O38   A    
C21   H97   S    
C25   H100  S    
C4    H52   S    
C73   C130  S    
C3    C129  S    
C65   C113  S    
Cr7   O17   S    
C35   C122  A    
C84   C88   A    
Cr8   O22   S    
C4    C5    S    
C53   C58   A    
C100  C132  S    
C10   H69   S    
C6    C7    S    
C89   C131  S    
C62   C68   A    
C23   H102  S    
C114  O2    A    
C10   C129  S    
C33   H5    S    
C77   C82   A    
C49   C53   A    
C51   C55   A    
C29   H111  S    
C71   H46   S    
C27   H105  S    
C69   C70   A    
C127  C131  S    
C121  C123  S    
C18   H83   S    
C125  C129  S    
C48   C52   A    
Cr11  O26   S    
C94   C98   A    
C58   C106  S    
Cr11  O48   S    
C102  C119  S    
C36   H11   S    
C5    H50   S    
C100  H28   S    
Cr5   O37   S    
Cr4   O13   S    
C67   O21   A    
C2    C57   A    
C30   H3    S    
C87   C110  S    
Cr1   O1    S    
C101  C118  S    
C18   H81   S    
C32   C39   S    
C81   H51   S    
C65   C70   A    
C78   H26   S    
Cr8   O9    S    
C15   H80   S    
C8    C128  S    
C45   O19   A    
C56   O16   A    
C31   H116  S    
Cr6   O38   S    
C76   O30   A    
C62   H42   S    
C22   H93   S    
C34   H15   S    
C105  O12   A    
C20   H87   S    
C74   C131  S    
C15   H79   S    
C76   O26   A    
C51   H35   S    
C95   H106  S    
C54   C59   A    
Cr11  O21   S    
C64   C114  S    
C89   H27   S    
C6    H57   S    
C33   H7    S    
Cr10  O20   S    
C55   C104  S    
C59   C107  S    
C80   C102  A    
C8    H63   S    
Cr9   O24   S    
C9    H60   S    
C99   C117  S    
C123  C127  S    
C32   H8    S    
C61   H41   S    
C17   C18   S    
C14   H72   S    
C64   C69   A    
C1    O14   A    
C26   H108  S    
C100  C111  S    
C37   H20   S    
C63   H43   S    
C123  C130  S    
C42   C67   S    
C13   C26   S    
C17   C93   S    
C106  O33   A    
C93   C97   A    
C82   H62   S    
C75   C132  S    
C81   C103  A    
C24   C28   S    
Cr11  O51   S    
Cr7   O34   S    
Cr12  O52   S    
Cr2   O10   S    
C96   H2    S    
Cr9   O49   S    
C4    C126  S    
Cr4   O8    S    
C78   C130  S    
C90   C108  S    
C71   C72   A    
Cr4   O30   S    
C60   H39   S    
C24   C59   A    
Cr1   O40   S    
C16   H76   S    
C31   H114  S    
C34   C36   S    
C80   H40   S    
C37   C41   S    
C10   C11   S    
Cr10  O25   S    
C91   C95   A    
C116  O51   A    
C40   C44   A    
C20   H89   S    
C2    C23   S    
Cr7   O13   S    
C87   C92   A    
C47   H31   S    
C48   H32   S    
C83   C87   A    
C19   H90   S    
C120  O8    A    
C111  H30   S    
C103  C120  S    
C80   C84   A    
C36   H10   S    
Cr3   O3    S    
C26   C27   S    
C50   C54   A    
C66   C116  S    
C28   C29   S    
Cr2   O32   S    
C86   C91   A    
C11   H66   S    
C30   C31   S    
C83   H73   S    
C107  O35   A    
C126  C130  S    
C98   C103  A    
C14   H70   S    
Cr1   O36   S    
C21   C122  S    
Cr10  O11   S    
C13   C40   A    
C38   H17   S    
C3    C111  S    
C112  O48   A    
Cr5   O41   S    
C67   O17   A    
C97   C102  A    
C124  C128  S    
C104  O31   A    
C63   C66   A    
C74   O24   A    
Cr12  O31   S    
C96   C101  A    
C16   H77   S    
C90   C94   A    
C89   C126  S    
C25   H99   S    
C109  O41   A    
C107  O34   A    
C17   H85   S    
C100  C129  S    
C47   C51   A    
C45   O15   A    
C60   C61   A    
C23   H101  S    
C61   C64   A    
C120  O39   A    
Cr7   O39   S    
C62   C63   A    
C66   C71   A    
C75   O25   A    
C29   H110  S    
C104  O1    A    
C3    C124  S    
C36   H12   S    
C5    H49   S    
C19   H91   S    
Cr5   O10   S    
C30   H4    S    
Cr10  O47   S    
C32   C33   S    
C7    H54   S    
Cr12  O9    S    
C1    O18   A    
C82   C86   A    
C27   H104  S    
C79   C83   A    
Cr3   O33   S    
C52   C57   A    
C68   C115  S    
C38   H16   S    
C32   H9    S    
Cr11  O13   S    
C31   H115  S    
Cr9   O46   S    
C70   H45   S    
C22   H94   S    
C44   C49   A    
Cr2   O6    S    
C57   C105  S    
Cr6   O42   S    
C20   H88   S    
Cr4   O4    S    
C92   C96   A    
C30   C35   S    
C34   C40   S    
C6    H58   S    
C33   H6    S    
C15   C16   S    
C112  O43   A    
C106  O23   A    
C8    H64   S    
C9    H59   S    
C11   H67   S    
C15   C92   S    
C118  O6    A    
C2    C39   A    
C8    C9    S    
C113  O45   A    
C41   C46   A    
C54   H38   S    
C77   C99   A    
C18   H82   S    
C43   C48   A    
C12   H75   S    
C68   C72   A    
C37   H19   S    
C123  H23   S    
Cr8   O45   S    
C55   C122  A    
Cr2   O2    S    
Cr3   O7    S    
C121  C131  S    
C128  C132  S    
Cr5   O12   S    
C108  O40   A    
C113  O52   A    
C117  O36   A    
C115  O50   A    
C39   C43   A    
C13   C58   A    
C109  O46   A    
Cr6   O16   S    
C85   H95   S    
C97   H13   S    
C86   C112  S    
C52   H36   S    
Cr4   O35   S    
C53   H37   S    
C73   O27   A    
Cr1   O9    S    
C74   O28   A    
C119  O7    A    
C3    C76   S    
C69   H44   S    
C115  O3    A    
C22   H92   S    
C34   H14   S    
C4    H53   S    
C12   C14   S    
C110  O42   A    
C84   H84   S    
C77   H1    S    
C111  C128  S    
C88   C93   A    
Cr1   O14   S    
C118  O37   A    
Cr7   O43   S    
C79   C101  A    
C28   H112  S    
C5    H48   S    
C46   C50   A    
Cr8   O44   S    
C7    H56   S    
C105  O32   A    
C121  C126  S    
C9    H61   S    
C11   H65   S    
C125  C132  S    
Cr10  O50   S    
C14   H71   S    
C42   C47   A    
C23   C25   S    
C7    H55   S    
C117  O5    A    
C98   H21   S    
C26   H107  S    
C43   C56   S    
C38   H18   S    
C21   H96   S    
C28   H113  S    
Cr6   O11   S    
C124  C125  S    
