data_mof_unit_35791.cif
_audit_creation_date              2012-12-10T19:00:12-0500
_audit_creation_method            fapswitch 2.2
_symmetry_space_group_name_H-M    P1
_symmetry_Int_Tables_number       1
_space_group_crystal_system       triclinic
_cell_length_a                    9.597988
_cell_length_b                    10.908478
_cell_length_c                    13.338648
_cell_angle_alpha                 91.774083
_cell_angle_beta                  72.185422
_cell_angle_gamma                 91.173668
_cell_volume                      1328.86038091

loop_
_atom_site_label
_atom_site_type_symbol
_atom_type_description
_atom_site_fract_x
_atom_site_fract_y
_atom_site_fract_z
_atom_type_partial_charge
C1    C     C_R   0.503666 0.737038 0.495737 0.825400
C2    C     C_R   0.445542 0.473717 0.975593 0.082286
C3    C     C_R   0.473642 0.434865 0.869024 -0.017327
C4    C     C_R   0.554623 0.459797 0.026084 0.041603
C5    C     C_R   0.666721 0.372838 0.982957 0.026153
C6    C     C_R   0.685688 0.324347 0.881149 -0.293486
C7    C     C_R   0.591370 0.354002 0.823985 0.244105
C8    C     C_R   0.549099 0.522073 0.122152 -0.077878
C9    C     C_R   0.725743 0.379445 0.147138 -0.226203
C10   C     C_R   0.371934 0.465216 0.815782 -0.144848
C11   C     C_R   0.376455 0.932023 0.522331 0.020915
C12   C     C_R   0.420862 0.486811 0.699963 0.830352
C13   C     C_R   0.509174 0.870263 0.492762 -0.110075
C14   C     C_R   0.641987 0.939441 0.462976 -0.020293
C15   C     C_R   0.635692 0.067451 0.466560 -0.295820
C16   C     C_R   0.501552 0.128349 0.489861 -0.158202
C17   C     C_R   0.371784 0.058486 0.516825 0.111132
C18   C     C_3   0.251062 0.046162 0.465586 -0.003201
C19   C     C_3   0.252057 0.908883 0.479326 -0.480245
C20   C     C_R   0.962715 0.457612 0.414610 0.225802
C21   C     C_R   0.894404 0.571121 0.571830 0.321030
C22   C     C_R   0.043258 0.566315 0.575293 -0.012281
C23   C     C_R   0.500383 0.262288 0.495700 0.813358
C24   C     C_R   0.109560 0.462314 0.412778 0.202576
C25   C     C_3   0.140589 0.343222 0.355277 -0.432666
C26   C     C_3   0.979929 0.335025 0.360905 -0.476902
C27   C     C_R   0.578793 0.498529 0.299788 0.790869
C28   C     C_R   0.751637 0.330411 0.044840 0.274164
C29   C     C_R   0.624575 0.472683 0.186212 -0.165150
C30   C     C_R   0.224095 0.481018 0.877340 0.244640
C31   C     C_R   0.191309 0.505123 0.985597 -0.211260
C32   C     C_R   0.301400 0.507297 0.033212 -0.123963
Cu1   Cu    Cu3+1 0.359330 0.500020 0.500010 0.945757
Cu2   Cu    Cu3+1 0.640670 0.499980 0.499990 0.989819
H1    H     H_    0.777756 0.340372 0.199783 0.154529
H2    H     H_    0.737044 0.119458 0.444982 0.153112
H3    H     H_    0.154624 0.872047 0.540353 0.163670
H4    H     H_    0.283692 0.853164 0.404568 0.220386
H5    H     H_    0.216334 0.352749 0.273994 0.190391
H6    H     H_    0.173398 0.277894 0.403992 0.220366
H7    H     H_    0.963350 0.337134 0.282243 0.188422
H8    H     H_    0.769329 0.257196 0.846653 0.166947
H9    H     H_    0.919398 0.262064 0.413349 0.197649
H10   H     H_    0.268977 0.522875 0.117635 0.144477
H11   H     H_    0.079296 0.520005 0.033870 0.155270
N1    N     N_R   0.852320 0.499070 0.499340 -0.207204
N2    N     N_R   0.148230 0.499110 0.499340 -0.228535
O1    O     O_R   0.381190 0.680360 0.500000 -0.632099
O2    O     O_R   0.618780 0.680320 0.499990 -0.521571
O3    O     O_R   0.323230 0.500000 0.650990 -0.570997
O4    O     O_R   0.560820 0.499960 0.650980 -0.553894
O5    O     O_R   0.381220 0.319680 0.500010 -0.571535
O6    O     O_R   0.618810 0.319640 0.500000 -0.579590
O7    O     O_R   0.439180 0.500040 0.349020 -0.601167
O8    O     O_R   0.676770 0.500000 0.349010 -0.552811
C33   C     C_2   0.106818 0.101105 0.528799 0.346111
H12   H     H_    0.010105 0.082881 0.504743 0.065799
O9    O     O_2   0.096746 0.166099 0.606639 -0.581017
C34   C     C_2   0.298816 0.077950 0.350410 0.303704
H13   H     H_    0.396767 0.132924 0.317219 0.082936
O10   O     O_2   0.226081 0.043772 0.293771 -0.531481
N3    N     N_2   0.804075 0.672248 0.621092 -0.390689
H14   H     H_    0.851218 0.756808 0.598311 0.210563
C35   C     C_3   0.721459 0.668667 0.732029 -0.471729
H15   H     H_    0.730881 0.578557 0.765653 0.234421
H16   H     H_    0.604953 0.688400 0.742457 0.199574
H17   H     H_    0.759777 0.742367 0.776926 0.229854
C36   C     C_2   0.083759 0.640859 0.657514 0.412115
H18   H     H_    0.187312 0.686350 0.643038 0.133749
O11   O     O_2   0.999796 0.652896 0.746247 -0.587368
N4    N     N_2   0.847540 0.228458 0.008532 -0.454774
H19   H     H_    0.800186 0.152591 0.983484 0.263501
C37   C     C_3   0.952921 0.199168 0.061931 -0.676245
H20   H     H_    0.032188 0.131912 0.012995 0.244762
H21   H     H_    0.896803 0.157294 0.138931 0.236354
H22   H     H_    0.015056 0.282697 0.073302 0.230917
C38   C     C_2   0.482847 0.645991 0.150459 0.370714
H23   H     H_    0.455462 0.682327 0.230631 0.084553
O12   O     O_2   0.465873 0.712143 0.083002 -0.520118
N5    N     N_2   0.107086 0.465122 0.833333 -0.391249
H24   H     H_    0.007592 0.496180 0.881676 0.285161
C39   C     C_3   0.093747 0.343476 0.790349 -0.538240
H25   H     H_    0.004658 0.342674 0.753455 0.243803
H26   H     H_    0.069331 0.275257 0.853085 0.227230
H27   H     H_    0.196024 0.315198 0.729605 0.255223
N6    N     N_2   0.596306 0.280452 0.733053 -0.405423
H28   H     H_    0.701338 0.260334 0.686776 0.265450
C40   C     C_3   0.504661 0.171489 0.757451 -0.682648
H29   H     H_    0.517767 0.114494 0.685323 0.233252
H30   H     H_    0.387746 0.196961 0.790621 0.232258
H31   H     H_    0.536663 0.115166 0.814749 0.232490
C41   C     C_2   0.789045 0.885091 0.418082 0.399930
H32   H     H_    0.881914 0.926192 0.437136 0.048785
O13   O     O_2   0.810058 0.800167 0.353607 -0.518206

loop_
_geom_bond_atom_site_label_1
_geom_bond_atom_site_label_2
_ccdc_geom_bond_type
C34   H13   S    
C27   C29   S    
C37   H20   S    
C4    C8    A    
C27   O7    A    
C38   H23   S    
Cu1   O5    S    
C11   C19   S    
Cu2   O4    S    
C8    C29   A    
C3    C7    A    
C25   H6    S    
C30   C31   A    
C27   O8    A    
C7    N6    S    
C15   C16   A    
C33   H12   S    
C2    C32   A    
C18   C19   S    
N3    C35   S    
C19   H3    S    
C20   C24   A    
C36   H18   S    
C23   O6    A    
Cu2   N1    S    
C9    C29   A    
C30   N5    S    
C22   N2    A    
Cu2   O8    S    
C13   C14   A    
C37   H21   S    
C26   H9    S    
Cu1   Cu2   S    
C38   O12   D    
C34   O10   D    
C35   H17   S    
C24   C25   S    
N5    C39   S    
N4    C37   S    
N6    H28   S    
C16   C17   A    
C25   C26   S    
C35   H16   S    
C2    C4    A    
N3    H14   S    
C19   H4    S    
C5    C28   A    
C10   C30   A    
C31   C32   A    
C40   H31   S    
C22   C36   S    
C41   O13   D    
C17   C18   S    
C32   H10   S    
C14   C41   S    
C21   N3    S    
C10   C12   S    
C40   H30   S    
C16   C23   S    
C39   H26   S    
C31   H11   S    
C8    C38   S    
Cu1   N2    S    
C37   H22   S    
C28   N4    S    
C1    C13   S    
C15   H2    S    
C12   O4    A    
C21   N1    A    
Cu1   O7    S    
C11   C17   A    
Cu2   O2    S    
C24   N2    A    
N5    H24   S    
C12   O3    A    
C1    O1    A    
C6    C7    A    
C18   C33   S    
C39   H27   S    
C35   H15   S    
C2    C3    A    
Cu1   O3    S    
N4    H19   S    
C3    C10   A    
C25   H5    S    
C11   C13   A    
C23   O5    A    
C5    C6    A    
C20   C26   S    
C41   H32   S    
C33   O9    D    
N6    C40   S    
C18   C34   S    
C4    C5    A    
C40   H29   S    
C9    C28   A    
Cu2   O6    S    
C36   O11   D    
C39   H25   S    
C6    H8    S    
C9    H1    S    
Cu1   O1    S    
C14   C15   A    
C21   C22   A    
C1    O2    A    
C20   N1    A    
C26   H7    S    
