data_mof_unit_68136.cif
_audit_creation_date              2013-03-05T15:58:46-0500
_audit_creation_method            fapswitch 2.2
_symmetry_space_group_name_H-M    P1
_symmetry_Int_Tables_number       1
_space_group_crystal_system       triclinic
_cell_length_a                    7.21196
_cell_length_b                    15.149879
_cell_length_c                    16.089784
_cell_angle_alpha                 89.908274
_cell_angle_beta                  89.625513
_cell_angle_gamma                 87.869384
_cell_volume                      1756.72048449

loop_
_atom_site_label
_atom_site_type_symbol
_atom_site_description
_atom_site_fract_x
_atom_site_fract_y
_atom_site_fract_z
_atom_type_partial_charge
O1    O     O_R   0.494320 0.415010 0.412140 -0.599625
O2    O     O_R   0.824010 0.404260 0.587250 -0.546471
O3    O     O_R   0.994320 0.584990 0.587860 -0.567056
C1    C     C_R   0.655871 0.381318 0.615243 0.975462
O4    O     O_R   0.824040 0.403870 0.412760 -0.496274
O5    O     O_R   0.994350 0.584590 0.412130 -0.597486
C2    C     C_R   0.657435 0.383674 0.383143 1.048233
O6    O     O_R   0.494300 0.415410 0.587870 -0.635944
O7    O     O_3   0.660800 0.559290 0.500000 -0.267972
V1    V     V_3+5 0.935650 0.489000 0.500000 1.372215
O8    O     O_R   0.324060 0.595740 0.412750 -0.553075
C3    C     C_R   0.153228 0.615608 0.382751 0.981128
O9    O     O_R   0.324040 0.596130 0.587240 -0.563176
C4    C     C_R   0.152897 0.615500 0.617436 1.101889
V2    V     V_3+5 0.435660 0.511000 0.500000 1.332174
O10   O     O_3   0.160640 0.440710 0.500000 -0.271905
C5    C     C_3   0.083154 0.673034 0.783351 0.165780
C6    C     C_3   0.248526 0.727175 0.809252 0.290054
C7    C     C_3   0.129317 0.814496 0.809231 -0.425842
C8    C     C_3   0.963782 0.759528 0.781208 0.217293
C9    C     C_3   0.016313 0.770820 0.688624 0.241965
C10   C     C_3   0.182631 0.825472 0.715091 -0.324021
C11   C     C_3   0.305427 0.738271 0.716751 -0.069730
C12   C     C_3   0.136836 0.683476 0.689634 -0.421722
H1    H     H_    0.448662 0.728968 0.692374 0.245313
C13   C     C_3   0.265619 0.843404 0.271306 0.043919
C14   C     C_3   0.292743 0.757900 0.328531 0.010426
H2    H     H_    0.422759 0.722435 0.307269 0.110625
H3    H     H_    0.303980 0.607549 0.230975 0.227588
C15   C     C_3   0.212098 0.724355 0.155063 -0.302928
C16   C     C_3   0.938041 0.801073 0.230995 -0.227525
C17   C     C_3   0.136246 0.816927 0.191906 -0.171894
H4    H     H_    0.847533 0.772015 0.183868 0.248189
H5    H     H_    0.863956 0.863861 0.245306 0.232482
C18   C     C_3   0.138461 0.689033 0.314013 -0.184052
C19   C     C_3   0.178518 0.649860 0.223616 -0.343695
C20   C     C_3   0.944370 0.739262 0.309617 -0.359661
H6    H     H_    0.834617 0.690768 0.302694 0.194941
C21   C     C_3   0.432040 0.285498 0.706503 -0.288211
C22   C     C_3   0.422063 0.228651 0.790889 -0.312781
H7    H     H_    0.327677 0.174226 0.781027 0.238683
H8    H     H_    0.591675 0.397148 0.798608 0.276218
H9    H     H_    0.660794 0.303988 0.897537 0.212692
C23   C     C_3   0.704600 0.352876 0.774998 -0.296253
C24   C     C_3   0.776662 0.225274 0.678287 -0.029467
C25   C     C_3   0.643303 0.312844 0.689169 -0.271107
H10   H     H_    0.906675 0.244302 0.708988 0.157177
C26   C     C_3   0.621530 0.189426 0.815186 -0.251111
C27   C     C_3   0.728428 0.276075 0.842361 -0.303229
C28   C     C_3   0.712164 0.144234 0.733520 0.452363
C29   C     C_3   0.476917 0.345130 0.249827 0.399670
C30   C     C_3   0.475430 0.280189 0.167684 0.013381
C31   C     C_3   0.626994 0.219235 0.349256 -0.533060
C32   C     C_3   0.819727 0.314513 0.247827 0.134889
C33   C     C_3   0.645896 0.316451 0.308966 -0.473943
H11   H     H_    0.937358 0.300263 0.285962 0.252483
C34   C     C_3   0.616968 0.192877 0.182969 -0.538240
C35   C     C_3   0.580679 0.147706 0.275788 0.514277
C36   C     C_3   0.822191 0.233835 0.180402 -0.088753
O11   O     O_R   0.771990 0.083520 0.910980 -0.548714
O12   O     O_R   0.442180 0.095020 0.086060 -0.485229
O13   O     O_R   0.271950 0.914280 0.086680 -0.577264
C37   C     C_R   0.608464 0.120373 0.111936 1.086382
O14   O     O_R   0.442270 0.094630 0.911580 -0.605064
O15   O     O_R   0.272040 0.913890 0.910940 -0.561634
C38   C     C_R   0.610360 0.119327 0.886113 0.984086
O16   O     O_R   0.771900 0.083910 0.086710 -0.593300
O17   O     O_3   0.605520 0.939610 0.998840 -0.238171
V3    V     V_3+5 0.330640 0.009880 0.998810 1.405033
O18   O     O_R   0.942330 0.902710 0.911540 -0.530593
C39   C     C_R   0.113485 0.882985 0.881484 1.081527
O19   O     O_R   0.942240 0.903100 0.086030 -0.537713
C40   C     C_R   0.113638 0.887012 0.119246 1.034615
V4    V     V_3+5 0.830640 0.987830 0.998780 1.411310
O20   O     O_3   0.105630 0.058150 0.998800 -0.256684
N1    N     N_R   0.379606 0.697752 0.872480 0.276124
O21   O     O_R   0.483233 0.626721 0.860827 -0.243368
O22   O     O_R   0.397801 0.743583 0.939676 -0.417071
C41   C     C_2   0.416910 0.727603 0.131739 0.546503
H12   H     H_    0.461209 0.774135 0.085360 0.145910
O23   O     O_2   0.534858 0.677481 0.161372 -0.488003
C42   C     C_2   0.885402 0.783732 0.390017 0.738324
H13   H     H_    0.863566 0.743170 0.444508 0.087349
O24   O     O_2   0.856787 0.863296 0.395675 -0.425025
C43   C     C_2   0.124808 0.700215 0.071200 0.503784
H14   H     H_    0.189505 0.647182 0.034496 0.112192
O25   O     O_2   0.979204 0.733732 0.046244 -0.510851
C44   C     C_2   0.036466 0.587890 0.192164 0.754516
H15   H     H_    0.081924 0.526166 0.164986 0.149208
O26   O     O_2   0.873799 0.610154 0.183800 -0.458984
C45   C     C_2   0.286922 0.361568 0.709240 0.708624
H16   H     H_    0.144909 0.347947 0.694253 -0.068020
O27   O     O_2   0.324593 0.437604 0.725013 -0.526299
N2    N     N_R   0.038190 0.594266 0.830423 0.262241
O28   O     O_R   0.168370 0.535620 0.847205 -0.294275
O29   O     O_R   0.881385 0.590955 0.870317 -0.268553
C46   C     C_2   0.368162 0.236553 0.630920 0.664346
H17   H     H_    0.396975 0.264147 0.571398 -0.018259
O30   O     O_2   0.268539 0.173577 0.634660 -0.429823
C47   C     C_2   0.336038 0.276035 0.867018 0.546500
H18   H     H_    0.295559 0.237276 0.919920 0.160703
O31   O     O_2   0.321119 0.356097 0.874226 -0.522660
N3    N     N_R   0.850507 0.203186 0.595269 0.228445
O32   O     O_R   0.966546 0.257840 0.564148 -0.361510
O33   O     O_R   0.883042 0.120855 0.575595 -0.250266
N4    N     N_R   0.572232 0.088728 0.693800 0.241580
O34   O     O_R   0.477275 0.036546 0.740690 -0.384328
O35   O     O_R   0.579223 0.070004 0.615110 -0.201153
N5    N     N_R   0.871888 0.083101 0.752550 0.257592
O36   O     O_R   0.842945 0.000385 0.768239 -0.353673
O37   O     O_R   0.040989 0.103282 0.735422 -0.358954
C48   C     C_2   0.858541 0.416984 0.769888 0.584606
H19   H     H_    0.987318 0.405414 0.801980 0.071559
O38   O     O_2   0.835053 0.486427 0.732197 -0.523313
N6    N     N_R   0.778155 0.772598 0.815818 0.275550
O39   O     O_R   0.659666 0.825245 0.778129 -0.325415
O40   O     O_R   0.753081 0.756096 0.894253 -0.240698
C49   C     C_2   0.920502 0.261756 0.875546 0.377593
H20   H     H_    0.981605 0.314782 0.909554 0.125168
O41   O     O_2   0.005532 0.191483 0.870000 -0.560439
N7    N     N_R   0.305729 0.339689 0.299601 0.239429
O42   O     O_R   0.216635 0.410777 0.325007 -0.321109
O43   O     O_R   0.232269 0.265160 0.313986 -0.377244
N8    N     N_R   0.482683 0.439784 0.223539 0.236509
O44   O     O_R   0.374371 0.468407 0.164620 -0.434952
O45   O     O_R   0.546741 0.500189 0.271827 -0.345073
C50   C     C_2   0.530446 0.325090 0.086013 0.587570
H21   H     H_    0.558084 0.393264 0.077105 0.187277
O46   O     O_2   0.535864 0.281588 0.022673 -0.695539
N9    N     N_R   0.281896 0.263352 0.147776 0.278686
O47   O     O_R   0.245708 0.220580 0.080332 -0.348774
O48   O     O_R   0.168632 0.330131 0.160989 -0.353289
C51   C     C_2   0.491596 0.218670 0.422984 0.589370
H22   H     H_    0.397235 0.273262 0.436806 0.101656
O49   O     O_2   0.486469 0.154988 0.469840 -0.463247
N10   N     N_R   0.389264 0.115656 0.279390 0.276679
O50   O     O_R   0.308826 0.101784 0.350288 -0.183992
O51   O     O_R   0.345434 0.059746 0.223075 -0.313105
N11   N     N_R   0.858783 0.404777 0.220161 0.267085
O52   O     O_R   0.908241 0.459386 0.276769 -0.363680
O53   O     O_R   0.798643 0.439903 0.151666 -0.327564
C52   C     C_2   0.878806 0.256790 0.088481 0.687944
H23   H     H_    0.896296 0.206118 0.042140 0.069200
O54   O     O_2   0.911906 0.329478 0.061531 -0.521745
N12   N     N_R   0.881732 0.795171 0.624480 0.269173
O55   O     O_R   0.885838 0.871596 0.587782 -0.256343
O56   O     O_R   0.750730 0.741865 0.606552 -0.344693
N13   N     N_R   0.964095 0.164170 0.204831 0.278358
O57   O     O_R   0.052522 0.114378 0.151186 -0.270959
O58   O     O_R   0.006417 0.148127 0.280671 -0.285276
C53   C     C_2   0.802669 0.193026 0.399134 0.741453
H24   H     H_    0.820122 0.128492 0.426750 0.186822
O59   O     O_2   0.927177 0.242784 0.412575 -0.492285
N14   N     N_R   0.692748 0.065198 0.290333 0.230951
O60   O     O_R   0.752995 0.017616 0.228498 -0.353598
O61   O     O_R   0.666351 0.022756 0.359599 -0.293007
C54   C     C_2   0.241227 0.905023 0.668458 0.953951
H25   H     H_    0.154313 0.964550 0.668693 0.095886
O62   O     O_2   0.384033 0.902047 0.627302 -0.407837
C55   C     C_2   0.461791 0.873106 0.253851 0.511779
H26   H     H_    0.553380 0.879786 0.306056 0.142613
O63   O     O_2   0.522296 0.890421 0.185392 -0.565372
N15   N     N_R   0.175977 0.916351 0.319293 0.279628
O64   O     O_R   0.237060 0.938141 0.392122 -0.196047
O65   O     O_R   0.069862 0.973915 0.281595 -0.255629
N16   N     N_R   0.330208 0.777523 0.416966 0.268666
O66   O     O_R   0.497760 0.794680 0.439314 -0.329029
O67   O     O_R   0.205268 0.771441 0.475061 -0.412659

loop_
_geom_bond_atom_site_label_1
_geom_bond_atom_site_label_2
_geom_bond_distance
_ccdc_geom_bond_type
C23   C27   1.594239 S    
C13   C17   1.645770 S    
C54   H25   1.078959 S    
N9    O48   1.293422 A    
C7    C8    1.550540 S    
C2    C33   1.574808 S    
C1    O6    1.334077 A    
C48   O38   1.220376 D    
C46   H17   1.066629 S    
C1    C25   1.581398 S    
C43   H14   1.087206 S    
C19   C44   1.505610 S    
O11   V4    2.057148 S    
H3    C19   1.096200 S    
C13   C14   1.594896 S    
N8    O45   1.301122 A    
C18   C20   1.570146 S    
N13   O58   1.280486 A    
N5    O37   1.296065 A    
O5    C3    1.337692 A    
C34   C36   1.626257 S    
N4    O34   1.301823 A    
O17   V4    1.804930 S    
V2    O10   2.285833 S    
C13   N15   1.475972 S    
C5    C8    1.541357 S    
C6    C7    1.550692 S    
C24   H10   1.110360 S    
C4    C12   1.554538 S    
O12   C37   1.341755 A    
C49   H20   1.081591 S    
C24   N3    1.469242 S    
C46   O30   1.216688 D    
C31   C53   1.543297 S    
O8    V2    2.049113 S    
C18   C19   1.592375 S    
C36   C52   1.573555 S    
O17   V3    2.215047 S    
N6    O40   1.298925 A    
O18   V4    2.048382 S    
C53   H24   1.076722 S    
C16   H4    1.106222 S    
O13   C40   1.332418 A    
C13   C55   1.524706 S    
O18   C39   1.346117 A    
O1    V2    2.060388 S    
C28   N4    1.485683 S    
C35   N14   1.482194 S    
O7    V1    2.214989 S    
N14   O61   1.302221 A    
C36   N13   1.496461 S    
C43   O25   1.219408 D    
O11   C38   1.330992 A    
C54   O62   1.220233 D    
O9    C4    1.345837 A    
N16   O67   1.299625 A    
C29   N8    1.496414 S    
H8    C23   1.101632 S    
C21   C45   1.528168 S    
C48   H19   1.074131 S    
N12   O56   1.299634 A    
C30   C50   1.535367 S    
C23   C25   1.581422 S    
N12   O55   1.300085 A    
C32   H11   1.065625 S    
C32   C36   1.635090 S    
C31   C33   1.618241 S    
N11   O52   1.292227 A    
C37   O16   1.343602 A    
C5    C12   1.563595 S    
C52   H23   1.074514 S    
V4    O20   2.285871 S    
C6    C11   1.551806 S    
C7    C10   1.570379 S    
C31   C51   1.531755 S    
N1    O21   1.300269 A    
O19   V4    2.049018 S    
C45   H16   1.081106 S    
O4    C2    1.341531 A    
H9    C27   1.088618 S    
C14   C18   1.572149 S    
O15   C39   1.341273 A    
C28   N5    1.484194 S    
C16   C20   1.572589 S    
O13   V3    2.075300 S    
C15   C43   1.542907 S    
C55   O63   1.213999 D    
O2    C1    1.348254 A    
C50   O46   1.214154 D    
C22   C47   1.536354 S    
C20   H6    1.106047 S    
C45   O27   1.220762 D    
C32   N11   1.473953 S    
C11   C12   1.562370 S    
C8    C9    1.545481 S    
C47   O31   1.219352 D    
C5    C6    1.532714 S    
N14   O60   1.292923 A    
C16   H5    1.097564 S    
N3    O33   1.299838 A    
O16   V4    2.062216 S    
O14   V3    2.079144 S    
N13   O57   1.296096 A    
C3    C18   1.568664 S    
N2    O29   1.299247 A    
N7    O42   1.298593 A    
O3    C4    1.339839 A    
C21   C25   1.616120 S    
C15   C41   1.524187 S    
C23   C48   1.503789 S    
N10   O51   1.290158 A    
C26   C27   1.609432 S    
C44   O26   1.216823 D    
O6    V2    2.056852 S    
C42   O24   1.218775 D    
O9    V2    2.048292 S    
N16   O66   1.298606 A    
C29   N7    1.472020 S    
C52   O54   1.214232 D    
C20   C42   1.510784 S    
C9    N12   1.458954 S    
C50   H21   1.068398 S    
O2    V1    2.079292 S    
C21   C22   1.609345 S    
C41   O23   1.218047 D    
O12   V3    2.092676 S    
C22   C26   1.586962 S    
C32   C33   1.587911 S    
C22   H7    1.100886 S    
C6    N1    1.451587 S    
N15   O65   1.291846 A    
O1    C2    1.333767 A    
C16   C17   1.584249 S    
C34   C37   1.589500 S    
N1    O22   1.295875 A    
O19   C40   1.363390 A    
O5    V1    2.075210 S    
C8    N6    1.453413 S    
C31   C35   1.649053 S    
C10   C54   1.491608 S    
C15   C19   1.600574 S    
C30   N9    1.465735 S    
C55   H26   1.079168 S    
N9    O47   1.297738 A    
O7    V2    1.805533 S    
C29   C30   1.649231 S    
O3    V1    2.086241 S    
V1    O10   1.754949 S    
N5    O36   1.302072 A    
C15   C17   1.599668 S    
N11   O53   1.293484 A    
C34   C35   1.664960 S    
C51   H22   1.073952 S    
N4    O35   1.298174 A    
C24   C28   1.595952 S    
C7    C39   1.560278 S    
O15   V3    2.086234 S    
C26   C28   1.606538 S    
C47   H18   1.078157 S    
V3    O20   1.754964 S    
C29   C33   1.598063 S    
C53   O59   1.214391 D    
N2    O28   1.297785 A    
C49   O41   1.211809 D    
N7    O43   1.284979 A    
N15   O64   1.301903 A    
C21   C46   1.508843 S    
C30   C34   1.659523 S    
C14   N16   1.482699 S    
C41   H12   1.080662 S    
C27   C49   1.495983 S    
C24   C25   1.618455 S    
O4    V1    2.092681 S    
C11   H1    1.106732 S    
C44   H15   1.072276 S    
C42   H13   1.083880 S    
C9    C12   1.556078 S    
N3    O32   1.296687 A    
C51   O49   1.224940 D    
C10   C11   1.563160 S    
N10   O50   1.296768 A    
C5    N2    1.457904 S    
C26   C38   1.561374 S    
C9    C10   1.545088 S    
C17   C40   1.583153 S    
N6    O39   1.299490 A    
O8    C3    1.349528 A    
O14   C38   1.343208 A    
N8    O44   1.296182 A    
C14   H2    1.115297 S    
C35   N10   1.481061 S    
