data_mof_unit_64850.cif
_audit_creation_date              2012-12-10T19:39:36-0500
_audit_creation_method            fapswitch 2.2
_symmetry_space_group_name_H-M    P1
_symmetry_Int_Tables_number       1
_space_group_crystal_system       triclinic
_cell_length_a                    15.853838
_cell_length_b                    17.107959
_cell_length_c                    17.293096
_cell_angle_alpha                 89.243956
_cell_angle_beta                  96.401595
_cell_angle_gamma                 82.904432
_cell_volume                      4623.67915725

loop_
_atom_site_label
_atom_site_type_symbol
_atom_type_description
_atom_site_fract_x
_atom_site_fract_y
_atom_site_fract_z
_atom_type_partial_charge
C1    C     C_R   0.510817 0.348558 0.500440 0.847057
C2    C     C_R   0.489133 0.651511 0.499119 0.883332
C3    C     C_R   0.516607 0.262479 0.499802 -0.026300
C4    C     C_R   0.483101 0.737738 0.498446 -0.009162
C5    C     C_R   0.445831 0.225434 0.514984 -0.198843
C6    C     C_R   0.556478 0.774366 0.491710 -0.235512
C7    C     C_R   0.449837 0.143919 0.513180 -0.143903
C8    C     C_R   0.552028 0.855942 0.491851 -0.137842
C9    C     C_R   0.525134 0.097851 0.495796 0.375355
C10   C     C_R   0.473606 0.902632 0.498953 0.380241
C11   C     C_R   0.595687 0.134989 0.481005 -0.165921
C12   C     C_R   0.400515 0.865980 0.505443 -0.192371
C13   C     C_R   0.591547 0.216773 0.482669 -0.179317
C14   C     C_R   0.404958 0.784122 0.505123 -0.113601
C15   C     C_R   0.251707 0.467151 0.543123 0.042598
C16   C     C_R   0.746822 0.549627 0.474310 0.046743
C17   C     C_R   0.162032 0.471322 0.542245 -0.251646
C18   C     C_R   0.836288 0.549637 0.476388 -0.251067
C19   C     C_R   0.107110 0.520132 0.486409 0.366981
C20   C     C_R   0.892763 0.487699 0.515322 0.365785
C21   C     C_R   0.144849 0.562623 0.433394 -0.319388
C22   C     C_R   0.857080 0.427838 0.549821 -0.308331
C23   C     C_R   0.509854 0.507740 0.650038 0.833673
C24   C     C_R   0.489326 0.499061 0.349566 0.890517
C25   C     C_R   0.234196 0.557104 0.435607 0.161213
C26   C     C_R   0.767988 0.428700 0.546536 0.178147
C27   C     C_R   0.509242 0.528524 0.733119 -0.179768
C28   C     C_R   0.485234 0.493773 0.264749 -0.179544
C29   C     C_R   0.433074 0.570300 0.756722 -0.033868
C30   C     C_R   0.538202 0.536533 0.223737 -0.029312
C31   C     C_R   0.421369 0.572615 0.835163 -0.111741
C32   C     C_R   0.540562 0.524924 0.144320 -0.146152
C33   C     C_R   0.485484 0.539024 0.891354 0.118624
C34   C     C_R   0.486067 0.477372 0.103869 0.109183
C35   C     C_R   0.564462 0.506495 0.869683 -0.145393
C36   C     C_R   0.432496 0.436580 0.143585 -0.097834
C37   C     C_R   0.577858 0.501839 0.791152 -0.040018
C38   C     C_R   0.432946 0.442297 0.224102 -0.042052
C39   C     C_2   0.469935 0.540602 0.973740 -0.130715
C40   C     C_2   0.482708 0.473104 0.018519 -0.129511
Cu1   Cu    Cu3+1 0.585060 0.496170 0.503810 1.018637
Cu2   Cu    Cu3+1 0.414940 0.503830 0.496190 1.025810
H1    H     H_    0.704700 0.597390 0.443770 0.146916
H2    H     H_    0.292952 0.429871 0.586409 0.143407
H3    H     H_    0.860498 0.597714 0.448154 0.168505
H4    H     H_    0.136433 0.437057 0.585077 0.168865
H5    H     H_    0.104219 0.600247 0.389700 0.164709
H6    H     H_    0.899565 0.379384 0.579444 0.172141
H7    H     H_    0.615738 0.484824 0.914500 0.157995
H8    H     H_    0.391369 0.399064 0.111565 0.169596
H9    H     H_    0.581658 0.556483 0.112575 0.162947
H10   H     H_    0.362028 0.601491 0.852903 0.170400
H11   H     H_    0.617590 0.740050 0.486295 0.159694
H12   H     H_    0.387278 0.259427 0.528544 0.162813
H13   H     H_    0.610076 0.882014 0.486782 0.162808
H14   H     H_    0.394070 0.117369 0.525496 0.161377
H15   H     H_    0.653849 0.100331 0.467483 0.159085
H16   H     H_    0.339941 0.901114 0.511126 0.155454
H17   H     H_    0.646293 0.244198 0.469238 0.196340
H18   H     H_    0.347533 0.757296 0.510928 0.207775
N1    N     N_2   0.532916 0.014509 0.493037 -0.252753
N2    N     N_2   0.465546 0.986047 0.500829 -0.250560
N3    N     N_R   0.287170 0.509590 0.490460 -0.213628
N4    N     N_R   0.712830 0.490410 0.509540 -0.204617
N5    N     N_2   0.015112 0.528763 0.480486 -0.218305
N6    N     N_2   0.984587 0.481529 0.521991 -0.222894
O1    O     O_R   0.579730 0.382480 0.503570 -0.591884
O2    O     O_R   0.420270 0.617520 0.496430 -0.546495
O3    O     O_R   0.436070 0.388960 0.497130 -0.573242
O4    O     O_R   0.563930 0.611040 0.502870 -0.605637
O5    O     O_R   0.580160 0.496380 0.617190 -0.509086
O6    O     O_R   0.419840 0.503620 0.382810 -0.560440
O7    O     O_R   0.436500 0.502850 0.610750 -0.596863
O8    O     O_R   0.563500 0.497150 0.389250 -0.582746
C41   C     C_2   0.365340 0.615644 0.701928 0.876261
O9    O     O_2   0.384853 0.656485 0.649893 -0.609083
O10   O     O_R   0.279207 0.613977 0.711729 -0.754584
H19   H     H_    0.239167 0.647374 0.670883 0.339059
C42   C     C_2   0.588221 0.596917 0.260769 0.859952
O11   O     O_2   0.657490 0.606324 0.239671 -0.582419
O12   O     O_R   0.554846 0.645089 0.317644 -0.769555
H20   H     H_    0.594469 0.684383 0.337596 0.324722
C43   C     C_2   0.267391 0.602969 0.375982 0.889894
O13   O     O_2   0.287921 0.668126 0.390607 -0.603748
O14   O     O_R   0.268321 0.574359 0.300709 -0.736078
H21   H     H_    0.291255 0.611351 0.264231 0.345515
C44   C     C_2   0.739205 0.358654 0.581443 0.865868
O15   O     O_2   0.769781 0.292964 0.563963 -0.625095
O16   O     O_R   0.682444 0.366157 0.637630 -0.721776
H22   H     H_    0.669299 0.313408 0.657345 0.328608
C45   C     C_2   0.380614 0.390961 0.263123 0.894127
O17   O     O_2   0.408691 0.357158 0.325076 -0.603973
O18   O     O_R   0.300209 0.378504 0.226905 -0.726210
H23   H     H_    0.270903 0.341833 0.258521 0.344386
C46   C     C_2   0.664583 0.470435 0.773879 0.912540
O19   O     O_2   0.702194 0.507475 0.730698 -0.553390
O20   O     O_R   0.705837 0.401058 0.811604 -0.744720
H24   H     H_    0.765659 0.386316 0.796592 0.347398
C47   C     C_2   0.495092 0.393116 0.984817 0.866613
O21   O     O_2   0.536198 0.338317 0.023983 -0.566864
O22   O     O_R   0.457726 0.379747 0.909775 -0.741206
H25   H     H_    0.470785 0.323023 0.894113 0.346103
C48   C     C_2   0.438942 0.618836 0.004779 0.850227
O23   O     O_2   0.459659 0.679005 0.977445 -0.568034
O24   O     O_R   0.384172 0.623931 0.063100 -0.738036
H26   H     H_    0.367754 0.680179 0.078750 0.347039

loop_
_geom_bond_atom_site_label_1
_geom_bond_atom_site_label_2
_ccdc_geom_bond_type
C22   H6    S    
C44   O15   D    
O18   H23   S    
C27   C29   A    
Cu1   Cu2   S    
C46   O19   D    
C31   H10   S    
C40   C47   S    
O12   H20   S    
Cu1   O1    S    
O10   H19   S    
O22   H25   S    
C9    N1    S    
C20   N6    S    
C19   C21   A    
C15   H2    S    
C2    O2    A    
C33   C35   A    
C37   C46   S    
C7    C9    A    
C25   N3    A    
C26   N4    A    
C17   C19   A    
Cu1   O8    S    
C47   O21   D    
C26   C44   S    
C35   H7    S    
C31   C33   A    
C23   C27   S    
C18   C20   A    
C3    C13   A    
Cu1   O5    S    
C12   H16   S    
Cu2   O2    S    
C10   N2    S    
C7    H14   S    
C23   O7    A    
C8    H13   S    
O20   H24   S    
C23   O5    A    
C5    H12   S    
C17   H4    S    
C4    C6    A    
C39   C40   D    
C5    C7    A    
C6    C8    A    
O14   H21   S    
C38   C45   S    
Cu2   O3    S    
C1    O3    A    
C1    C3    S    
C32   C34   A    
C2    C4    S    
C41   O9    D    
C32   H9    S    
C45   O18   S    
C9    C11   A    
C43   O13   D    
C28   C38   A    
Cu2   O6    S    
C48   O24   S    
C33   C39   S    
C41   O10   S    
C16   H1    S    
C10   C12   A    
C13   H17   S    
C30   C42   S    
C16   C18   A    
C43   O14   S    
C20   C22   A    
C44   O16   S    
C34   C40   S    
C6    H11   S    
C18   H3    S    
C45   O17   D    
C36   H8    S    
C24   O6    A    
C42   O12   S    
C15   C17   A    
C21   C25   A    
Cu2   O7    S    
C35   C37   A    
C24   C28   S    
C12   C14   A    
C3    C5    A    
C46   O20   S    
C39   C48   S    
C29   C41   S    
C14   H18   S    
O24   H26   S    
C36   C38   A    
C29   C31   A    
C11   H15   S    
C30   C32   A    
C11   C13   A    
C24   O8    A    
C27   C37   A    
C28   C30   A    
C1    O1    A    
C19   N5    S    
C34   C36   A    
C4    C14   A    
N1    N2    D    
C42   O11   D    
C8    C10   A    
N5    N6    D    
C22   C26   A    
C48   O23   D    
C25   C43   S    
C15   N3    A    
C16   N4    A    
Cu1   N4    S    
O16   H22   S    
C2    O4    A    
Cu2   N3    S    
C47   O22   S    
Cu1   O4    S    
C21   H5    S    
