data_mof_unit_64405.cif
_audit_creation_date              2012-12-10T18:24:45-0500
_audit_creation_method            fapswitch 2.2
_symmetry_space_group_name_H-M    P1
_symmetry_Int_Tables_number       1
_space_group_crystal_system       triclinic
_cell_length_a                    16.049051
_cell_length_b                    16.045961
_cell_length_c                    19.513327
_cell_angle_alpha                 95.46752
_cell_angle_beta                  90.714332
_cell_angle_gamma                 84.091616
_cell_volume                      4975.66617285

loop_
_atom_site_label
_atom_site_type_symbol
_atom_type_description
_atom_site_fract_x
_atom_site_fract_y
_atom_site_fract_z
_atom_type_partial_charge
C1    C     C_R   0.275758 0.510840 0.490983 0.511926
C2    C     C_2   0.500984 0.553257 0.984136 0.259904
C3    C     C_2   0.510172 0.482807 0.016722 -0.033990
C4    C     C_R   0.724107 0.489201 0.509011 0.502350
C5    C     C_R   0.511345 0.486390 0.235919 -0.017350
C6    C     C_1   0.186208 0.515797 0.486920 -0.002684
C7    C     C_2   0.020430 0.525580 0.478908 0.250407
C8    C     C_2   0.978969 0.478866 0.517551 -0.050485
C9    C     C_1   0.888922 0.481920 0.515042 0.022292
C10   C     C_1   0.110924 0.520161 0.483347 -0.062006
C11   C     C_1   0.813652 0.484984 0.512511 0.034309
C12   C     C_R   0.501381 0.545027 0.908077 0.057727
C13   C     C_1   0.516460 0.184869 0.486741 0.000120
C14   C     C_2   0.524905 0.017555 0.479085 0.294688
C15   C     C_2   0.474945 0.982440 0.520862 0.292786
C16   C     C_R   0.511687 0.274861 0.490823 0.507574
C17   C     C_1   0.479472 0.890801 0.516723 -0.015409
C18   C     C_1   0.520399 0.109196 0.483226 -0.015008
C19   C     C_1   0.483413 0.815132 0.513216 0.000949
C20   C     C_R   0.488166 0.725148 0.509149 0.508491
C21   C     C_R   0.509824 0.489773 0.311274 0.509689
C22   C     C_R   0.490623 0.510669 0.688733 0.512295
C23   C     C_R   0.433411 0.583234 0.872838 -0.176636
C24   C     C_R   0.492913 0.520903 0.764163 0.006674
C25   C     C_R   0.561551 0.483404 0.799246 -0.114238
C26   C     C_R   0.566804 0.495715 0.871216 0.230886
C27   C     C_3   0.372648 0.991225 0.607003 -0.011874
C28   C     C_3   0.317052 0.054069 0.653993 -0.356515
C29   C     C_3   0.627050 0.008717 0.392812 -0.013821
C30   C     C_3   0.682553 0.945831 0.345780 -0.348921
C31   C     C_R   0.429268 0.571497 0.801341 -0.141986
C32   C     C_R   0.560432 0.535189 0.131704 -0.085850
C33   C     C_R   0.561538 0.536748 0.203048 -0.144871
C34   C     C_R   0.460858 0.433587 0.196405 -0.051845
C35   C     C_R   0.458228 0.432075 0.124876 0.243839
C36   C     C_R   0.508376 0.484119 0.092067 0.054836
H1    H     H_    0.611783 0.445680 0.770667 0.126846
H2    H     H_    0.018127 0.606965 0.411618 0.330842
H3    H     H_    0.413573 0.950996 0.639863 0.139285
H4    H     H_    0.331535 0.951988 0.574173 0.140090
H5    H     H_    0.274887 0.094933 0.622764 0.166189
H6    H     H_    0.278392 0.019996 0.686546 0.103603
H7    H     H_    0.356220 0.093953 0.687881 0.167726
H8    H     H_    0.668220 0.048010 0.425530 0.136423
H9    H     H_    0.586011 0.048880 0.359981 0.139214
H10   H     H_    0.643321 0.905884 0.312011 0.171913
H11   H     H_    0.721100 0.979870 0.313109 0.103233
H12   H     H_    0.012758 0.437499 0.551742 0.076340
H13   H     H_    0.724826 0.905030 0.376980 0.173386
H14   H     H_    0.483599 0.674897 0.988876 0.327583
H15   H     H_    0.675065 0.428829 0.872960 0.326399
H16   H     H_    0.601581 0.577415 0.232413 0.152101
H17   H     H_    0.421787 0.394134 0.221125 0.169413
H18   H     H_    0.515879 0.421707 0.986878 0.115957
H19   H     H_    0.382639 0.620811 0.900862 0.136400
H20   H     H_    0.600880 0.573560 0.107270 0.171393
H21   H     H_    0.376015 0.601465 0.775201 0.147303
H22   H     H_    0.398346 0.393756 0.041747 0.323666
O1    O     O_3   0.500000 0.500000 0.500000 -0.442473
O2    O     O_R   0.462330 0.445560 0.340470 -0.548297
O3    O     O_R   0.440930 0.559110 0.655640 -0.543680
O4    O     O_R   0.554010 0.538050 0.348260 -0.536508
O5    O     O_R   0.542730 0.457290 0.655630 -0.543250
O6    O     O_3   0.404730 0.380413 0.090060 -0.694298
O7    O     O_3   0.976896 0.578016 0.435569 -0.671197
O8    O     O_3   0.421378 0.035485 0.565975 -0.579715
O9    O     O_3   0.578469 0.964491 0.433983 -0.575062
O10   O     O_3   0.484583 0.630891 0.021340 -0.702620
O11   O     O_3   0.635256 0.461385 0.906393 -0.708497
O12   O     O_R   0.555880 0.314540 0.535300 -0.533504
O13   O     O_R   0.439840 0.689760 0.546310 -0.545354
O14   O     O_R   0.320170 0.458170 0.449830 -0.530160
O15   O     O_R   0.684110 0.537530 0.468570 -0.523272
O16   O     O_R   0.310830 0.559620 0.535340 -0.536714
O17   O     O_R   0.684890 0.444680 0.546270 -0.544426
O18   O     O_R   0.463420 0.314900 0.449800 -0.534452
O19   O     O_R   0.540870 0.680800 0.468590 -0.521483
Zn1   Zn    Zn3+2 0.569660 0.430340 0.558290 0.946764
Zn2   Zn    Zn3+2 0.437560 0.430860 0.436130 0.954327
Zn3   Zn    Zn3+2 0.568560 0.563000 0.447270 0.965644
Zn4   Zn    Zn3+2 0.424220 0.575810 0.558310 0.944666

loop_
_geom_bond_atom_site_label_1
_geom_bond_atom_site_label_2
_ccdc_geom_bond_type
C7    C10   S    
O2    Zn2   S    
O12   Zn1   S    
C14   C18   S    
C35   C36   A    
O18   Zn2   S    
C2    C12   S    
C7    C8    D    
C33   H16   S    
C12   C23   A    
C13   C18   T    
C1    O16   A    
C32   C36   A    
O4    Zn3   S    
O14   Zn2   S    
C2    O10   S    
C3    H18   S    
C28   H5    S    
C34   C35   A    
C4    O17   A    
C25   H1    S    
C22   O5    A    
C29   O9    S    
C19   C20   S    
C27   H3    S    
C8    C9    S    
C5    C33   A    
C14   O9    S    
C20   O13   A    
C35   O6    S    
O1    Zn1   S    
H22   O6    S    
C1    O14   A    
C1    C6    S    
C30   H11   S    
C16   O12   A    
C24   C25   A    
C21   O2    A    
O1    Zn2   S    
C25   C26   A    
C15   O8    S    
C12   C26   A    
C23   C31   A    
C8    H12   S    
C29   C30   S    
C7    O7    S    
H2    O7    S    
C27   H4    S    
C5    C34   A    
C4    O15   A    
C4    C11   S    
C9    C11   T    
C21   O4    A    
C20   O19   A    
C30   H13   S    
C29   H8    S    
C22   C24   S    
O16   Zn4   S    
O19   Zn3   S    
C15   C17   S    
C16   O18   A    
C30   H10   S    
O1    Zn4   S    
O1    Zn3   S    
C6    C10   T    
C23   H19   S    
C28   H7    S    
C32   C33   A    
C31   H21   S    
C2    C3    D    
C24   C31   A    
C27   O8    S    
O3    Zn4   S    
C22   O3    A    
C3    C36   S    
C28   H6    S    
C17   C19   T    
O15   Zn3   S    
O17   Zn1   S    
C5    C21   S    
C34   H17   S    
C13   C16   S    
C29   H9    S    
C27   C28   S    
C26   O11   S    
C14   C15   D    
H15   O11   S    
H14   O10   S    
C32   H20   S    
O13   Zn4   S    
O5    Zn1   S    
