data_mof_unit_59866.cif
_audit_creation_date              2012-12-10T17:19:53-0500
_audit_creation_method            fapswitch 2.2
_symmetry_space_group_name_H-M    P1
_symmetry_Int_Tables_number       1
_space_group_crystal_system       triclinic
_cell_length_a                    9.686614
_cell_length_b                    10.841029
_cell_length_c                    15.759635
_cell_angle_alpha                 83.615862
_cell_angle_beta                  71.726443
_cell_angle_gamma                 91.197787
_cell_volume                      1559.03010391

loop_
_atom_site_label
_atom_site_type_symbol
_atom_type_description
_atom_site_fract_x
_atom_site_fract_y
_atom_site_fract_z
_atom_type_partial_charge
C1    C     C_R   0.001735 0.263698 0.494689 0.835814
C2    C     C_R   0.676376 0.435297 0.916225 0.000191
C3    C     C_R   0.779516 0.461263 0.960304 -0.059847
C4    C     C_R   0.529069 0.399599 0.968367 -0.115684
C5    C     C_R   0.480313 0.422471 0.059143 -0.099530
C6    C     C_R   0.584137 0.442582 0.102730 0.630109
C7    C     C_R   0.732333 0.459274 0.054323 0.059247
C8    C     C_R   0.430932 0.335629 0.935546 0.530036
C9    C     C_R   0.286006 0.303929 0.989967 0.145455
C10   C     C_R   0.233460 0.343950 0.075968 -0.112972
C11   C     C_R   0.329390 0.413357 0.106543 -0.104176
C12   C     C_R   0.915615 0.496505 0.672026 0.801727
C13   C     C_R   0.088616 0.316493 0.133258 0.726755
C14   C     C_R   0.039528 0.365253 0.215564 -0.383710
C15   C     C_R   0.271548 0.475901 0.182217 0.700550
C16   C     C_R   0.272226 0.132574 0.415705 0.565422
C17   C     C_R   0.401558 0.078330 0.415336 -0.273343
C18   C     C_R   0.396851 0.962652 0.464318 0.527317
C19   C     C_R   0.263694 0.895239 0.505248 -0.246783
C20   C     C_R   0.133049 0.942903 0.496574 -0.091877
C21   C     C_R   0.135964 0.070143 0.466028 -0.043561
C22   C     C_R   0.003351 0.130089 0.489548 -0.094116
C23   C     C_R   0.998370 0.736337 0.507520 0.822447
C24   C     C_R   0.870844 0.059766 0.525444 -0.217227
C25   C     C_R   0.867185 0.930368 0.537605 0.168599
C26   C     C_R   0.999573 0.870262 0.517587 -0.098893
C27   C     C_R   0.719897 0.639696 0.352320 0.239654
C28   C     C_R   0.690480 0.669119 0.272181 -0.330154
C29   C     C_R   0.550318 0.669548 0.272240 -0.069378
C30   C     C_R   0.437357 0.639940 0.352612 0.307999
C31   C     C_R   0.463083 0.569225 0.428835 0.151406
C32   C     C_R   0.612907 0.569463 0.428898 0.156793
C33   C     C_R   0.536472 0.430123 0.564701 0.214207
C34   C     C_R   0.083444 0.490450 0.329507 0.879250
C35   C     C_R   0.390249 0.432473 0.564737 -0.023748
C36   C     C_R   0.867841 0.484775 0.771068 -0.166987
C37   C     C_R   0.129374 0.448693 0.239233 -0.230913
C38   C     C_R   0.927104 0.489973 0.908895 0.682166
C39   C     C_R   0.970053 0.500011 0.815628 -0.290190
C40   C     C_R   0.721970 0.453497 0.821450 -0.134393
Cu1   Cu    Cu3+1 0.140660 0.499990 0.500010 1.007540
Cu2   Cu    Cu3+1 0.859340 0.500010 0.499990 0.969572
H1    H     H_    0.769424 0.105723 0.545766 0.172720
H2    H     H_    0.505372 0.126976 0.378149 0.205143
H3    H     H_    0.265520 0.806985 0.543872 0.209307
H4    H     H_    0.773165 0.717917 0.214085 0.161664
H5    H     H_    0.530121 0.718488 0.213888 0.194452
H6    H     H_    0.306164 0.376285 0.617760 0.150634
H7    H     H_    0.931083 0.337552 0.260969 0.202169
H8    H     H_    0.083927 0.522726 0.778185 0.185373
H9    H     H_    0.643914 0.449416 0.786075 0.205920
N1    N     N_R   0.648320 0.501210 0.499140 -0.201520
N2    N     N_R   0.352470 0.501290 0.499110 -0.206175
O1    O     O_R   0.118810 0.319640 0.500010 -0.538308
O2    O     O_R   0.881240 0.319660 0.500000 -0.615526
O3    O     O_R   0.055570 0.499980 0.629840 -0.595933
O4    O     O_R   0.818000 0.500010 0.629830 -0.606825
O5    O     O_R   0.118760 0.680340 0.500000 -0.577015
O6    O     O_R   0.881190 0.680360 0.499990 -0.514977
O7    O     O_R   0.182000 0.499990 0.370170 -0.486184
O8    O     O_R   0.944430 0.500020 0.370160 -0.586884
N3    N     N_3   0.834170 0.478346 0.101167 -0.454836
H10   H     H_    0.821520 0.566724 0.121423 0.226210
H11   H     H_    0.807429 0.413441 0.158757 0.277547
F1    F     F_    0.995303 0.239663 0.112033 -0.629216
F2    F     F_    0.281205 0.241556 0.362171 -0.628694
F3    F     F_    0.522198 0.911688 0.466883 -0.678691
N4    N     N_3   0.729570 0.860013 0.575255 -0.492944
H12   H     H_    0.727336 0.813475 0.637506 0.202178
H13   H     H_    0.643483 0.919106 0.589008 0.262701
N5    N     N_3   0.562028 0.348230 0.635023 -0.568110
H14   H     H_    0.529340 0.392064 0.693122 0.250067
H15   H     H_    0.670968 0.330253 0.620644 0.278629
N6    N     N_3   0.839615 0.712145 0.358696 -0.486073
H16   H     H_    0.809853 0.804194 0.361984 0.252903
H17   H     H_    0.929415 0.712308 0.300515 0.193427
F4    F     F_    0.349389 0.572325 0.195252 -0.695481
N7    N     N_3   0.314443 0.712748 0.359988 -0.517038
H18   H     H_    0.275742 0.706277 0.305814 0.249157
H19   H     H_    0.350679 0.805945 0.352027 0.193130
N8    N     N_3   0.191961 0.233955 0.956118 -0.447494
H20   H     H_    0.237999 0.149423 0.941211 0.249449
H21   H     H_    0.187554 0.283317 0.896201 0.254898
F5    F     F_    0.031099 0.510769 0.947599 -0.655104
F6    F     F_    0.544561 0.430138 0.194140 -0.623013
F7    F     F_    0.478085 0.288814 0.855696 -0.706406

loop_
_geom_bond_atom_site_label_1
_geom_bond_atom_site_label_2
_ccdc_geom_bond_type
C23   O5    A    
C16   C21   A    
C35   N2    A    
C34   C37   S    
Cu1   Cu2   S    
C19   C20   A    
C4    C8    A    
N8    H20   S    
C7    N3    S    
C13   F1    S    
C33   N1    A    
C23   O6    A    
C28   H4    S    
C29   C30   A    
C6    F6    S    
N6    H17   S    
C29   H5    S    
C28   C29   A    
Cu1   O5    S    
C5    C11   A    
C3    C7    A    
C5    C6    A    
N7    H19   S    
C14   H7    S    
C18   C19   A    
C23   C26   S    
C32   N1    A    
N3    H11   S    
N4    H12   S    
C11   C15   A    
C15   C37   A    
C3    C38   A    
C8    C9    A    
C12   C36   S    
C27   N6    S    
C9    C10   A    
C1    C22   S    
C21   C22   A    
C34   O7    A    
C25   N4    S    
C35   H6    S    
Cu2   O4    S    
N8    H21   S    
C38   C39   A    
N6    H16   S    
C36   C40   A    
C24   C25   A    
C18   F3    S    
N5    H15   S    
N7    H18   S    
C16   C17   A    
C25   C26   A    
C34   O8    A    
C2    C4    A    
C1    O1    A    
Cu1   O3    S    
N3    H10   S    
Cu2   O2    S    
C31   C32   A    
C30   C31   A    
C17   C18   A    
C31   N2    A    
Cu2   O8    S    
Cu1   N2    S    
C12   O3    A    
C12   O4    A    
C22   C24   A    
C16   F2    S    
C38   F5    S    
C27   C32   A    
C36   C39   A    
Cu1   O7    S    
C4    C5    A    
C10   C13   A    
Cu2   O6    S    
C19   H3    S    
C6    C7    A    
C40   H9    S    
C2    C3    A    
C1    O2    A    
C17   H2    S    
N5    H14   S    
C14   C37   A    
C15   F4    S    
C20   C26   A    
C33   C35   A    
C8    F7    S    
Cu1   O1    S    
C10   C11   A    
C33   N5    S    
C30   N7    S    
C2    C40   A    
C39   H8    S    
C20   C21   A    
N4    H13   S    
Cu2   N1    S    
C27   C28   A    
C24   H1    S    
C13   C14   A    
C9    N8    S    
