data_mof_unit_23652.cif
_audit_creation_date              2012-12-10T21:26:07-0500
_audit_creation_method            fapswitch 2.2
_symmetry_space_group_name_H-M    P1
_symmetry_Int_Tables_number       1
_space_group_crystal_system       triclinic
_cell_length_a                    8.575155
_cell_length_b                    16.245776
_cell_length_c                    16.741796
_cell_angle_alpha                 86.623089
_cell_angle_beta                  94.300575
_cell_angle_gamma                 100.075067
_cell_volume                      2287.37802669

loop_
_atom_site_label
_atom_site_type_symbol
_atom_type_description
_atom_site_fract_x
_atom_site_fract_y
_atom_site_fract_z
_atom_type_partial_charge
C1    C     C_R   0.485732 0.487802 0.652815 0.892290
C2    C     C_R   0.406622 0.151248 0.423382 0.017405
C3    C     C_R   0.618415 0.760983 0.567564 0.233862
C4    C     C_R   0.395734 0.236810 0.429979 0.242777
C5    C     C_R   0.800428 0.521124 0.502902 0.983289
C6    C     C_R   0.199566 0.478755 0.497136 0.966988
C7    C     C_2   0.966298 0.530912 0.509995 -0.428531
C8    C     C_2   0.033635 0.468376 0.490342 -0.386064
C9    C     C_R   0.460441 0.481468 0.739737 -0.260209
C10   C     C_R   0.539133 0.521758 0.262449 -0.213856
C11   C     C_R   0.457994 0.556343 0.778673 0.161121
C12   C     C_R   0.507527 0.511914 0.347303 0.982419
C13   C     C_R   0.654827 0.479933 0.234347 0.089100
C14   C     C_R   0.493332 0.558896 0.861408 0.104151
C15   C     C_R   0.684170 0.487746 0.152676 0.127437
C16   C     C_R   0.500259 0.483331 0.906744 0.205361
C17   C     C_R   0.606710 0.541432 0.101758 0.212889
C18   C     C_R   0.464750 0.406340 0.869788 0.119825
C19   C     C_R   0.502758 0.588791 0.130476 0.097477
C20   C     C_R   0.443217 0.404472 0.785248 -0.245063
C21   C     C_R   0.462880 0.576409 0.210700 -0.142310
C22   C     C_3   0.702128 0.347371 0.301334 -0.738347
C23   C     C_R   0.411022 0.758627 0.464454 0.208284
C24   C     C_3   0.244902 0.619635 0.711619 -0.770086
C25   C     C_3   0.935456 0.481549 0.098190 -0.797789
C26   C     C_3   0.667037 0.687519 0.896927 -0.763196
C27   C     C_3   0.289521 0.300721 0.943296 -0.740716
C28   C     C_3   0.275396 0.617310 0.043892 -0.737753
C29   C     C_2   0.379986 0.324059 0.746184 0.974687
C30   C     C_2   0.329863 0.612609 0.237759 0.911052
C31   C     C_3   0.843647 0.302412 0.604322 -0.759168
C32   C     C_3   0.133662 0.713568 0.413227 -0.705439
C33   C     C_3   0.622598 0.107371 0.684014 -0.669804
C34   C     C_R   0.577028 0.244934 0.545236 0.231976
C35   C     C_3   0.166667 0.903935 0.477792 -0.771731
C36   C     C_3   0.619757 0.889231 0.714697 -0.784807
C37   C     C_3   0.166059 0.083778 0.348424 -0.776324
C38   C     C_3   0.879735 0.725629 0.599358 -0.791340
C39   C     C_3   0.146843 0.283471 0.384731 -0.698748
C40   C     C_R   0.408898 0.844997 0.472794 0.077010
C41   C     C_R   0.579427 0.157282 0.545439 0.057862
C42   C     C_R   0.518498 0.891323 0.527428 0.160445
C43   C     C_R   0.493972 0.109622 0.483091 0.127430
C44   C     C_R   0.615699 0.847225 0.578855 0.024981
H1    H     H_    0.033222 0.588720 0.532722 0.179610
H2    H     H_    0.223359 0.674516 0.672258 0.231138
H3    H     H_    0.787300 0.380700 0.149253 0.245814
H4    H     H_    0.007705 0.504139 0.152787 0.260083
H5    H     H_    0.922521 0.535296 0.055566 0.251920
H6    H     H_    0.998187 0.438522 0.068734 0.240563
H7    H     H_    0.420199 0.669504 0.886053 0.225314
H8    H     H_    0.690874 0.710417 0.834548 0.206810
H9    H     H_    0.760908 0.651535 0.920286 0.252698
H10   H     H_    0.673692 0.742283 0.934461 0.241847
H11   H     H_    0.507201 0.285812 0.902888 0.267485
H12   H     H_    0.967129 0.410121 0.468005 0.182448
H13   H     H_    0.209528 0.280519 0.890144 0.242337
H14   H     H_    0.243133 0.350083 0.972920 0.238725
H15   H     H_    0.290859 0.246320 0.986552 0.236459
H16   H     H_    0.452466 0.706412 0.095552 0.259653
H17   H     H_    0.245279 0.660435 0.993498 0.223214
H18   H     H_    0.189572 0.617415 0.090030 0.242534
H19   H     H_    0.263670 0.553514 0.021199 0.248776
H20   H     H_    0.202088 0.370487 0.682297 0.287918
H21   H     H_    0.114781 0.589638 0.283477 0.328300
H22   H     H_    0.627864 0.296667 0.657260 0.256973
H23   H     H_    0.872052 0.454512 0.283905 0.238851
H24   H     H_    0.885253 0.263082 0.655219 0.242558
H25   H     H_    0.900078 0.367944 0.614783 0.249216
H26   H     H_    0.881992 0.283449 0.547179 0.226129
H27   H     H_    0.324151 0.658039 0.393146 0.299847
H28   H     H_    0.064367 0.651638 0.398183 0.218352
H29   H     H_    0.091658 0.760125 0.369428 0.261984
H30   H     H_    0.109977 0.726394 0.474928 0.229598
H31   H     H_    0.796492 0.136232 0.599999 0.235001
H32   H     H_    0.636803 0.168073 0.712616 0.250301
H33   H     H_    0.695994 0.067924 0.721023 0.229727
H34   H     H_    0.789171 0.313490 0.277476 0.201227
H35   H     H_    0.496349 0.076281 0.683164 0.251482
H36   H     H_    0.321128 0.922684 0.382618 0.242353
H37   H     H_    0.050065 0.892980 0.443134 0.232308
H38   H     H_    0.195073 0.970818 0.492349 0.262001
H39   H     H_    0.156274 0.865064 0.534678 0.233283
H40   H     H_    0.817496 0.875285 0.656378 0.232544
H41   H     H_    0.696782 0.925110 0.761503 0.233679
H42   H     H_    0.583705 0.824367 0.739076 0.212421
H43   H     H_    0.512271 0.918271 0.700763 0.259837
H44   H     H_    0.398333 0.065833 0.333429 0.234208
H45   H     H_    0.583274 0.325729 0.271257 0.239572
H46   H     H_    0.133957 0.015300 0.341663 0.237778
H47   H     H_    0.115558 0.115088 0.294351 0.240695
H48   H     H_    0.111607 0.099855 0.402415 0.249231
H49   H     H_    0.706786 0.723249 0.679935 0.213948
H50   H     H_    0.927868 0.669069 0.622154 0.238759
H51   H     H_    0.954326 0.780140 0.627852 0.198954
H52   H     H_    0.887795 0.733289 0.533465 0.251745
H53   H     H_    0.321344 0.263750 0.311454 0.225587
H54   H     H_    0.062338 0.239552 0.347359 0.200109
H55   H     H_    0.123846 0.347456 0.367527 0.246065
H56   H     H_    0.698136 0.331018 0.366481 0.257447
H57   H     H_    0.122860 0.268546 0.448824 0.239343
H58   H     H_    0.460329 0.685422 0.755472 0.212006
H59   H     H_    0.176390 0.617188 0.765728 0.220601
H60   H     H_    0.202735 0.562245 0.677778 0.239307
N1    N     N_2   0.514833 0.481747 0.991347 -0.132104
N2    N     N_2   0.511131 0.636160 0.900094 -0.270483
N3    N     N_2   0.448814 0.331602 0.919697 -0.283116
N4    N     N_2   0.435554 0.646203 0.076322 -0.268520
N5    N     N_2   0.673040 0.296369 0.602281 -0.249616
N6    N     N_2   0.301460 0.714593 0.406768 -0.254416
N7    N     N_2   0.675963 0.118197 0.603564 -0.273900
N8    N     N_2   0.287068 0.882236 0.430242 -0.272220
N9    N     N_2   0.706115 0.889732 0.643626 -0.274383
N10   N     N_2   0.337041 0.108782 0.353813 -0.301950
N11   N     N_2   0.716570 0.716624 0.619809 -0.234584
N12   N     N_2   0.615090 0.539725 0.018755 -0.115889
N13   N     N_2   0.309022 0.278676 0.369393 -0.247246
N14   N     N_R   0.519180 0.718290 0.509780 -0.160850
N15   N     N_R   0.480820 0.281710 0.490220 -0.144235
N16   N     N_2   0.522957 0.979360 0.537957 -0.084244
N17   N     N_2   0.498377 0.022001 0.474796 -0.161312
N18   N     N_2   0.751676 0.437007 0.289504 -0.295687
N19   N     N_2   0.412692 0.627577 0.734683 -0.269782
N20   N     N_2   0.781970 0.437570 0.119675 -0.281115
O1    O     O_R   0.493140 0.422050 0.612640 -0.605764
O2    O     O_R   0.250300 0.317661 0.689586 -0.767830
O3    O     O_2   0.327212 0.687494 0.227435 -0.636033
O4    O     O_R   0.205255 0.559764 0.273637 -0.859745
O5    O     O_R   0.506860 0.577950 0.387360 -0.656837
O6    O     O_R   0.505450 0.562230 0.618920 -0.558240
O7    O     O_R   0.494550 0.437770 0.381080 -0.574462
O8    O     O_R   0.723530 0.446300 0.497600 -0.592905
O9    O     O_R   0.276470 0.553700 0.502400 -0.622577
O10   O     O_R   0.735850 0.586490 0.503880 -0.607515
O11   O     O_R   0.264150 0.413510 0.496120 -0.602104
O12   O     O_2   0.438231 0.261729 0.764621 -0.650606
Zn1   Zn    Zn3+2 0.491780 0.406400 0.495810 0.982869
Zn2   Zn    Zn3+2 0.508220 0.593600 0.504190 0.959891

loop_
_geom_bond_atom_site_label_1
_geom_bond_atom_site_label_2
_ccdc_geom_bond_type
H23   N18   S    
H40   N9    S    
C13   N18   S    
C12   O7    A    
N1    N12   D    
C42   N16   S    
C26   N2    S    
C23   N14   A    
C35   H37   S    
C7    C8    D    
C32   H28   S    
C32   N6    S    
C37   H46   S    
C7    H1    S    
C19   C21   A    
C1    O1    A    
C6    O9    A    
C32   H30   S    
C11   C14   A    
C23   C40   A    
H27   N6    S    
C15   C17   A    
H49   N11   S    
C25   H6    S    
C33   H32   S    
C18   N3    S    
C5    O8    A    
O5    Zn2   S    
C38   H51   S    
C4    N15   A    
C39   H57   S    
C33   N7    S    
C43   N17   S    
H16   N4    S    
C19   N4    S    
C40   C42   A    
O9    Zn2   S    
C10   C21   A    
C29   O2    S    
H44   N10   S    
C41   C43   A    
C8    H12   S    
C31   H24   S    
C34   C41   A    
C42   C44   A    
C36   N9    S    
C26   H10   S    
C35   H38   S    
C22   N18   S    
C20   C29   S    
C31   H26   S    
C36   H43   S    
C5    O10   A    
C30   O4    S    
C3    C44   A    
C22   H56   S    
C15   N20   S    
C37   H47   S    
N15   Zn1   S    
H21   O4    S    
C1    C9    S    
C22   H34   S    
C40   N8    S    
C1    O6    A    
C27   H13   S    
C32   H29   S    
C5    C7    S    
C35   H39   S    
C33   H35   S    
C39   H54   S    
C6    C8    S    
C37   N10   S    
O1    Zn1   S    
O8    Zn1   S    
C39   N13   S    
H36   N8    S    
C10   C13   A    
C24   N19   S    
H11   N3    S    
C24   H60   S    
C2    C4    A    
C6    O11   A    
O7    Zn1   S    
C3    N14   A    
C26   H8    S    
C9    C20   A    
C39   H55   S    
C27   N3    S    
C2    C43   A    
C38   H50   S    
C31   N5    S    
C9    C11   A    
C25   H4    S    
C10   C12   S    
C16   N1    S    
C44   N9    S    
H20   O2    S    
C13   C15   A    
C14   C16   A    
C4    N13   S    
H58   N19   S    
O6    Zn2   S    
C26   H9    S    
N16   N17   D    
C34   N15   A    
O11   Zn1   S    
C23   N6    S    
C30   O3    D    
C37   H48   S    
C11   N19   S    
C27   H14   S    
O10   Zn2   S    
C36   H41   S    
C21   C30   S    
H31   N7    S    
C24   H59   S    
C36   H42   S    
C24   H2    S    
C3    N11   S    
C28   H17   S    
C38   N11   S    
C2    N10   S    
C33   H33   S    
H3    N20   S    
C28   N4    S    
H7    N2    S    
C17   C19   A    
C22   H45   S    
C18   C20   A    
H22   N5    S    
H53   N13   S    
C25   N20   S    
C25   H5    S    
C12   O5    A    
C28   H19   S    
C31   H25   S    
C29   O12   D    
C16   C18   A    
C41   N7    S    
C14   N2    S    
C38   H52   S    
C34   N5    S    
C27   H15   S    
N14   Zn2   S    
C35   N8    S    
C17   N12   S    
C28   H18   S    
