data_mof_unit_43468.cif
_audit_creation_date              2012-12-10T17:17:29-0500
_audit_creation_method            fapswitch 2.2
_symmetry_space_group_name_H-M    P1
_symmetry_Int_Tables_number       1
_space_group_crystal_system       triclinic
_cell_length_a                    10.244782
_cell_length_b                    10.661461
_cell_length_c                    12.822387
_cell_angle_alpha                 91.355888
_cell_angle_beta                  111.746795
_cell_angle_gamma                 94.579208
_cell_volume                      1294.5442198

loop_
_atom_site_label
_atom_site_type_symbol
_atom_type_description
_atom_site_fract_x
_atom_site_fract_y
_atom_site_fract_z
_atom_type_partial_charge
C1    C     C_R   0.051529 0.733456 0.495137 0.845174
C2    C     C_R   0.220706 0.519134 0.836625 -0.221076
C3    C     C_2   0.084244 0.870001 0.504293 0.332588
C4    C     C_R   0.137454 0.510500 0.713641 0.873494
C5    C     C_2   0.044386 0.937678 0.575999 -0.052822
C6    C     C_2   0.940448 0.134581 0.533040 -0.361017
C7    C     C_2   0.057282 0.073580 0.575665 0.196756
C8    C     C_2   0.437483 0.503450 0.517773 -0.025624
C9    C     C_2   0.572257 0.475765 0.503683 0.552827
C10   C     C_R   0.953454 0.267362 0.512141 0.933866
C11   C     C_R   0.862071 0.476071 0.288373 0.894225
C12   C     C_R   0.442373 0.486944 0.990641 0.029825
C13   C     C_R   0.766761 0.355499 0.985394 0.011347
C14   C     C_R   0.784177 0.430933 0.171081 -0.321125
C15   C     C_R   0.186351 0.600097 0.910286 -0.053831
C16   C     C_R   0.282506 0.628799 0.020847 0.521065
C17   C     C_R   0.407865 0.569640 0.062642 -0.074319
C18   C     C_3   0.072888 0.462494 0.114065 -0.188106
C19   C     C_3   0.255829 0.893107 0.428027 -0.327370
C20   C     C_3   0.565993 0.261053 0.500099 -0.398689
C21   C     C_3   0.563105 0.264292 0.236402 -0.184072
C22   C     C_3   0.285440 0.835355 0.070844 -0.294726
C23   C     C_R   0.347748 0.459647 0.879050 0.011069
C24   C     C_R   0.572705 0.434507 0.024713 -0.013801
C25   C     C_R   0.621645 0.379211 0.946125 0.035997
C26   C     C_R   0.521085 0.340683 0.839986 0.101088
C27   C     C_R   0.383172 0.371318 0.812556 -0.226456
C28   C     C_R   0.639108 0.401757 0.133731 0.430606
C29   C     C_R   0.851661 0.391265 0.098684 0.500637
H1    H     H_    0.835868 0.084537 0.507964 0.110011
H2    H     H_    0.238140 0.805397 0.374224 0.211736
H3    H     H_    0.331505 0.881722 0.515108 0.129799
H4    H     H_    0.305816 0.967333 0.391927 0.185447
H5    H     H_    0.579960 0.178098 0.452874 0.173892
H6    H     H_    0.460545 0.242893 0.505515 0.160388
H7    H     H_    0.652574 0.266232 0.584406 0.196873
H8    H     H_    0.381236 0.661158 0.578543 0.227324
H9    H     H_    0.439940 0.547354 0.673890 0.229765
H10   H     H_    0.493669 0.181117 0.743656 0.180170
H11   H     H_    0.523133 0.316684 0.686949 0.178763
H12   H     H_    0.681862 0.634719 0.588184 0.132241
H13   H     H_    0.784245 0.206339 0.891409 0.222366
H14   H     H_    0.814547 0.351486 0.845124 0.188648
H15   H     H_    0.485668 0.331414 0.237576 0.196245
H16   H     H_    0.661276 0.273990 0.312628 0.218645
H17   H     H_    0.511686 0.167749 0.232399 0.157008
H18   H     H_    0.972067 0.583896 0.852011 0.201854
H19   H     H_    0.046498 0.710579 0.807875 0.210516
H20   H     H_    0.448557 0.577009 0.230034 0.207939
H21   H     H_    0.535077 0.694987 0.187636 0.203498
H22   H     H_    0.215119 0.860847 0.986254 0.179502
H23   H     H_    0.310529 0.385599 0.390272 0.193782
H24   H     H_    0.397783 0.851809 0.079585 0.148144
H25   H     H_    0.270479 0.899690 0.133936 0.194258
H26   H     H_    0.246330 0.108544 0.701993 0.149084
H27   H     H_    0.253322 0.111292 0.572711 0.218221
H28   H     H_    0.306476 0.328605 0.735961 0.196702
H29   H     H_    0.186088 0.450880 0.160750 0.174761
H30   H     H_    0.053076 0.557967 0.138644 0.181798
H31   H     H_    0.053135 0.454399 0.023050 0.167752
H32   H     H_    0.897248 0.904812 0.644936 0.191945
H33   H     H_    0.065778 0.918985 0.737730 0.168893
N1    N     N_2   0.313640 0.446500 0.454900 -0.196257
N2    N     N_2   0.686360 0.553430 0.545150 -0.224458
N3    N     N_3   0.998751 0.880151 0.658464 -0.482381
N4    N     N_3   0.452012 0.593519 0.607031 -0.507143
N5    N     N_3   0.554537 0.267932 0.760228 -0.503888
N6    N     N_3   0.830199 0.298700 0.915723 -0.432130
N7    N     N_3   0.054989 0.655593 0.875789 -0.433817
N8    N     N_3   0.502796 0.598531 0.176883 -0.451789
N9    N     N_3   0.196323 0.138373 0.620818 -0.450110
O1    O     O_R   0.936910 0.692950 0.509080 -0.598254
O2    O     O_3   0.126165 0.931461 0.425584 -0.606927
O3    O     O_3   0.574565 0.369673 0.441416 -0.627640
O4    O     O_3   0.598736 0.276597 0.142281 -0.622984
O5    O     O_3   0.250406 0.710218 0.091699 -0.625971
O6    O     O_R   0.138320 0.658600 0.480130 -0.636793
O7    O     O_R   0.002900 0.525670 0.675280 -0.617837
O8    O     O_R   0.204310 0.491320 0.646330 -0.630857
O9    O     O_R   0.861680 0.341400 0.519870 -0.592303
O10   O     O_R   0.063090 0.307050 0.490920 -0.564998
O11   O     O_R   0.795690 0.508680 0.353670 -0.587608
O12   O     O_R   0.997100 0.474330 0.324720 -0.556593
O13   O     O_3   0.991605 0.366465 0.142129 -0.577880
Zn1   Zn    Zn3+2 0.865520 0.522940 0.519330 0.959551
Zn2   Zn    Zn3+2 0.134480 0.477060 0.480670 0.953568

loop_
_geom_bond_atom_site_label_1
_geom_bond_atom_site_label_2
_ccdc_geom_bond_type
C8    C9    S    
C8    N4    S    
C9    N2    D    
C1    O6    A    
C22   O5    S    
H19   N7    S    
C19   H2    S    
O1    Zn1   S    
C22   H25   S    
C12   C23   A    
C26   C27   A    
C26   N5    S    
C13   C29   A    
C7    N9    S    
C11   C14   S    
C15   C16   A    
H18   N7    S    
C20   H6    S    
C18   H29   S    
H9    N4    S    
H14   N6    S    
H11   N5    S    
C12   C17   A    
C18   O13   S    
C23   C27   A    
O10   Zn2   S    
C20   H5    S    
C17   N8    S    
H13   N6    S    
C13   C25   A    
C19   H3    S    
C22   H24   S    
C21   H16   S    
C11   O11   A    
C15   N7    S    
C1    O1    A    
C19   O2    S    
C24   C25   A    
C4    O8    A    
C5    N3    S    
C27   H28   S    
C5    C7    S    
C10   O9    A    
C16   C17   A    
C11   O12   A    
C25   C26   A    
C1    C3    S    
C2    C4    S    
C4    O7    A    
O9    Zn1   S    
C21   H15   S    
H27   N9    S    
H8    N4    S    
C20   O3    S    
C2    C15   A    
C29   O13   S    
O7    Zn1   S    
C18   H31   S    
C6    H1    S    
O6    Zn2   S    
H20   N8    S    
N1    Zn2   S    
C19   H4    S    
C9    O3    S    
C14   C29   A    
N2    Zn1   S    
C21   H17   S    
C12   C24   A    
H33   N3    S    
C16   O5    S    
H10   N5    S    
C24   C28   A    
C3    C5    D    
H23   N1    S    
C6    C10   S    
C6    C7    D    
O11   Zn1   S    
C21   O4    S    
C10   O10   A    
H21   N8    S    
C3    O2    S    
C8    N1    D    
C20   H7    S    
H32   N3    S    
C18   H30   S    
O12   Zn2   S    
C2    C23   A    
H12   N2    S    
C14   C28   A    
C28   O4    S    
O8    Zn2   S    
H26   N9    S    
C22   H22   S    
C13   N6    S    
