data_mof_unit_63924.cif
_audit_creation_date              2012-12-10T19:36:46-0500
_audit_creation_method            fapswitch 2.2
_symmetry_space_group_name_H-M    P1
_symmetry_Int_Tables_number       1
_space_group_crystal_system       triclinic
_cell_length_a                    30.654264
_cell_length_b                    30.497385
_cell_length_c                    24.707156
_cell_angle_alpha                 89.877446
_cell_angle_beta                  128.382873
_cell_angle_gamma                 90.027755
_cell_volume                      18106.0656958

loop_
_atom_site_label
_atom_site_type_symbol
_atom_type_description
_atom_site_fract_x
_atom_site_fract_y
_atom_site_fract_z
_atom_type_partial_charge
C1    C     C_R   0.809291 0.810094 0.498945 0.960620
C2    C     C_R   0.534603 0.750218 0.069843 0.289506
C3    C     C_R   0.908049 0.093372 0.500316 -0.095020
C4    C     C_R   0.599673 0.593341 0.449420 0.113536
C5    C     C_R   0.392069 0.590244 0.541210 0.039695
C6    C     C_R   0.108037 0.090285 0.458872 0.040168
C7    C     C_R   0.850795 0.090190 0.458980 0.042723
C8    C     C_3   0.622904 0.557448 0.433035 0.478113
C9    C     C_3   0.396312 0.563048 0.594416 0.508993
C10   C     C_3   0.104399 0.062967 0.406338 0.508100
C11   C     C_3   0.801970 0.062516 0.407190 0.489970
C12   C     C_3   0.659451 0.591829 0.434483 -0.525006
C13   C     C_R   0.964449 0.250366 0.930188 0.288654
C14   C     C_3   0.359564 0.598143 0.593240 -0.527875
C15   C     C_3   0.141229 0.098053 0.407601 -0.527528
C16   C     C_3   0.766402 0.097469 0.408638 -0.517248
C17   C     C_R   0.439845 0.560018 0.499834 0.869369
C18   C     C_R   0.560273 0.559975 0.499913 0.875244
C19   C     C_R   0.939936 0.060042 0.499941 0.906082
C20   C     C_R   0.060093 0.060024 0.500066 0.868955
C21   C     C_R   0.939614 0.940033 0.500071 0.922719
C22   C     C_R   0.060477 0.940038 0.500095 0.890916
C23   C     C_R   0.439585 0.440024 0.499998 0.889799
C24   C     C_R   0.034466 0.250283 0.069809 0.285139
C25   C     C_R   0.560430 0.440015 0.500024 0.895428
C26   C     C_R   0.817370 0.749991 0.634651 0.849360
C27   C     C_R   0.182662 0.750045 0.365328 0.891557
C28   C     C_R   0.317378 0.249999 0.634661 0.891225
C29   C     C_R   0.682684 0.250016 0.365338 0.852763
C30   C     C_R   0.611466 0.786864 0.253590 -0.132933
C31   C     C_R   0.388923 0.786448 0.746304 -0.187100
C32   C     C_R   0.110851 0.286599 0.253581 -0.186972
C33   C     C_R   0.888421 0.286760 0.746247 -0.134348
C34   C     C_R   0.575820 0.787055 0.181753 -0.150301
C35   C     C_R   0.895119 0.850697 0.557460 0.054328
C36   C     C_R   0.424366 0.786658 0.818127 -0.154067
C37   C     C_R   0.075184 0.286817 0.181751 -0.153828
C38   C     C_R   0.923813 0.287012 0.818079 -0.152337
C39   C     C_R   0.572531 0.750227 0.145440 0.076152
C40   C     C_R   0.426921 0.750134 0.854621 0.082894
C41   C     C_R   0.072390 0.250226 0.145401 0.083076
C42   C     C_R   0.926635 0.250383 0.854596 0.077693
C43   C     C_R   0.605743 0.713384 0.181882 -0.143958
C44   C     C_R   0.393221 0.713553 0.818361 -0.149607
C45   C     C_R   0.106074 0.213572 0.181799 -0.150382
C46   C     C_R   0.162583 0.850829 0.557613 0.040783
C47   C     C_R   0.893173 0.213701 0.818365 -0.148721
C48   C     C_R   0.642075 0.713493 0.253703 -0.186475
C49   C     C_R   0.357094 0.713648 0.746525 -0.187535
C50   C     C_R   0.142429 0.213660 0.253629 -0.187396
C51   C     C_R   0.857090 0.213757 0.746540 -0.189245
C52   C     C_R   0.337555 0.350939 0.442566 0.040566
C53   C     C_R   0.605311 0.351509 0.442136 0.050399
C54   C     C_R   0.840880 0.843802 0.498248 -0.191726
C55   C     C_R   0.157384 0.843801 0.498306 -0.181831
C56   C     C_R   0.342688 0.343771 0.501829 -0.181516
C57   C     C_R   0.189668 0.810099 0.498992 0.957637
C58   C     C_R   0.659126 0.343760 0.501778 -0.182238
C59   C     C_R   0.815521 0.873677 0.442901 0.368043
C60   C     C_R   0.127147 0.873546 0.442808 0.366109
C61   C     C_R   0.372937 0.373341 0.557343 0.366094
C62   C     C_R   0.684257 0.372776 0.557936 0.371192
C63   C     C_R   0.847904 0.906291 0.444078 -0.176660
C64   C     C_R   0.095988 0.906176 0.443999 -0.250450
C65   C     C_R   0.404156 0.405961 0.556195 -0.250294
C66   C     C_R   0.651926 0.405373 0.556872 -0.248784
C67   C     C_R   0.904666 0.909246 0.500649 -0.182806
C68   C     C_R   0.310360 0.310087 0.501078 0.957592
C69   C     C_R   0.096042 0.909271 0.500712 -0.178101
C70   C     C_R   0.404133 0.409202 0.499508 -0.177859
C71   C     C_R   0.595441 0.409176 0.499625 -0.177674
C72   C     C_R   0.926694 0.883217 0.558779 0.165749
C73   C     C_R   0.132345 0.883353 0.558928 0.159957
C74   C     C_R   0.367846 0.383447 0.441295 0.159907
C75   C     C_R   0.573791 0.383995 0.440957 0.186338
C76   C     C_3   0.977995 0.855494 0.598443 -0.469128
C77   C     C_3   0.120946 0.855705 0.598882 -0.461049
C78   C     C_3   0.379287 0.355906 0.401417 -0.460037
C79   C     C_R   0.690660 0.310088 0.500962 0.961507
C80   C     C_3   0.522119 0.356817 0.399636 -0.461486
C81   C     C_3   0.943001 0.819529 0.596949 -0.474588
C82   C     C_3   0.154411 0.819741 0.597388 -0.467693
C83   C     C_3   0.345761 0.319947 0.402871 -0.467759
C84   C     C_3   0.557056 0.320890 0.400992 -0.480362
C85   C     C_R   0.682668 0.750048 0.365367 0.897659
C86   C     C_R   0.317310 0.749987 0.634655 0.855424
C87   C     C_R   0.182643 0.250028 0.365358 0.855363
C88   C     C_R   0.817260 0.250038 0.634651 0.895146
C89   C     C_R   0.836868 0.765497 0.746320 -0.186902
C90   C     C_R   0.644924 0.750144 0.289929 -0.036747
C91   C     C_R   0.162910 0.766503 0.253609 -0.171088
C92   C     C_R   0.337257 0.266295 0.746378 -0.171550
C93   C     C_R   0.663278 0.265690 0.253641 -0.185366
C94   C     C_R   0.872673 0.765223 0.818133 -0.152661
C95   C     C_R   0.127178 0.766237 0.181785 -0.148478
C96   C     C_R   0.373074 0.266021 0.818195 -0.148597
C97   C     C_R   0.627563 0.265351 0.181819 -0.152419
C98   C     C_R   0.927522 0.750159 0.854581 0.084611
C99   C     C_R   0.072712 0.750344 0.145365 0.081730
C100  C     C_R   0.427605 0.250206 0.854622 0.081881
C101  C     C_R   0.354927 0.750021 0.710116 -0.032872
C102  C     C_R   0.572830 0.250083 0.145404 0.084369
C103  C     C_R   0.945978 0.735051 0.818289 -0.156796
C104  C     C_R   0.054561 0.734436 0.181683 -0.149052
C105  C     C_R   0.445738 0.234380 0.818313 -0.149032
C106  C     C_R   0.554408 0.234823 0.181727 -0.155862
C107  C     C_R   0.909864 0.734631 0.746449 -0.192337
C108  C     C_R   0.090603 0.734021 0.253513 -0.161684
C109  C     C_R   0.409605 0.233970 0.746476 -0.161302
C110  C     C_R   0.590427 0.234466 0.253559 -0.193096
C111  C     C_R   0.855185 0.750011 0.710097 -0.027426
C112  C     C_R   0.144836 0.250099 0.289901 -0.032571
C113  C     C_R   0.144912 0.750186 0.289864 -0.019436
C114  C     C_R   0.355230 0.250065 0.710125 -0.018894
C115  C     C_R   0.644983 0.250059 0.289890 -0.030762
C116  C     C_R   0.034988 0.750320 0.069780 0.290228
C117  C     C_R   0.965290 0.750195 0.930167 0.286157
C118  C     C_R   0.535092 0.250096 0.069820 0.286789
C119  C     C_R   0.465375 0.250168 0.930207 0.290428
C120  C     C_R   0.632716 0.624457 0.450657 0.013144
C121  C     C_R   0.359614 0.620509 0.539624 0.016256
C122  C     C_R   0.140572 0.120532 0.460557 0.016217
C123  C     C_R   0.854751 0.250183 0.710102 -0.034926
C124  C     C_R   0.819959 0.120392 0.460741 0.020839
C125  C     C_R   0.656565 0.657496 0.500020 -0.074167
C126  C     C_R   0.341729 0.657267 0.498041 -0.052754
C127  C     C_R   0.158181 0.157289 0.501844 -0.052387
C128  C     C_R   0.843642 0.157297 0.501710 -0.057462
C129  C     C_R   0.642015 0.662083 0.543491 -0.201925
C130  C     C_R   0.356804 0.662053 0.454894 -0.207135
C131  C     C_R   0.142656 0.162134 0.544495 -0.207059
C132  C     C_R   0.901824 0.162346 0.543873 -0.203064
C133  C     C_R   0.690368 0.689913 0.500807 0.888802
C134  C     C_R   0.464670 0.750168 0.930218 0.284938
C135  C     C_R   0.309830 0.689957 0.499799 0.884763
C136  C     C_R   0.190171 0.189963 0.500201 0.884523
C137  C     C_R   0.810033 0.189954 0.500183 0.881232
C138  C     C_R   0.609974 0.629884 0.543656 -0.188530
C139  C     C_R   0.388951 0.629569 0.454636 -0.192800
C140  C     C_R   0.110423 0.129675 0.544658 -0.196263
C141  C     C_R   0.934213 0.129918 0.544004 -0.200149
C142  C     C_R   0.591325 0.594170 0.498750 -0.164815
C143  C     C_R   0.407286 0.593239 0.499137 -0.097749
C144  C     C_R   0.092472 0.093310 0.500558 -0.094104
Cl1   Cl    Cl    0.745224 0.868748 0.369333 -0.602087
Cl2   Cl    Cl    0.123498 0.868418 0.369044 -0.598224
Cl3   Cl    Cl    0.376510 0.367997 0.631056 -0.597712
Cl4   Cl    Cl    0.754141 0.366773 0.632183 -0.623276
F1    F     F_    0.583165 0.540844 0.367501 -0.624409
F2    F     F_    0.450014 0.562456 0.656020 -0.615271
F3    F     F_    0.050892 0.062250 0.344414 -0.615396
F4    F     F_    0.802858 0.022874 0.435257 -0.634536
H1    H     H_    0.613308 0.815572 0.280688 0.181465
H2    H     H_    0.204765 0.779003 0.280750 0.155259
H3    H     H_    0.295357 0.278742 0.719244 0.154772
H4    H     H_    0.705339 0.277712 0.280794 0.158553
H5    H     H_    0.857631 0.777241 0.845088 0.153241
H6    H     H_    0.141966 0.778886 0.154796 0.151485
H7    H     H_    0.358294 0.278606 0.845170 0.151437
H8    H     H_    0.642568 0.277486 0.154826 0.153846
H9    H     H_    0.988078 0.723100 0.845390 0.150227
H10   H     H_    0.012765 0.721835 0.154615 0.152301
H11   H     H_    0.487587 0.221841 0.845397 0.152216
H12   H     H_    0.387678 0.814931 0.719102 0.157817
H13   H     H_    0.512402 0.222707 0.154661 0.150227
H14   H     H_    0.924856 0.722752 0.719363 0.154121
H15   H     H_    0.075835 0.721473 0.280580 0.159008
H16   H     H_    0.424350 0.221494 0.719401 0.159013
H17   H     H_    0.575449 0.222457 0.280650 0.154833
H18   H     H_    0.657622 0.689208 0.579343 0.156329
H19   H     H_    0.343364 0.690313 0.421306 0.155312
H20   H     H_    0.155840 0.190409 0.577808 0.153979
H21   H     H_    0.921981 0.190742 0.576897 0.157025
H22   H     H_    0.600848 0.632282 0.579465 0.168250
H23   H     H_    0.112277 0.315129 0.280681 0.157698
H24   H     H_    0.400096 0.633083 0.420943 0.160802
H25   H     H_    0.098971 0.133204 0.578020 0.153119
H26   H     H_    0.979035 0.133587 0.577066 0.152636
H27   H     H_    0.645965 0.531968 0.474019 0.060389
H28   H     H_    0.376689 0.530218 0.575393 0.059572
H29   H     H_    0.124152 0.030176 0.425926 0.059337
H30   H     H_    0.794659 0.059802 0.357280 0.077775
H31   H     H_    0.704510 0.587195 0.477767 0.179104
H32   H     H_    0.317547 0.586032 0.572251 0.174729
H33   H     H_    0.183407 0.085970 0.429189 0.174575
H34   H     H_    0.886963 0.315311 0.719002 0.179276
H35   H     H_    0.739124 0.116425 0.359750 0.161268
H36   H     H_    0.550399 0.815780 0.154676 0.155918
H37   H     H_    0.450205 0.815160 0.845057 0.152844
H38   H     H_    0.049364 0.315377 0.154706 0.152829
H39   H     H_    0.949437 0.315609 0.844997 0.154688
H40   H     H_    0.648991 0.597991 0.383240 0.235257
H41   H     H_    0.381399 0.617623 0.641553 0.233214
H42   H     H_    0.119602 0.117440 0.359089 0.233153
H43   H     H_    0.746193 0.085634 0.430837 0.246148
H44   H     H_    0.604092 0.684688 0.154914 0.155760
H45   H     H_    0.955179 0.811869 0.648719 0.204187
H46   H     H_    0.394333 0.685084 0.845477 0.153948
H47   H     H_    0.104783 0.185053 0.154788 0.152998
H48   H     H_    0.894459 0.185166 0.845499 0.154626
H49   H     H_    0.667437 0.684752 0.280879 0.158779
H50   H     H_    0.331332 0.685121 0.719495 0.157694
H51   H     H_    0.168171 0.185073 0.280768 0.157408
H52   H     H_    0.831524 0.185142 0.719540 0.160275
H53   H     H_    0.829333 0.928102 0.400155 0.214622
H54   H     H_    0.070463 0.927879 0.399963 0.209837
H55   H     H_    0.429675 0.427546 0.600214 0.209679
H56   H     H_    0.129006 0.790682 0.566607 0.218769
H57   H     H_    0.670301 0.426496 0.601353 0.201486
H58   H     H_    0.992682 0.847433 0.568275 0.188777
H59   H     H_    0.141289 0.868882 0.651496 0.206950
H60   H     H_    0.358994 0.369226 0.348804 0.207533
H61   H     H_    0.506574 0.348262 0.428734 0.188043
H62   H     H_    0.010449 0.868568 0.651090 0.210408
H63   H     H_    0.076091 0.847581 0.568906 0.189874
H64   H     H_    0.424145 0.347699 0.431447 0.190248
H65   H     H_    0.490344 0.370660 0.347223 0.213511
H66   H     H_    0.937416 0.790532 0.565978 0.218226
H67   H     H_    0.371130 0.290804 0.433693 0.219023
H68   H     H_    0.194126 0.812187 0.649128 0.204456
H69   H     H_    0.306068 0.312534 0.351110 0.204447
H70   H     H_    0.561778 0.291424 0.430835 0.218577
H71   H     H_    0.545513 0.314022 0.349380 0.206515
H72   H     H_    0.794717 0.777362 0.719154 0.156404
N1    N     N_R   0.516602 0.711876 0.034506 -0.168264
N2    N     N_R   0.979079 0.749782 0.034168 -0.165887
N3    N     N_R   0.521288 0.249775 0.965806 -0.165424
N4    N     N_R   0.479180 0.250326 0.034218 -0.172994
N5    N     N_R   0.055454 0.750788 0.034387 -0.174685
N6    N     N_R   0.944829 0.749878 0.965563 -0.169653
N7    N     N_R   0.555550 0.249898 0.034418 -0.169706
N8    N     N_R   0.444922 0.250516 0.965611 -0.174959
N9    N     N_R   0.482088 0.711853 0.965897 -0.166365
N10   N     N_R   0.016797 0.211973 0.034391 -0.167924
N11   N     N_R   0.982240 0.212015 0.965784 -0.171468
N12   N     N_R   0.482802 0.788511 0.965553 -0.172207
N13   N     N_R   0.517012 0.788537 0.034166 -0.166863
N14   N     N_R   0.982266 0.288679 0.965602 -0.166667
N15   N     N_R   0.016516 0.288637 0.034217 -0.172281
N16   N     N_R   0.021204 0.750572 0.965775 -0.173638
O1    O     O_R   0.821670 0.769930 0.500000 -0.628665
O2    O     O_R   0.074580 0.954200 0.557500 -0.625858
O3    O     O_R   0.425420 0.454200 0.442500 -0.626573
O4    O     O_R   0.574580 0.454200 0.557500 -0.623762
O5    O     O_R   0.982890 0.954220 0.557510 -0.619568
O6    O     O_R   0.017110 0.954220 0.442490 -0.612895
O7    O     O_R   0.482890 0.454220 0.557510 -0.612000
O8    O     O_R   0.517110 0.454220 0.442490 -0.609562
O9    O     O_R   0.769920 0.821660 0.500020 -0.583999
O10   O     O_R   0.230080 0.821660 0.499980 -0.591126
O11   O     O_R   0.269920 0.321660 0.500020 -0.591186
O12   O     O_R   0.178330 0.769930 0.500000 -0.626776
O13   O     O_R   0.730080 0.321660 0.499980 -0.588847
O14   O     O_R   0.724940 0.724130 0.398140 -0.623260
O15   O     O_R   0.275060 0.724130 0.601860 -0.627320
O16   O     O_R   0.224940 0.224130 0.398140 -0.627176
O17   O     O_R   0.775060 0.224130 0.601860 -0.620976
O18   O     O_R   0.673180 0.775850 0.398150 -0.608202
O19   O     O_R   0.326820 0.775850 0.601850 -0.622863
O20   O     O_R   0.173180 0.275850 0.398150 -0.622715
O21   O     O_R   0.826820 0.275850 0.601850 -0.613898
O22   O     O_R   0.730060 0.678320 0.499990 -0.622182
O23   O     O_R   0.321670 0.269930 0.500000 -0.626691
O24   O     O_R   0.269940 0.678320 0.500010 -0.620900
O25   O     O_R   0.230060 0.178320 0.499990 -0.620970
O26   O     O_R   0.769940 0.178320 0.500010 -0.614855
O27   O     O_R   0.678300 0.730040 0.500010 -0.624853
O28   O     O_R   0.321700 0.730040 0.499990 -0.625541
O29   O     O_R   0.178300 0.230040 0.500010 -0.625857
O30   O     O_R   0.821700 0.230040 0.499990 -0.630180
O31   O     O_R   0.826790 0.724120 0.601860 -0.625999
O32   O     O_R   0.173210 0.724120 0.398140 -0.628847
O33   O     O_R   0.326790 0.224120 0.601860 -0.628924
O34   O     O_R   0.678330 0.269930 0.500000 -0.626856
O35   O     O_R   0.673210 0.224120 0.398140 -0.626721
O36   O     O_R   0.775040 0.775850 0.601880 -0.626264
O37   O     O_R   0.224960 0.775850 0.398120 -0.605486
O38   O     O_R   0.275040 0.275850 0.601880 -0.605466
O39   O     O_R   0.724960 0.275850 0.398120 -0.622976
O40   O     O_R   0.425360 0.545810 0.442460 -0.631824
O41   O     O_R   0.574640 0.545810 0.557540 -0.624027
O42   O     O_R   0.925360 0.045810 0.442460 -0.628093
O43   O     O_R   0.074640 0.045810 0.557540 -0.635458
O44   O     O_R   0.482840 0.545830 0.557470 -0.577134
O45   O     O_R   0.517160 0.545830 0.442530 -0.590792
O46   O     O_R   0.982840 0.045830 0.557470 -0.620527
O47   O     O_R   0.017160 0.045830 0.442530 -0.576250
O48   O     O_R   0.925420 0.954200 0.442500 -0.620153
Zn1   Zn    Zn3+2 0.784540 0.715450 0.500000 0.965333
Zn2   Zn    Zn3+2 0.538410 0.500000 0.576790 1.027144
Zn3   Zn    Zn3+2 0.961590 0.000000 0.423210 1.031190
Zn4   Zn    Zn3+2 0.038410 0.000000 0.576790 0.964361
Zn5   Zn    Zn3+2 0.215460 0.715450 0.500000 0.962893
Zn6   Zn    Zn3+2 0.284540 0.215450 0.500000 0.962665
Zn7   Zn    Zn3+2 0.715460 0.215450 0.500000 0.972619
Zn8   Zn    Zn3+2 0.715430 0.784520 0.500010 1.003972
Zn9   Zn    Zn3+2 0.284570 0.784520 0.499990 0.998197
Zn10  Zn    Zn3+2 0.215430 0.284520 0.500010 0.997296
Zn11  Zn    Zn3+2 0.784570 0.284520 0.499990 0.994580
Zn12  Zn    Zn3+2 0.461590 0.500000 0.423210 0.997590

loop_
_geom_bond_atom_site_label_1
_geom_bond_atom_site_label_2
_ccdc_geom_bond_type
C29   O35   A    
C95   H6    S    
C51   C123  A    
C20   C144  S    
N4    N8    A    
C89   H72   S    
C27   O37   A    
C15   H33   S    
C31   C101  A    
C4    C142  A    
C95   C99   A    
C5    C143  A    
C117  N6    A    
C89   C94   A    
C131  C140  A    
O3    Zn12  S    
C46   C55   A    
C138  H22   S    
C3    C19   S    
C22   C69   S    
C30   C90   A    
O32   Zn5   S    
O44   Zn2   S    
C14   C121  S    
C24   C41   S    
C53   C75   A    
C60   Cl2   S    
C13   C42   S    
C12   H40   S    
C103  H9    S    
C141  H26   S    
O48   Zn3   S    
C127  C136  S    
C99   C116  S    
C30   C34   A    
C120  C125  A    
C87   C112  S    
C118  N4    A    
O12   Zn5   S    
O26   Zn7   S    
C108  C113  A    
O34   Zn7   S    
C10   F3    S    
C18   C142  S    
C130  H19   S    
C53   C58   A    
C79   O13   A    
C88   O17   A    
C68   O11   A    
C87   O16   A    
C79   O34   A    
C55   C57   S    
O40   Zn12  S    
C29   O39   A    
O24   Zn5   S    
C23   O3    A    
C78   H60   S    
C51   H52   S    
C25   O4    A    
C76   H58   S    
O9    Zn8   S    
O33   Zn6   S    
C84   H71   S    
C21   O5    A    
C85   C90   S    
O43   Zn4   S    
C27   C113  S    
C64   C69   A    
C59   C63   A    
C33   C38   A    
C60   C64   A    
C16   C124  S    
C16   H43   S    
C56   C68   S    
C104  H10   S    
C28   O33   A    
O38   Zn10  S    
C77   C82   S    
O7    Zn2   S    
O23   Zn6   S    
C127  C131  A    
C17   O40   A    
C24   N10   A    
O1    Zn1   S    
C83   H69   S    
C110  H17   S    
C125  C129  A    
C126  C130  A    
C31   C36   A    
C43   H44   S    
C103  C107  A    
C26   C111  S    
O31   Zn1   S    
N3    N7    A    
C44   H46   S    
C3    C141  A    
C1    C54   S    
C82   H56   S    
C53   C84   S    
C45   C50   A    
C52   C74   A    
O36   Zn8   S    
C1    O9    A    
C12   H31   S    
C65   C70   A    
C92   C96   A    
O39   Zn11  S    
N12   N13   A    
C67   C72   A    
C122  C127  A    
C46   C82   S    
C17   O44   A    
C139  C143  A    
C33   H34   S    
C25   C71   S    
C20   O43   A    
C37   H38   S    
C29   C115  S    
C135  O24   A    
C48   C90   A    
C23   C70   S    
C139  H24   S    
O29   Zn10  S    
C133  O27   A    
C54   C59   A    
C32   H23   S    
O11   Zn10  S    
C62   C66   A    
C34   C39   A    
C129  H18   S    
C80   H65   S    
C22   O6    A    
C134  N12   A    
N2    N6    A    
C40   C134  S    
N5    N16   A    
C5    C9    S    
C109  H16   S    
C61   C65   A    
C83   H67   S    
C137  O26   A    
O2    Zn4   S    
C118  N7    A    
C8    C12   S    
C100  C119  S    
C32   C37   A    
C28   C114  S    
C109  C114  A    
C59   Cl1   S    
O45   Zn12  S    
C63   H53   S    
C135  O28   A    
C6    C144  A    
C93   C97   A    
C13   N11   A    
C132  C141  A    
C105  C109  A    
C31   H12   S    
O19   Zn9   S    
C73   C77   S    
C107  C111  A    
C2    N13   A    
C80   H61   S    
C65   H55   S    
C45   H47   S    
O22   Zn1   S    
O46   Zn4   S    
C84   H70   S    
O16   Zn6   S    
C18   O41   A    
C96   C100  A    
C92   H3    S    
C37   C41   A    
O13   Zn11  S    
C21   O48   A    
C91   C95   A    
C25   O8    A    
C76   H62   S    
C40   C44   A    
C96   H7    S    
C57   O12   A    
C38   H39   S    
O8    Zn12  S    
C46   C73   A    
O30   Zn11  S    
C58   C62   A    
C15   C122  S    
C80   C84   S    
C22   O2    A    
C50   H51   S    
C85   O14   A    
C3    C7    A    
C81   H45   S    
C94   C98   A    
C98   C103  A    
C78   C83   S    
C105  H11   S    
C69   C73   A    
C136  O29   A    
C97   C102  A    
C4    C8    S    
O41   Zn2   S    
C124  C128  A    
C99   C104  A    
C55   C60   A    
C35   C54   A    
C11   H30   S    
C130  C139  A    
C131  H20   S    
C9    F2    S    
C106  H13   S    
C91   H2    S    
C138  C142  A    
C47   C51   A    
C19   O46   A    
C64   H54   S    
C20   O47   A    
C52   C83   S    
C9    C14   S    
C97   H8    S    
C11   C16   S    
C66   C71   A    
O10   Zn9   S    
C140  H25   S    
C24   N15   A    
C119  N8    A    
O4    Zn2   S    
C14   H41   S    
C126  C135  S    
N10   N11   A    
C104  C108  A    
C77   H63   S    
N14   N15   A    
C32   C112  A    
C140  C144  A    
C16   H35   S    
C87   O20   A    
C6    C10   S    
C137  O30   A    
C13   N14   A    
C17   C143  S    
N1    N9    A    
C8    F1    S    
C61   Cl3   S    
C41   C45   A    
C26   O36   A    
C8    H27   S    
O20   Zn10  S    
O17   Zn7   S    
O18   Zn8   S    
O42   Zn3   S    
O35   Zn7   S    
C82   H68   S    
C74   C78   S    
C10   H29   S    
C56   C61   A    
C57   O10   A    
C110  C115  A    
C2    N1    A    
C44   C49   A    
C116  N5    A    
C7    C124  A    
O15   Zn5   S    
C35   C81   S    
C119  N3    A    
C18   O45   A    
C7    C11   S    
C100  C105  A    
C38   C42   A    
C10   C15   S    
C5    C121  A    
C93   C115  A    
C70   C74   A    
C12   C120  S    
C2    C39   S    
C30   H1    S    
C129  C138  A    
C117  N16   A    
C85   O18   A    
O14   Zn1   S    
C75   C80   S    
C102  C118  S    
C42   C47   A    
C27   O32   A    
C107  H14   S    
C21   C67   S    
C23   O7    A    
C15   H42   S    
C88   C123  S    
C128  C132  A    
C88   O21   A    
O5    Zn4   S    
C133  O22   A    
C63   C67   A    
O6    Zn3   S    
C36   H37   S    
C36   C40   A    
C78   H64   S    
C39   C43   A    
C86   O15   A    
C48   H49   S    
C91   C113  A    
C116  N2    A    
C136  O25   A    
C128  C137  S    
O28   Zn9   S    
C43   C48   A    
C50   C112  A    
C72   C76   S    
C66   H57   S    
C34   H36   S    
C9    H28   S    
C1    O1    A    
O37   Zn9   S    
C58   C79   S    
C108  H15   S    
O47   Zn3   S    
C47   H48   S    
C6    C122  A    
C98   C117  S    
C106  C110  A    
C125  C133  S    
C19   O42   A    
C49   H50   S    
C93   H4    S    
C76   C81   S    
C35   C72   A    
C14   H32   S    
C28   O38   A    
C94   H5    S    
C89   C111  A    
C121  C126  A    
C71   C75   A    
C81   H66   S    
O25   Zn6   S    
C134  N9    A    
C102  C106  A    
C132  H21   S    
O21   Zn11  S    
O27   Zn8   S    
C86   O19   A    
C77   H59   S    
C26   O31   A    
C11   F4    S    
C33   C123  A    
C4    C120  A    
C62   Cl4   S    
C86   C101  S    
C92   C114  A    
C68   O23   A    
C52   C56   A    
C49   C101  A    
