data_mof_unit_36977.cif
_audit_creation_date              2012-12-11T17:01:28-0500
_audit_creation_method            fapswitch 2.2
_symmetry_space_group_name_H-M    P1
_symmetry_Int_Tables_number       1
_space_group_crystal_system       triclinic
_cell_length_a                    15.024008
_cell_length_b                    14.903139
_cell_length_c                    14.922635
_cell_angle_alpha                 109.407603
_cell_angle_beta                  108.983244
_cell_angle_gamma                 109.701518
_cell_volume                      2582.16767848

loop_
_atom_site_label
_atom_site_type_symbol
_atom_type_description
_atom_site_fract_x
_atom_site_fract_y
_atom_site_fract_z
_atom_type_partial_charge
C1    C     C_R   0.003994 0.803509 0.098112 -0.152931
C2    C     C_R   0.210389 0.803834 0.300160 -0.100523
C3    C     C_R   0.906263 0.410841 0.211288 -0.120365
C4    C     C_R   0.779249 0.224142 0.685855 -0.208421
C5    C     C_R   0.301219 0.593115 0.998964 -0.139982
C6    C     C_R   0.938328 0.503893 0.304657 0.119487
C7    C     C_R   0.301712 0.502769 0.934593 0.106159
C8    C     C_R   0.302113 0.865714 0.298399 0.071412
C9    C     C_R   0.047555 0.222807 0.051176 -0.096455
C10   C     C_3   0.473855 0.399925 0.838862 -0.488361
C11   C     C_3   0.369643 0.397149 0.834950 0.671441
C12   C     C_R   0.676136 0.183692 0.672786 -0.079396
C13   C     C_3   0.565809 0.503458 0.046826 0.583395
C14   C     C_3   0.575998 0.605804 0.941150 -0.521120
C15   C     C_3   0.574687 0.502626 0.945658 0.007804
C16   C     C_R   0.027590 0.594181 0.780106 -0.037032
C17   C     C_3   0.398837 0.502834 0.933970 -0.123459
C18   C     C_3   0.464704 0.508202 0.042086 0.463831
C19   C     C_3   0.469988 0.604008 0.930482 -0.417146
C20   C     C_R   0.579299 0.095719 0.472102 0.246618
C21   C     C_R   0.577415 0.129894 0.570253 0.060877
C22   C     C_R   0.478254 0.113729 0.566620 -0.139455
C23   C     C_R   0.959378 0.504753 0.676435 0.119752
C24   C     C_R   0.381617 0.037699 0.468440 -0.180906
C25   C     C_R   0.386047 0.978919 0.375903 0.040937
C26   C     C_R   0.484344 0.021451 0.374781 0.006241
C27   C     C_3   0.540263 0.967435 0.329348 -0.290899
C28   C     C_R   0.685514 0.409694 0.942097 -0.046980
C29   C     C_3   0.643710 0.049347 0.436886 -0.566928
C30   C     C_R   0.961624 0.610076 0.485303 0.000948
C31   C     C_R   0.906385 0.510616 0.387636 0.029871
C32   C     C_R   0.833211 0.416005 0.379992 -0.294616
C33   C     C_R   0.837823 0.416401 0.475316 0.761063
C34   C     C_R   0.675358 0.502040 0.958631 0.085768
C35   C     C_R   0.917680 0.511055 0.577409 -0.162086
C36   C     C_R   0.967909 0.610231 0.579377 -0.149311
C37   C     C_3   0.083069 0.703594 0.646962 1.362454
C38   C     C_3   0.075550 0.703882 0.544074 -0.653539
C39   C     C_R   0.043247 0.027076 0.154294 0.135084
C40   C     C_R   0.946277 0.411506 0.684748 -0.059203
C41   C     C_R   0.097979 0.984023 0.109735 0.059444
C42   C     C_R   0.170589 0.049291 0.087674 -0.193659
C43   C     C_R   0.165914 0.140198 0.083565 -0.066977
C44   C     C_R   0.086341 0.162979 0.098085 0.084463
C45   C     C_R   0.998283 0.593338 0.300189 -0.121088
C46   C     C_R   0.034414 0.113043 0.145374 0.014071
C47   C     C_3   0.919776 0.066493 0.128003 -0.119969
C48   C     C_3   0.931422 0.973021 0.139581 -0.581584
C49   C     C_R   0.777771 0.593462 0.030627 -0.144019
C50   C     C_R   0.686523 0.220881 0.775658 0.670869
C51   C     C_R   0.094268 0.805939 0.006286 -0.116139
C52   C     C_R   0.064661 0.868364 0.069590 0.096731
C53   C     C_2   0.546133 0.982880 0.236335 0.608441
C54   C     C_2   0.912267 0.137393 0.222005 0.413286
C55   C     C_2   0.831171 0.026343 0.014816 0.607978
C56   C     C_R   0.208947 0.410594 0.902810 0.088119
C57   C     C_R   0.297860 0.802117 0.204853 -0.151085
C58   C     C_R   0.976684 0.255849 0.069302 -0.247835
C59   C     C_R   0.062705 0.246653 0.972701 0.760269
F1    F     F_    0.119251 0.220269 0.924458 -0.712018
F2    F     F_    0.305493 0.387613 0.737443 -0.689380
F3    F     F_    0.562257 0.411167 0.052310 -0.634785
F4    F     F_    0.401848 0.423139 0.052100 -0.627009
F5    F     F_    0.773782 0.321654 0.467779 -0.736068
F6    F     F_    0.094819 0.798394 0.721104 -0.703755
F7    F     F_    0.158799 0.675829 0.691867 -0.709218
F8    F     F_    0.611630 0.171743 0.800492 -0.716857
H1    H     H_    0.985656 0.830638 0.163015 0.104103
H2    H     H_    0.802292 0.201911 0.624751 0.151345
H3    H     H_    0.323771 0.323005 0.837881 0.090767
H4    H     H_    0.644945 0.682392 0.016673 0.178118
H5    H     H_    0.585526 0.608255 0.870958 0.233880
H6    H     H_    0.424881 0.600959 0.852820 0.265431
H7    H     H_    0.491760 0.682075 0.998491 0.197954
H8    H     H_    0.638473 0.576843 0.122984 -0.013395
H9    H     H_    0.490460 0.586757 0.112805 0.021238
H10   H     H_    0.473984 0.150235 0.639888 0.180717
H11   H     H_    0.053746 0.679243 0.804691 0.154795
H12   H     H_    0.178332 0.327016 0.843323 0.156007
H13   H     H_    0.305832 0.014778 0.469735 0.136297
H14   H     H_    0.512308 0.881819 0.313981 0.184423
H15   H     H_    0.671652 0.010399 0.483413 0.208402
H16   H     H_    0.708218 0.108677 0.431954 0.235200
H17   H     H_    0.781650 0.339253 0.303547 0.188483
H18   H     H_    0.078009 0.778860 0.542864 0.205599
H19   H     H_    0.621542 0.327307 0.904918 0.204152
H20   H     H_    0.130944 0.680579 0.520748 0.210134
H21   H     H_    0.221514 0.023913 0.061635 0.154935
H22   H     H_    0.215547 0.183538 0.057019 0.217566
H23   H     H_    0.343127 0.829000 0.166989 0.126656
H24   H     H_    0.934265 0.971857 0.214636 0.179540
H25   H     H_    0.875371 0.891432 0.064090 0.219780
H26   H     H_    0.907817 0.329760 0.618234 0.151428
H27   H     H_    0.799931 0.678882 0.068319 0.101896
H28   H     H_    0.154837 0.836043 0.983671 0.129551
H29   H     H_    0.019725 0.677392 0.347975 0.114245
H30   H     H_    0.566351 0.061860 0.240496 0.074600
H31   H     H_    0.980973 0.183840 0.304197 0.069592
H32   H     H_    0.763369 0.040812 0.004837 0.074105
H33   H     H_    0.950416 0.254538 0.127855 0.140227
H34   H     H_    0.181023 0.832540 0.354635 0.091421
H35   H     H_    0.845698 0.327716 0.181075 0.145821
H36   H     H_    0.357847 0.678817 0.033382 0.146445
H37   H     H_    0.468801 0.322096 0.833163 0.173518
H38   H     H_    0.478729 0.402105 0.766699 0.215801
N1    N     N_R   0.995640 0.706130 0.053910 -0.042653
N2    N     N_R   0.054010 0.556790 0.847890 -0.058427
N3    N     N_R   0.789940 0.443190 0.997130 -0.053183
N4    N     N_R   0.997630 0.443170 0.791110 -0.067464
N5    N     N_R   0.846320 0.556810 0.053910 -0.046610
N6    N     N_R   0.791080 0.293860 0.847890 -0.106911
N7    N     N_R   0.052880 0.706130 0.997130 -0.052755
N8    N     N_R   0.002370 0.556830 0.208890 -0.048548
N9    N     N_R   0.153680 0.443190 0.946090 -0.072715
N10   N     N_R   0.208920 0.706140 0.152110 -0.039805
N11   N     N_R   0.947120 0.293870 0.002870 -0.070222
N12   N     N_R   0.004360 0.293870 0.946090 -0.115722
N13   N     N_R   0.151690 0.706140 0.208890 -0.043805
N14   N     N_R   0.945990 0.443210 0.152110 -0.044690
N15   N     N_R   0.210060 0.556810 0.002870 -0.053621
N16   N     N_R   0.848310 0.293860 0.791110 -0.081210
Ni1   Ni    Ni4+2 0.999010 0.630300 0.130220 0.205148
Ni2   Ni    Ni4+2 0.000990 0.369700 0.869780 0.245144
Ni3   Ni    Ni4+2 0.130280 0.630280 0.000000 0.234708
Ni4   Ni    Ni4+2 0.869720 0.369720 0.000000 0.269783
O1    O     O_2   0.528974 0.906872 0.155876 -0.601556
O2    O     O_2   0.829556 0.142112 0.207805 -0.590318
O3    O     O_2   0.834095 0.976137 0.933306 -0.561599

loop_
_geom_bond_atom_site_label_1
_geom_bond_atom_site_label_2
_ccdc_geom_bond_type
C5    H36   S    
C41   C42   A    
C51   N7    A    
C6    C45   A    
C27   C29   S    
C14   H4    S    
C39   C48   S    
C35   C36   A    
C40   H26   S    
C3    C6    A    
C2    N13   A    
C11   H3    S    
C39   C41   A    
N1    N7    A    
C26   C27   S    
C43   H22   S    
C56   H12   S    
C13   C18   S    
N2    Ni3   S    
C36   C37   S    
N7    Ni3   S    
C10   C15   S    
C30   C31   A    
C18   F4    S    
N6    N16   A    
C23   C40   A    
C1    H1    S    
N11   N12   A    
C30   C38   S    
C9    C58   A    
N13   Ni1   S    
C16   N2    A    
C33   C35   A    
N8    N14   A    
C24   H13   S    
C13   F3    S    
C13   H8    S    
C9    C44   S    
C48   H24   S    
C37   F6    S    
N6    Ni4   S    
N3    Ni4   S    
C4    C12   A    
C50   F8    S    
C15   C34   S    
C1    N1    A    
C6    C31   S    
C28   C34   A    
C59   F1    S    
C59   N12   A    
C21   C22   A    
C58   N11   A    
C8    C25   S    
N2    N4    A    
C7    C56   A    
C4    H2    S    
C44   C46   A    
C20   C29   S    
C19   H7    S    
C32   H17   S    
C57   H23   S    
N8    Ni1   S    
C38   H18   S    
C51   C52   A    
C19   H6    S    
C58   H33   S    
C24   C25   A    
C57   N10   A    
C10   C11   S    
C5    C7    A    
N4    Ni2   S    
C5    N15   A    
C2    H34   S    
C53   H30   S    
C25   C26   A    
C12   C21   S    
C9    C59   A    
C43   C44   A    
C37   C38   S    
C8    C57   A    
C47   C48   S    
C27   H14   S    
N10   N13   A    
C37   F7    S    
N1    Ni1   S    
C17   C18   S    
C55   O3    D    
C3    N14   A    
C39   C46   A    
N9    Ni2   S    
N14   Ni4   S    
C3    H35   S    
C16   C23   A    
C23   C35   S    
N11   Ni4   S    
C47   C54   S    
C28   H19   S    
C49   H27   S    
C22   C24   A    
C42   H21   S    
C42   C43   A    
C47   C55   S    
C46   C47   S    
C11   C17   S    
C34   C49   A    
C18   H9    S    
N10   Ni3   S    
C41   C52   S    
C14   H5    S    
C14   C19   S    
C31   C32   A    
C2    C8    A    
C22   H10   S    
C11   F2    S    
C7    C17   S    
C12   C50   A    
C27   C53   S    
C29   H16   S    
C40   N4    A    
C54   O2    D    
C30   C36   A    
C38   H20   S    
C32   C33   A    
C13   C15   S    
N12   Ni2   S    
C29   H15   S    
N5    Ni1   S    
C20   C26   A    
C28   N3    A    
C33   F5    S    
C10   H37   S    
C50   N6    A    
C17   C19   S    
N3    N5    A    
C4    N16   A    
C16   H11   S    
C1    C52   A    
N16   Ni2   S    
C53   O1    D    
C45   N8    A    
C20   C21   A    
C48   H25   S    
C55   H32   S    
C56   N9    A    
C14   C15   S    
C54   H31   S    
C10   H38   S    
C45   H29   S    
N9    N15   A    
N15   Ni3   S    
C51   H28   S    
C49   N5    A    
