data_mof_unit_8287.cif
_audit_creation_date              2013-03-05T17:00:26-0500
_audit_creation_method            fapswitch 2.2
_symmetry_space_group_name_H-M    P1
_symmetry_Int_Tables_number       1
_space_group_crystal_system       triclinic
_cell_length_a                    10.752778
_cell_length_b                    16.112503
_cell_length_c                    16.723637
_cell_angle_alpha                 86.900283
_cell_angle_beta                  92.200847
_cell_angle_gamma                 94.516347
_cell_volume                      2882.51978151

loop_
_atom_site_label
_atom_site_type_symbol
_atom_site_description
_atom_site_fract_x
_atom_site_fract_y
_atom_site_fract_z
_atom_type_partial_charge
O1    O     O_R   0.494530 0.422540 0.612660 -0.551874
O2    O     O_R   0.505470 0.577460 0.387340 -0.546802
O3    O     O_R   0.504350 0.561840 0.618900 -0.639258
O4    O     O_R   0.495650 0.438160 0.381100 -0.636063
C1    C     C_R   0.495098 0.488439 0.653290 1.012313
C2    C     C_R   0.498986 0.511927 0.346600 0.916328
O5    O     O_R   0.678310 0.430340 0.496890 -0.590901
O6    O     O_R   0.321690 0.569660 0.503110 -0.593518
O7    O     O_R   0.688140 0.569650 0.503130 -0.630162
O8    O     O_R   0.311860 0.430350 0.496870 -0.568472
C3    C     C_R   0.739692 0.500989 0.503565 0.968222
C4    C     C_R   0.259460 0.498398 0.497214 0.896003
Zn1   Zn    Zn3+2 0.493440 0.406980 0.495830 1.014774
Zn2   Zn    Zn3+2 0.506560 0.593020 0.504170 1.003039
C5    C     C_R   0.854848 0.462525 0.362600 -0.264960
C6    C     C_R   0.150227 0.561845 0.632295 -0.230379
C7    C     C_R   0.906575 0.427368 0.298785 -0.349082
C8    C     C_R   0.097017 0.595802 0.696145 -0.320840
C9    C     C_R   0.022903 0.394140 0.309619 0.522893
C10   C     C_R   0.967863 0.590285 0.702031 0.505363
C11   C     C_R   0.090845 0.405407 0.382046 0.438087
C12   C     C_R   0.893086 0.547321 0.644506 0.428361
C13   C     C_R   0.049782 0.458426 0.439723 -0.127497
C14   C     C_R   0.945062 0.527216 0.571661 -0.118406
C15   C     C_R   0.925034 0.475956 0.434805 0.008857
C16   C     C_R   0.075151 0.529132 0.567910 0.024540
C17   C     C_R   0.126407 0.493006 0.502606 -0.102150
C18   C     C_R   0.872052 0.503311 0.503250 -0.122032
H1    H     H_    0.759861 0.479467 0.354603 0.153381
H2    H     H_    0.250456 0.561146 0.635263 0.182677
H3    H     H_    0.852327 0.421312 0.243297 0.165670
H4    H     H_    0.156426 0.622469 0.743438 0.180938
C19   C     C_R   0.499057 0.481548 0.740499 -0.264522
C20   C     C_R   0.484028 0.521597 0.259833 -0.263376
C21   C     C_R   0.562334 0.546814 0.780826 -0.287832
C22   C     C_R   0.407368 0.460983 0.221155 -0.303362
C23   C     C_R   0.572884 0.543971 0.863735 0.095118
C24   C     C_R   0.384577 0.467758 0.138784 0.086250
C25   C     C_R   0.513542 0.475472 0.907200 0.107997
C26   C     C_R   0.442061 0.536405 0.094613 0.099464
C27   C     C_R   0.458996 0.406095 0.867298 0.408085
C28   C     C_R   0.508343 0.602317 0.133234 0.410811
C29   C     C_R   0.447748 0.410205 0.783139 0.372176
C30   C     C_R   0.532448 0.594252 0.216727 0.390690
N1    N     N_2   0.503781 0.476351 0.990758 -0.153341
N2    N     N_2   0.446452 0.535829 0.010761 -0.142643
H5    H     H_    0.362369 0.409041 0.255794 0.224054
H6    H     H_    0.606533 0.599783 0.747144 0.218151
N3    N     N_R   0.515300 0.716920 0.509720 -0.145328
N4    N     N_R   0.484700 0.283080 0.490280 -0.135807
C31   C     C_R   0.442341 0.761913 0.457843 0.659606
C32   C     C_R   0.557090 0.238077 0.542554 0.629798
C33   C     C_R   0.444539 0.849622 0.463004 -0.483199
C34   C     C_R   0.549847 0.150198 0.541568 -0.496297
C35   C     C_R   0.524780 0.890895 0.519488 0.178707
C36   C     C_R   0.476030 0.108671 0.482411 0.194359
C37   C     C_R   0.598476 0.842087 0.571789 0.449377
C38   C     C_R   0.411078 0.156863 0.424455 0.431787
C39   C     C_R   0.593560 0.754973 0.564723 -0.247224
C40   C     C_R   0.418213 0.245087 0.429850 -0.267221
N5    N     N_2   0.533333 0.979911 0.526474 -0.123309
N6    N     N_2   0.467241 0.019506 0.476811 -0.111891
H7    H     H_    0.602785 0.115270 0.586218 0.206228
H8    H     H_    0.383241 0.884912 0.424035 0.206337
H9    H     H_    0.652397 0.717430 0.603387 0.176519
H10   H     H_    0.371279 0.284062 0.386049 0.222834
O9    O     O_3   0.914922 0.617246 0.768950 -0.606980
C41   C     C_3   0.913622 0.704742 0.760598 -0.330688
H11   H     H_    0.853789 0.723720 0.708003 0.174193
H12   H     H_    0.009452 0.735765 0.755770 0.168078
H13   H     H_    0.873873 0.727299 0.814850 0.183965
O10   O     O_3   0.074300 0.349921 0.251695 -0.614354
C42   C     C_3   0.987458 0.287471 0.222537 -0.352652
H14   H     H_    0.923293 0.314368 0.176202 0.166376
H15   H     H_    0.933991 0.253109 0.271444 0.163377
H16   H     H_    0.039580 0.241378 0.193279 0.192684
O11   O     O_3   0.680852 0.880656 0.626258 -0.590028
C43   C     C_3   0.638583 0.861021 0.704340 -0.340571
H17   H     H_    0.644959 0.793872 0.721817 0.144846
H18   H     H_    0.541449 0.878739 0.710429 0.168009
H19   H     H_    0.699525 0.897276 0.747079 0.193129
O12   O     O_3   0.336941 0.113894 0.367534 -0.589125
C44   C     C_3   0.320384 0.161086 0.294983 -0.340828
H20   H     H_    0.409863 0.193214 0.274348 0.155156
H21   H     H_    0.248126 0.205858 0.300719 0.208919
H22   H     H_    0.285637 0.118101 0.248075 0.195425
O13   O     O_3   0.176301 0.347977 0.402973 -0.596974
C45   C     C_3   0.116137 0.283526 0.451873 -0.274929
H23   H     H_    0.178445 0.232449 0.463155 0.194628
H24   H     H_    0.029109 0.255865 0.422279 0.141702
H25   H     H_    0.095242 0.306236 0.511201 0.166145
O14   O     O_3   0.775546 0.514258 0.664582 -0.617716
C46   C     C_3   0.788861 0.444222 0.718468 -0.285513
H26   H     H_    0.872326 0.409611 0.708396 0.132901
H27   H     H_    0.706529 0.399255 0.711133 0.200864
H28   H     H_    0.793000 0.463849 0.781166 0.197859
C47   C     C_3   0.293186 0.404344 0.099777 -0.297513
C48   C     C_3   0.332840 0.315669 0.113602 -0.819427
H29   H     H_    0.433466 0.313453 0.102442 0.257422
H30   H     H_    0.315399 0.292848 0.176111 0.243373
H31   H     H_    0.277419 0.273593 0.072917 0.256182
H32   H     H_    0.199908 0.407673 0.125117 0.230759
H33   H     H_    0.281169 0.418287 0.034366 0.237282
C49   C     C_3   0.649900 0.613645 0.903706 -0.333468
C50   C     C_3   0.765534 0.582013 0.947647 -0.817566
H34   H     H_    0.738974 0.540438 0.000303 0.247207
H35   H     H_    0.819196 0.547298 0.906919 0.287320
H36   H     H_    0.826779 0.635662 0.968843 0.232797
H37   H     H_    0.681460 0.663366 0.858826 0.189889
H38   H     H_    0.592256 0.644103 0.944914 0.246952
O15   O     O_3   0.405718 0.337522 0.910239 -0.573435
C51   C     C_3   0.502196 0.289273 0.941635 -0.362586
H39   H     H_    0.560638 0.322283 0.988014 0.175273
H40   H     H_    0.563046 0.271577 0.893984 0.136156
H41   H     H_    0.459384 0.230821 0.970407 0.193987
O16   O     O_3   0.536214 0.676233 0.088350 -0.600601
C52   C     C_3   0.663960 0.703684 0.095139 -0.262047
H42   H     H_    0.726199 0.651778 0.105261 0.140604
H43   H     H_    0.679421 0.749381 0.142423 0.212077
H44   H     H_    0.691115 0.737858 0.038371 0.162428
O17   O     O_3   0.372831 0.350994 0.742774 -0.586646
C53   C     C_3   0.432130 0.275979 0.741980 -0.172998
H45   H     H_    0.535999 0.285162 0.742117 0.143472
H46   H     H_    0.401368 0.244547 0.686422 0.177185
H47   H     H_    0.401730 0.233438 0.793075 0.179645
O18   O     O_3   0.593503 0.660182 0.255914 -0.591043
C54   C     C_3   0.717077 0.641945 0.278467 -0.334019
H48   H     H_    0.754792 0.593566 0.242853 0.128509
H49   H     H_    0.723198 0.623147 0.343075 0.202577
H50   H     H_    0.779315 0.699740 0.270025 0.181179
O19   O     O_3   0.636817 0.279844 0.596298 -0.600648
C55   C     C_3   0.761402 0.265223 0.580919 -0.317952
H51   H     H_    0.780874 0.271237 0.515736 0.165079
H52   H     H_    0.784728 0.203189 0.606793 0.158918
H53   H     H_    0.824924 0.312657 0.610235 0.186027
O20   O     O_3   0.361271 0.718601 0.405405 -0.575286
C56   C     C_3   0.362013 0.757100 0.327533 -0.241419
H54   H     H_    0.457112 0.782305 0.309913 0.188385
H55   H     H_    0.295847 0.806814 0.322188 0.146794
H56   H     H_    0.329168 0.709583 0.284309 0.199233

loop_
_geom_bond_atom_site_label_1
_geom_bond_atom_site_label_2
_geom_bond_distance
_ccdc_geom_bond_type
C24   C26   1.410739 A    
O13   C45   1.417287 S    
C11   O13   1.377410 S    
C46   H26   1.115983 S    
C27   C29   1.406415 A    
C42   H14   1.110863 S    
C10   O9    1.380452 S    
O15   C51   1.413262 S    
C51   H40   1.112866 S    
C47   C48   1.526203 S    
C25   C27   1.409334 A    
O11   C43   1.410706 S    
C15   C18   1.404708 A    
C26   N2    1.405470 S    
C56   H55   1.110365 S    
C30   O18   1.386140 S    
C16   C17   1.414500 A    
O18   C54   1.416071 S    
O1    C1    1.290669 A    
C12   C14   1.422981 A    
O14   C46   1.418295 S    
C9    C11   1.403111 A    
C14   C16   1.400470 A    
C52   H43   1.108455 S    
C49   H37   1.109975 S    
C33   H8    1.080941 S    
C43   H18   1.114008 S    
C5    C15   1.416723 A    
Zn2   N3    1.998159 S    
C34   H7    1.081987 S    
C38   C40   1.425085 A    
O16   C52   1.411782 S    
C22   H5    1.084183 S    
O4    Zn1   1.957487 S    
C51   H39   1.110824 S    
C19   C21   1.397291 A    
C41   H11   1.113344 S    
N3    C31   1.364904 A    
C1    C19   1.455919 S    
N4    C32   1.365281 A    
C13   C17   1.421177 A    
C29   O17   1.386240 S    
C8    C10   1.391539 A    
C47   H32   1.109975 S    
C25   N1    1.406262 S    
C26   C28   1.404507 A    
C40   H10   1.075827 S    
C46   H27   1.106341 S    
C42   H15   1.114910 S    
C9    O10   1.388968 S    
O2    C2    1.283184 A    
C28   C30   1.411245 A    
C24   C47   1.516569 S    
C21   H6    1.084553 S    
C49   C50   1.528038 S    
C50   H36   1.110020 S    
C32   C34   1.412913 A    
C5    H1    1.079392 S    
C33   C35   1.412071 A    
C6    C16   1.420033 A    
C56   H56   1.109539 S    
C34   C36   1.408573 A    
C4    C17   1.432500 S    
O9    C41   1.410273 S    
C19   C29   1.405693 A    
C37   O11   1.383148 S    
C20   C30   1.415196 A    
O4    C2    1.291348 A    
C52   H44   1.108682 S    
C43   H17   1.112055 S    
O20   C56   1.411926 S    
N1    N2    1.246548 D    
C2    C20   1.455080 S    
C31   C33   1.418798 A    
O5    C3    1.278146 A    
O7    Zn2   2.018268 S    
C54   H49   1.107150 S    
C50   H35   1.109940 S    
C31   O20   1.388385 S    
C44   H20   1.113778 S    
C45   H25   1.112711 S    
O6    C4    1.289194 A    
C35   C37   1.407825 A    
O7    C3    1.275395 A    
O17   C53   1.411175 S    
C47   H33   1.109479 S    
O3    Zn2   1.957487 S    
O8    C4    1.271957 A    
C41   H12   1.113139 S    
C44   H21   1.111200 S    
C45   H24   1.114400 S    
O12   C44   1.409603 S    
C46   H28   1.109733 S    
C48   H30   1.107172 S    
C11   C13   1.427023 A    
C7    H3    1.081733 S    
C42   H16   1.109515 S    
C36   N6    1.440218 S    
O1    Zn1   1.982719 S    
C53   H46   1.109101 S    
C54   H48   1.115954 S    
C50   H34   1.109555 S    
C28   O16   1.391426 S    
C5    C7    1.389161 A    
O6    Zn2   1.993432 S    
C21   C23   1.385393 A    
C32   O19   1.382406 S    
C6    C8    1.387917 A    
C14   C18   1.415862 A    
C10   C12   1.405765 A    
O10   C42   1.411504 S    
O3    C1    1.285178 A    
O8    Zn1   2.018269 S    
C23   C49   1.511666 S    
C48   H31   1.110326 S    
C56   H54   1.114553 S    
N3    C39   1.360324 A    
N4    C40   1.360035 A    
C53   H47   1.108913 S    
C38   O12   1.395372 S    
C54   H50   1.108999 S    
C23   C25   1.411241 A    
C52   H42   1.113612 S    
C39   H9    1.082048 S    
C49   H38   1.103288 S    
C43   H19   1.109235 S    
C3    C18   1.420989 S    
C41   H13   1.108082 S    
C35   N5    1.440752 S    
C22   C24   1.389824 A    
C55   H53   1.106173 S    
C7    C9    1.400589 A    
C36   C38   1.407897 A    
C55   H51   1.115545 S    
C20   C22   1.397253 A    
C13   C15   1.390879 A    
N5    N6    1.253257 D    
O2    Zn2   1.982717 S    
C37   C39   1.411625 A    
Zn1   N4    1.998159 S    
O5    Zn1   1.993433 S    
C44   H22   1.109132 S    
C8    H4    1.083035 S    
C45   H23   1.105487 S    
C55   H52   1.110659 S    
C48   H29   1.108676 S    
C27   O15   1.382306 S    
C12   O14   1.378813 S    
C53   H45   1.114955 S    
C6    H2    1.077898 S    
C51   H41   1.109126 S    
O19   C55   1.413854 S    
