data_mof_unit_36510.cif
_audit_creation_date              2013-03-05T15:54:48-0500
_audit_creation_method            fapswitch 2.2
_symmetry_space_group_name_H-M    P1
_symmetry_Int_Tables_number       1
_space_group_crystal_system       triclinic
_cell_length_a                    19.209458
_cell_length_b                    10.727242
_cell_length_c                    9.917457
_cell_angle_alpha                 88.269767
_cell_angle_beta                  89.791578
_cell_angle_gamma                 93.099258
_cell_volume                      2039.68794969

loop_
_atom_site_label
_atom_site_type_symbol
_atom_site_description
_atom_site_fract_x
_atom_site_fract_y
_atom_site_fract_z
_atom_type_partial_charge
O1    O     O_R   0.500000 0.316780 0.614690 -0.562874
O2    O     O_R   0.499990 0.316750 0.385360 -0.648142
C1    C     C_R   0.502614 0.259595 0.503078 0.922456
O3    O     O_R   0.398140 0.500000 0.614700 -0.558000
O4    O     O_R   0.398130 0.499970 0.385370 -0.653696
C2    C     C_R   0.365633 0.498886 0.500341 0.898029
Zn1   Zn    Zn3+2 0.500000 0.500020 0.653130 0.993909
Zn2   Zn    Zn3+2 0.500000 0.499980 0.346870 0.953948
O5    O     O_R   0.500010 0.683250 0.614640 -0.629895
O6    O     O_R   0.500000 0.683220 0.385310 -0.620199
O7    O     O_R   0.601870 0.500030 0.614630 -0.623380
O8    O     O_R   0.601860 0.500000 0.385300 -0.616400
C3    C     C_R   0.493281 0.738365 0.498440 0.868422
C4    C     C_R   0.634292 0.499210 0.499837 0.908509
C5    C     C_R   0.253916 0.512707 0.621518 -0.120020
H1    H     H_    0.281452 0.535300 0.713504 0.153679
C6    C     C_R   0.181695 0.504488 0.623554 -0.106444
H2    H     H_    0.154803 0.520804 0.717047 0.166947
C7    C     C_R   0.144824 0.474953 0.506068 0.076017
C8    C     C_R   0.180815 0.453476 0.386558 -0.117426
H3    H     H_    0.153233 0.431358 0.294529 0.171050
C9    C     C_R   0.253060 0.462924 0.384151 -0.186717
H4    H     H_    0.279899 0.446289 0.290732 0.167703
C10   C     C_R   0.289909 0.492511 0.501652 -0.028677
N1    N     N_R   0.032306 0.411482 0.409195 -0.132880
N2    N     N_R   0.963233 0.411435 0.407942 -0.093447
C11   C     C_R   0.929046 0.471130 0.504332 0.424639
N3    N     N_R   0.965571 0.529756 0.602601 -0.094799
N4    N     N_R   0.034559 0.529256 0.604134 -0.136742
C12   C     C_R   0.069046 0.470570 0.507212 0.297473
C13   C     C_R   0.814597 0.440193 0.618896 0.296764
C14   C     C_R   0.742853 0.451860 0.617520 -0.235926
H5    H     H_    0.712604 0.424958 0.707182 0.199424
C15   C     C_R   0.709605 0.492072 0.500184 -0.153297
C16   C     C_R   0.748137 0.522623 0.383014 -0.227297
H6    H     H_    0.722259 0.555387 0.292780 0.195872
C17   C     C_R   0.820380 0.517116 0.382849 0.298604
C18   C     C_R   0.853749 0.474832 0.501386 -0.179460
H7    H     H_    0.529817 0.119043 0.297029 0.178179
C19   C     C_R   0.486630 0.099537 0.762805 -0.088890
H8    H     H_    0.514709 0.184962 0.788759 0.166038
C20   C     C_R   0.455035 0.030726 0.870220 -0.143558
H9    H     H_    0.455756 0.067956 0.970514 0.138234
C21   C     C_R   0.421762 0.915127 0.848045 -0.085099
H10   H     H_    0.394897 0.863545 0.929987 0.151781
C22   C     C_R   0.426254 0.863210 0.721609 -0.138433
H11   H     H_    0.400818 0.771969 0.707965 0.148165
C23   C     C_R   0.463629 0.928029 0.615217 0.087772
C24   C     C_R   0.484788 0.053663 0.629859 0.122698
C25   C     C_R   0.503587 0.125209 0.510350 -0.130326
C26   C     C_R   0.514068 0.066700 0.388298 -0.208220
H12   H     H_    0.520542 0.895783 0.289954 0.171050
C27   C     C_R   0.506518 0.939515 0.382604 -0.192817
C28   C     C_R   0.483473 0.869814 0.496395 -0.117543
H13   H     H_    0.583170 0.634445 0.119895 0.146184
C29   C     C_R   0.404396 0.343441 0.150636 -0.239340
H14   H     H_    0.404638 0.333877 0.257161 0.247636
C30   C     C_R   0.353068 0.270683 0.089381 -0.400259
H15   H     H_    0.316557 0.213912 0.151759 0.232139
C31   C     C_R   0.348961 0.269523 0.950340 0.245706
C32   C     C_R   0.398977 0.340472 0.872676 0.511176
C33   C     C_R   0.451008 0.422345 0.932026 -0.033592
C34   C     C_R   0.452114 0.422865 0.076572 0.122138
N5    N     N_R   0.499340 0.498800 0.142780 -0.103494
C35   C     C_R   0.545747 0.573902 0.068511 -0.093008
H16   H     H_    0.583313 0.634042 0.869563 0.156562
C36   C     C_R   0.545844 0.573699 0.925537 -0.090038
N6    N     N_R   0.499320 0.498720 0.857170 -0.102772
N7    N     N_R   0.295596 0.191307 0.887816 0.244412
O9    O     O_R   0.275256 0.215563 0.765210 -0.312562
O10   O     O_R   0.263786 0.099505 0.956188 -0.372992
F1    F     F_    0.397769 0.315518 0.742171 -0.616262
N8    N     N_R   0.846351 0.389742 0.738530 0.223813
O11   O     O_R   0.820504 0.409956 0.856872 -0.314323
O12   O     O_R   0.894487 0.309541 0.729179 -0.343025
N9    N     N_R   0.858936 0.559554 0.263923 0.223464
O13   O     O_R   0.914876 0.632646 0.273934 -0.346929
O14   O     O_R   0.832504 0.541383 0.145024 -0.311393

loop_
_geom_bond_atom_site_label_1
_geom_bond_atom_site_label_2
_geom_bond_distance
_ccdc_geom_bond_type
H7    C26   1.084001 S    
C19   H8    1.076452 S    
N8    O11   1.301444 A    
C7    C8    1.401278 A    
C27   C28   1.392191 A    
H12   C27   1.083891 S    
C23   C28   1.410975 A    
N2    C11   1.353900 A    
N4    C12   1.355041 A    
N3    N4    1.325658 A    
C16   C17   1.392200 A    
C17   C18   1.415401 A    
N9    O14   1.301448 A    
O4    C2    1.297364 A    
O7    C4    1.296182 A    
C13   N8    1.440423 S    
C11   C18   1.449470 S    
C30   C31   1.381859 A    
C19   C24   1.421072 A    
C29   H14   1.058389 S    
C5    C6    1.385391 A    
C15   C16   1.396457 A    
N7    O10   1.301742 A    
O5    C3    1.289387 A    
Zn1   N6    2.023174 S    
C16   H6    1.083786 S    
C35   C36   1.417995 A    
C19   C20   1.395499 A    
H16   C36   1.081781 S    
N8    O12   1.301547 A    
C32   C33   1.434350 A    
C20   C21   1.387958 A    
O3    Zn1   1.994801 S    
H13   C35   1.081876 S    
C1    C25   1.442352 S    
C21   C22   1.391593 A    
C25   C26   1.399072 A    
C22   C23   1.417198 A    
C36   N6    1.365637 A    
N9    O13   1.301435 A    
O3    C2    1.296733 A    
N1    N2    1.326926 A    
C31   C32   1.405616 A    
C26   C27   1.367101 A    
C14   C15   1.397496 A    
Zn1   O7    1.992398 S    
C33   C34   1.433929 A    
C13   C14   1.390648 A    
Zn2   O8    1.994799 S    
C2    C10   1.452528 S    
C6    H2    1.083195 S    
C29   C34   1.406604 A    
Zn2   N5    2.024557 S    
C32   F1    1.329595 S    
C5    C10   1.401394 A    
C17   N9    1.439320 S    
O8    C4    1.297557 A    
C9    C10   1.401352 A    
C20   H9    1.082834 S    
C21   H10   1.082512 S    
C3    C28   1.432234 S    
N1    C12   1.355964 A    
Zn1   O5    1.990920 S    
C22   H11   1.082496 S    
C23   C24   1.398439 A    
O1    Zn1   2.013555 S    
O2    Zn2   1.990918 S    
C8    C9    1.386068 A    
O6    C3    1.293316 A    
C4    C15   1.452879 S    
O4    Zn2   1.992402 S    
C13   C18   1.413903 A    
C33   N6    1.399887 A    
C14   H5    1.083617 S    
O2    C1    1.304601 A    
C30   H15   1.083240 S    
N5    C35   1.366744 A    
C31   N7    1.443060 S    
C6    C7    1.401303 A    
C29   C30   1.378459 A    
N7    O9    1.301624 A    
C34   N5    1.369083 A    
C8    H3    1.083066 S    
Zn2   O6    2.013555 S    
C24   C25   1.426955 A    
C11   N3    1.353477 A    
C9    H4    1.082809 S    
O1    C1    1.283740 A    
C7    C12   1.453864 S    
C5    H1    1.083409 S    
