data_mof_unit_8657.cif
_audit_creation_date              2012-12-10T16:52:41-0500
_audit_creation_method            fapswitch 2.2
_symmetry_space_group_name_H-M    P1
_symmetry_Int_Tables_number       1
_space_group_crystal_system       triclinic
_cell_length_a                    7.846329
_cell_length_b                    8.547414
_cell_length_c                    14.011315
_cell_angle_alpha                 92.5962
_cell_angle_beta                  95.743743
_cell_angle_gamma                 94.012373
_cell_volume                      931.375343873

loop_
_atom_site_label
_atom_site_type_symbol
_atom_type_description
_atom_site_fract_x
_atom_site_fract_y
_atom_site_fract_z
_atom_type_partial_charge
C1    C     C_R   0.045394 0.794548 0.499156 0.963944
C2    C     C_R   0.935800 0.497651 0.318800 0.877855
C3    C     C_R   0.121983 0.581239 0.778423 -0.149922
C4    C     C_R   0.913509 0.518936 0.215480 -0.204756
C5    C     C_R   0.134892 0.791091 0.901722 -0.342972
C6    C     C_R   0.023537 0.491829 0.060695 -0.288083
C7    C     C_R   0.047141 0.711644 0.818246 0.496943
C8    C     C_R   0.055752 0.522577 0.160431 0.492360
C9    C     C_R   0.276419 0.532043 0.819887 -0.376860
C10   C     C_R   0.756202 0.554432 0.171399 -0.345789
C11   C     C_R   0.368334 0.616729 0.897037 0.088596
C12   C     C_R   0.955389 0.205656 0.503387 0.957569
C13   C     C_R   0.735729 0.567199 0.072469 0.087185
C14   C     C_R   0.293284 0.743782 0.940794 0.133282
C15   C     C_R   0.856450 0.504290 0.016824 0.079862
C16   C     C_R   0.532204 0.576066 0.933632 0.067274
C17   C     C_R   0.592953 0.631249 0.027323 0.088228
C18   C     C_3   0.224608 0.729169 0.235914 0.137509
C19   C     C_3   0.388472 0.777513 0.302314 -0.306791
C20   C     C_3   0.412200 0.955393 0.321454 -0.990624
C21   C     C_3   0.817330 0.877506 0.817414 0.078470
C22   C     C_3   0.645608 0.902210 0.760460 -0.303169
C23   C     C_R   0.521935 0.760397 0.069464 -0.210952
C24   C     C_3   0.556280 0.034867 0.806489 -0.965811
C25   C     C_R   0.640830 0.488892 0.879901 -0.208523
C26   C     C_R   0.378669 0.822099 0.023223 -0.227059
C27   C     C_R   0.806713 0.462201 0.919907 -0.189920
C28   C     C_2   0.069839 0.958729 0.502399 -0.383922
C29   C     C_2   0.932065 0.041839 0.505343 -0.377907
C30   C     C_R   0.068959 0.520058 0.680754 0.901757
H1    H     H_    0.330865 0.927008 0.053865 0.139635
H2    H     H_    0.801812 0.990081 0.507048 0.173724
H3    H     H_    0.486048 0.376304 0.428299 0.202870
H4    H     H_    0.513944 0.623845 0.571614 0.190795
H5    H     H_    0.115949 0.754516 0.278055 0.106999
H6    H     H_    0.214363 0.805483 0.174378 0.135703
H7    H     H_    0.383925 0.719571 0.371069 0.250807
H8    H     H_    0.501874 0.739176 0.270925 0.209872
H9    H     H_    0.295465 0.000731 0.347760 0.269724
H10   H     H_    0.437612 0.013439 0.254415 0.264484
H11   H     H_    0.523152 0.985672 0.376364 0.265539
H12   H     H_    0.893121 0.405247 0.876372 0.142556
H13   H     H_    0.899594 0.989627 0.821229 0.137306
H14   H     H_    0.791763 0.842778 0.890632 0.150618
H15   H     H_    0.667574 0.931258 0.685889 0.223258
H16   H     H_    0.560732 0.791956 0.756873 0.227369
H17   H     H_    0.535331 0.009956 0.881667 0.276135
H18   H     H_    0.429743 0.046393 0.765255 0.266014
H19   H     H_    0.635508 0.147620 0.806089 0.262705
H20   H     H_    0.649366 0.567184 0.212799 0.195242
H21   H     H_    0.326401 0.428638 0.788818 0.175847
H22   H     H_    0.084181 0.890919 0.936288 0.121636
H23   H     H_    0.127725 0.469152 0.018137 0.170725
H24   H     H_    0.585020 0.820558 0.134307 0.150490
H25   H     H_    0.605742 0.453213 0.805121 0.161374
H26   H     H_    0.200272 0.010746 0.502429 0.180509
N1    N     N_2   0.440860 0.456490 0.474790 -0.185836
N2    N     N_2   0.559140 0.543510 0.525210 -0.183435
O1    O     O_R   0.891570 0.738930 0.506190 -0.601488
O2    O     O_3   0.896351 0.758246 0.769162 -0.632860
O3    O     O_R   0.108430 0.261070 0.493810 -0.609730
O4    O     O_R   0.174650 0.711050 0.490030 -0.649477
O5    O     O_R   0.825350 0.288950 0.509970 -0.628093
O6    O     O_R   0.909850 0.521900 0.644940 -0.567230
O7    O     O_R   0.090150 0.478100 0.355060 -0.576266
O8    O     O_R   0.192930 0.494020 0.628780 -0.629354
O9    O     O_R   0.807070 0.505980 0.371220 -0.627007
O10   O     O_3   0.221037 0.568869 0.201884 -0.624973
Zn1   Zn    Zn3+2 0.810990 0.518620 0.510790 0.949041
Zn2   Zn    Zn3+2 0.189010 0.481380 0.489210 0.936998

loop_
_geom_bond_atom_site_label_1
_geom_bond_atom_site_label_2
_ccdc_geom_bond_type
O3    Zn2   S    
C1    C28   S    
C2    C4    S    
C5    H22   S    
C3    C9    A    
C19   H8    S    
C30   O6    A    
N1    Zn2   S    
C25   C27   A    
C21   H14   S    
C18   H5    S    
C15   C27   A    
C19   C20   S    
C9    H21   S    
C21   O2    S    
C13   C17   A    
C4    C8    A    
C2    O7    A    
C1    O4    A    
C12   O5    A    
C13   C15   A    
C20   H11   S    
C5    C14   A    
C26   H1    S    
N2    Zn1   S    
O8    Zn2   S    
O6    Zn1   S    
C14   C26   A    
C12   O3    A    
C9    C11   A    
C27   H12   S    
N1    N2    D    
C17   C23   A    
O1    Zn1   S    
C3    C30   S    
C28   C29   D    
C30   O8    A    
H3    N1    S    
C8    O10   S    
C29   H2    S    
C3    C7    A    
C1    O1    A    
C28   H26   S    
C20   H10   S    
C11   C14   A    
C22   C24   S    
C6    H23   S    
C18   O10   S    
O7    Zn2   S    
C10   H20   S    
O5    Zn1   S    
C7    O2    S    
C24   H19   S    
C22   H15   S    
O4    Zn2   S    
C23   H24   S    
C5    C7    A    
C2    O9    A    
C11   C16   A    
C23   C26   A    
C16   C25   A    
H4    N2    S    
C20   H9    S    
C18   C19   S    
C6    C8    A    
C19   H7    S    
C22   H16   S    
C6    C15   A    
C21   C22   S    
C24   H17   S    
C18   H6    S    
C10   C13   A    
C21   H13   S    
C25   H25   S    
C4    C10   A    
C16   C17   A    
O9    Zn1   S    
C12   C29   S    
C24   H18   S    
