data_mof_unit_49839.cif
_audit_creation_date              2012-12-11T14:33:52-0500
_audit_creation_method            fapswitch 2.2
_symmetry_space_group_name_H-M    P1
_symmetry_Int_Tables_number       1
_space_group_crystal_system       triclinic
_cell_length_a                    13.851432
_cell_length_b                    13.954528
_cell_length_c                    27.230433
_cell_angle_alpha                 89.844279
_cell_angle_beta                  89.520933
_cell_angle_gamma                 119.51233
_cell_volume                      4580.14971615

loop_
_atom_site_label
_atom_site_type_symbol
_atom_type_description
_atom_site_fract_x
_atom_site_fract_y
_atom_site_fract_z
_atom_type_partial_charge
C1    C     C_R   0.233237 0.787145 0.568511 0.541253
C2    C     C_R   0.212162 0.446205 0.568589 0.541576
C3    C     C_R   0.553122 0.765362 0.568811 0.546866
C4    C     C_3   0.666847 0.738299 0.790521 -0.171048
C5    C     C_3   0.241997 0.948026 0.783528 -0.163521
C6    C     C_3   0.055656 0.310609 0.787100 -0.195288
C7    C     C_3   0.649925 0.725070 0.734118 0.163596
C8    C     C_3   0.259369 0.933919 0.728375 0.164360
C9    C     C_3   0.062791 0.334000 0.731058 0.118488
C10   C     C_1   0.707483 0.863867 0.860327 0.002037
C11   C     C_1   0.111610 0.880232 0.852814 0.000695
C12   C     C_1   0.117709 0.232932 0.852858 0.011667
C13   C     C_1   0.629761 0.814205 0.658474 -0.016631
C14   C     C_1   0.174189 0.816942 0.656058 -0.018063
C15   C     C_1   0.178647 0.360746 0.656584 0.038825
C16   C     C_1   0.602075 0.796176 0.616231 0.004277
C17   C     C_1   0.197101 0.805256 0.614798 -0.000045
C18   C     C_1   0.192384 0.394052 0.615178 0.023407
C19   C     C_R   0.065225 0.152742 0.096735 0.557981
C20   C     C_R   0.759755 0.874970 0.078326 0.532935
C21   C     C_R   0.116873 0.892330 0.087408 0.610610
C22   C     C_R   0.069624 0.160063 0.943420 0.517207
C23   C     C_R   0.779923 0.887415 0.950812 0.534933
C24   C     C_R   0.090866 0.930688 0.943551 0.517914
C25   C     C_R   0.595918 0.879608 0.352235 -0.134697
C26   C     C_R   0.097270 0.738730 0.363439 -0.116465
C27   C     C_R   0.268009 0.362220 0.363596 -0.116775
C28   C     C_R   0.610371 0.887732 0.300911 -0.018421
C29   C     C_R   0.080331 0.750939 0.313778 -0.019427
C30   C     C_R   0.243843 0.310496 0.317911 -0.009363
C31   C     C_R   0.636903 0.902980 0.197582 0.050074
C32   C     C_R   0.058542 0.762977 0.211800 0.051789
C33   C     C_R   0.202022 0.231726 0.221052 0.057826
C34   C     C_R   0.233346 0.788631 0.431493 0.540942
C35   C     C_R   0.212013 0.443642 0.432081 0.542989
C36   C     C_R   0.549874 0.763832 0.429164 0.540839
C37   C     C_R   0.620365 0.981373 0.223330 0.218453
C38   C     C_R   0.971358 0.678898 0.239507 0.257701
C39   C     C_R   0.307406 0.267527 0.241561 0.243997
C40   C     C_R   0.606022 0.972188 0.274767 -0.138520
C41   C     C_R   0.984367 0.672063 0.290358 -0.097998
C42   C     C_R   0.327595 0.307679 0.289879 -0.094034
C43   C     C_R   0.662582 0.915614 0.146931 -0.128040
C44   C     C_R   0.048393 0.773485 0.161296 -0.105987
C45   C     C_R   0.181996 0.200545 0.171621 -0.112301
C46   C     C_R   0.684750 0.840515 0.122487 -0.052667
C47   C     C_R   0.138100 0.853567 0.133923 -0.005513
C48   C     C_R   0.082873 0.180676 0.149413 -0.031967
C49   C     C_R   0.613117 0.715187 0.352419 -0.099315
C50   C     C_R   0.271321 0.910882 0.360064 -0.095629
C51   C     C_R   0.075523 0.314034 0.374211 -0.103343
C52   C     C_R   0.626514 0.720478 0.301164 0.030518
C53   C     C_R   0.257960 0.923690 0.310268 0.034338
C54   C     C_R   0.050412 0.268484 0.327378 0.028697
C55   C     C_R   0.624197 0.807427 0.275180 0.030685
C56   C     C_R   0.164142 0.839674 0.286494 0.029935
C57   C     C_R   0.136139 0.267856 0.298705 0.030740
C58   C     C_R   0.633551 0.636675 0.274770 0.002674
C59   C     C_R   0.340813 0.012818 0.282672 0.021097
C60   C     C_R   0.943265 0.227322 0.307675 0.018685
C61   C     C_R   0.632507 0.638336 0.223531 -0.113286
C62   C     C_R   0.337462 0.007256 0.231589 -0.134443
C63   C     C_R   0.925215 0.192217 0.259252 -0.132179
C64   C     C_R   0.638753 0.728232 0.197249 0.011517
C65   C     C_R   0.247408 0.921331 0.207323 -0.027452
C66   C     C_R   0.011907 0.199572 0.229197 -0.009062
C67   C     C_3   0.558387 0.845490 0.737430 0.155640
C68   C     C_3   0.133055 0.725839 0.738414 0.143317
C69   C     C_3   0.272654 0.403297 0.737242 0.108207
C70   C     C_R   0.634058 0.813273 0.223381 -0.005097
C71   C     C_R   0.156203 0.841929 0.235234 -0.001110
C72   C     C_R   0.116039 0.230749 0.249923 0.003960
C73   C     C_R   0.654078 0.737837 0.145658 0.017173
C74   C     C_R   0.243135 0.915525 0.155780 -0.001815
C75   C     C_R   0.998625 0.183914 0.178246 -0.010966
C76   C     C_R   0.594605 0.791787 0.378204 -0.018387
C77   C     C_R   0.196190 0.815180 0.385703 -0.016941
C78   C     C_R   0.184846 0.369113 0.390389 -0.015439
C79   C     C_3   0.764439 0.931454 0.722307 0.043465
C80   C     C_3   0.052595 0.846445 0.714368 0.059476
C81   C     C_3   0.140172 0.207448 0.713649 0.062116
C82   C     C_3   0.785700 0.941700 0.778461 -0.243040
C83   C     C_3   0.037273 0.865564 0.769286 -0.231939
C84   C     C_3   0.114402 0.171140 0.768195 -0.228014
C85   C     C_1   0.735023 0.874035 0.902632 0.028291
C86   C     C_1   0.102436 0.902757 0.894441 0.028464
C87   C     C_1   0.097545 0.200178 0.894422 0.019980
C88   C     C_3   0.650253 0.828262 0.711724 0.091534
C89   C     C_3   0.155546 0.830538 0.708039 0.099553
C90   C     C_3   0.163719 0.328116 0.708356 0.086163
C91   C     C_3   0.576771 0.858534 0.794766 0.283726
C92   C     C_3   0.116926 0.742021 0.794763 0.285390
C93   C     C_3   0.259931 0.366630 0.793088 0.235128
C94   C     C_3   0.683627 0.851781 0.807363 -0.011198
C95   C     C_3   0.125455 0.857750 0.801412 -0.015499
C96   C     C_3   0.138057 0.270182 0.801607 -0.008124
Cr1   Cr    Cr6+3 0.164410 0.584450 0.499910 1.053440
Cr2   Cr    Cr6+3 0.415550 0.579960 0.499910 1.052225
Cr3   Cr    Cr6+3 0.420040 0.835590 0.499910 1.043405
Cr4   Cr    Cr6+3 0.155170 0.075460 0.019960 1.098052
Cr5   Cr    Cr6+3 0.924540 0.079710 0.019960 1.076242
Cr6   Cr    Cr6+3 0.920290 0.844830 0.019960 1.080752
H1    H     H_    0.740614 0.730541 0.800311 0.070521
H2    H     H_    0.251968 0.031189 0.789317 0.061519
H3    H     H_    0.969129 0.246984 0.796881 0.080760
H4    H     H_    0.672144 0.986872 0.126852 0.180240
H5    H     H_    0.969513 0.723240 0.143540 0.211961
H6    H     H_    0.245709 0.197192 0.149548 0.190576
H7    H     H_    0.579637 0.938162 0.371493 0.135032
H8    H     H_    0.037571 0.666080 0.383573 0.152637
H9    H     H_    0.352555 0.402590 0.376790 0.143687
H10   H     H_    0.592084 0.031646 0.294479 0.088065
H11   H     H_    0.919939 0.604770 0.311579 0.161970
H12   H     H_    0.409612 0.339451 0.305185 0.125316
H13   H     H_    0.633075 0.570608 0.204810 0.182768
H14   H     H_    0.402395 0.075319 0.211241 0.129215
H15   H     H_    0.843237 0.164019 0.244664 0.119129
H16   H     H_    0.564433 0.922564 0.721899 0.045717
H17   H     H_    0.055284 0.654723 0.724202 0.041529
H18   H     H_    0.339780 0.392513 0.719884 0.108714
H19   H     H_    0.606988 0.645581 0.372371 0.197499
H20   H     H_    0.347365 0.968967 0.377610 0.193803
H21   H     H_    0.011814 0.313173 0.397588 0.190945
H22   H     H_    0.763569 0.007075 0.709397 0.106550
H23   H     H_    0.976600 0.770262 0.702435 0.104399
H24   H     H_    0.215325 0.202637 0.702179 0.100848
H25   H     H_    0.806672 0.025559 0.790807 0.077207
H26   H     H_    0.951909 0.805160 0.781795 0.078907
H27   H     H_    0.164417 0.133136 0.779811 0.078334
H28   H     H_    0.859334 0.932740 0.786830 0.162599
H29   H     H_    0.044176 0.947377 0.774014 0.179719
H30   H     H_    0.025806 0.107117 0.772600 0.180107
H31   H     H_    0.720123 0.718241 0.717372 0.136711
H32   H     H_    0.270205 0.008115 0.707919 0.139126
H33   H     H_    0.985470 0.268828 0.713788 0.165728
H34   H     H_    0.594846 0.670550 0.810345 0.211483
H35   H     H_    0.307586 0.945065 0.805761 0.230216
H36   H     H_    0.073651 0.385821 0.808101 0.216906
O1    O     O_R   0.137150 0.468200 0.553200 -0.502074
O2    O     O_R   0.531800 0.668950 0.553200 -0.491028
O3    O     O_R   0.331050 0.862850 0.553200 -0.496553
O4    O     O_R   0.179100 0.982980 0.967000 -0.458164
O5    O     O_R   0.017020 0.196120 0.967000 -0.453232
O6    O     O_R   0.803880 0.820900 0.967000 -0.512077
O7    O     O_R   0.173970 0.688730 0.549930 -0.499703
O8    O     O_R   0.311270 0.485240 0.549930 -0.495602
O9    O     O_R   0.514760 0.826030 0.549930 -0.499703
O10   O     O_R   0.140110 0.470540 0.446010 -0.505366
O11   O     O_R   0.529460 0.669570 0.446010 -0.516096
O12   O     O_R   0.330430 0.859890 0.446010 -0.519676
O13   O     O_R   0.176710 0.690910 0.450560 -0.494963
O14   O     O_R   0.309090 0.485800 0.450560 -0.504523
O15   O     O_R   0.514200 0.823290 0.450560 -0.497649
O16   O     O_3   0.333333 0.666667 0.499990 -0.275157
O17   O     O_R   0.176750 0.985260 0.074180 -0.488038
O18   O     O_R   0.014740 0.191490 0.074180 -0.421599
O19   O     O_R   0.808510 0.823250 0.074180 -0.479678
O20   O     O_R   0.146100 0.172630 0.068980 -0.476898
O21   O     O_R   0.827370 0.973470 0.068980 -0.517559
O22   O     O_R   0.026530 0.853900 0.068980 -0.490410
O23   O     O_3   0.000000 0.000000 0.020040 -0.322725
O24   O     O_R   0.148270 0.170520 0.969620 -0.469983
O25   O     O_R   0.829480 0.977750 0.969620 -0.526360
O26   O     O_R   0.022250 0.851730 0.969620 -0.458512
C97   C     C_2   0.589901 0.968860 0.811023 0.235498
H37   H     H_    0.647481 0.044048 0.791762 0.052691
O27   O     O_2   0.536203 0.974652 0.845559 -0.447174
C98   C     C_2   0.004010 0.650804 0.812762 0.227570
H38   H     H_    0.929997 0.629871 0.791801 0.053234
O28   O     O_2   0.994796 0.599970 0.850713 -0.445557
C99   C     C_2   0.342919 0.328078 0.805041 0.238068
H39   H     H_    0.351590 0.270832 0.780976 0.046081
O29   O     O_2   0.400720 0.360658 0.841529 -0.449905
O30   O     O_3   0.452291 0.757192 0.726992 -0.540465
H40   H     H_    0.430222 0.772410 0.694562 0.359313
O31   O     O_3   0.220283 0.702603 0.731651 -0.602033
H41   H     H_    0.206529 0.661122 0.700539 0.355413
O32   O     O_3   0.306459 0.515812 0.730996 -0.583993
H42   H     H_    0.256086 0.532857 0.750309 0.416608
O33   O     O_3   0.485886 0.772266 0.820191 -0.601496
H43   H     H_    0.418851 0.778804 0.813801 0.412543
O34   O     O_3   0.201266 0.739823 0.822855 -0.598741
H44   H     H_    0.193213 0.665189 0.820327 0.386011
O35   O     O_3   0.278265 0.454281 0.824591 -0.637786
H45   H     H_    0.356094 0.514213 0.819701 0.391638
O36   O     O_3   0.618995 0.066305 0.197708 -0.726549
H46   H     H_    0.609933 0.115447 0.221232 0.317457
O37   O     O_3   0.876266 0.602665 0.216088 -0.666054
H47   H     H_    0.824894 0.548423 0.240580 0.337766
O38   O     O_3   0.390694 0.267845 0.213131 -0.721007
H48   H     H_    0.459238 0.296656 0.232780 0.316147
C100  C     C_2   0.641211 0.644185 0.114914 0.263831
H49   H     H_    0.590327 0.622941 0.082341 0.121211
O39   O     O_2   0.693860 0.596974 0.123069 -0.465351
C101  C     C_2   0.346611 0.969270 0.124857 0.268679
H50   H     H_    0.425231 0.030772 0.139428 0.143281
O40   O     O_2   0.346491 0.940275 0.082564 -0.449610
C102  C     C_2   0.901468 0.183060 0.155602 0.271062
H51   H     H_    0.820052 0.115752 0.163033 0.114448
O41   O     O_2   0.911996 0.262732 0.132421 -0.417817
C103  C     C_2   0.643429 0.545545 0.298140 0.193077
H52   H     H_    0.608266 0.466217 0.280176 0.100727
O42   O     O_2   0.697544 0.559797 0.335253 -0.513261
C104  C     C_2   0.431998 0.113900 0.304813 0.198137
H53   H     H_    0.509009 0.162060 0.284501 0.095884
O43   O     O_2   0.420016 0.148623 0.344172 -0.511575
C105  C     C_2   0.848747 0.225845 0.334375 0.212513
H54   H     H_    0.766973 0.154180 0.331965 0.101412
O44   O     O_2   0.859362 0.306665 0.356249 -0.495601
O45   O     O_3   0.850619 0.923970 0.698232 -0.656024
H55   H     H_    0.853172 0.948611 0.663781 0.346841
O46   O     O_3   0.065313 0.936802 0.686337 -0.660293
H56   H     H_    0.038596 0.909491 0.652786 0.332502
O47   O     O_3   0.049701 0.135889 0.684667 -0.662100
H57   H     H_    0.079242 0.136080 0.651303 0.333729
O48   O     O_3   0.550263 0.628767 0.723517 -0.610613
H58   H     H_    0.562048 0.565694 0.731183 0.309242
O49   O     O_3   0.355327 0.924925 0.721511 -0.658889
H59   H     H_    0.419764 0.999277 0.726974 0.304994
O50   O     O_3   0.069894 0.436360 0.721586 -0.720849
H60   H     H_    0.996861 0.428710 0.730726 0.319254

loop_
_geom_bond_atom_site_label_1
_geom_bond_atom_site_label_2
_ccdc_geom_bond_type
C79   O45   S    
C99   H39   S    
Cr2   O16   S    
C10   C85   T    
C3    O9    A    
O38   H48   S    
C82   C94   S    
C81   H24   S    
C2    C18   S    
C51   H21   S    
C103  H52   S    
C15   C18   T    
C1    O7    A    
C50   H20   S    
C83   H26   S    
C27   C78   A    
C6    C9    S    
O32   H42   S    
C34   O12   A    
C40   H10   S    
Cr2   O14   S    
C55   C70   A    
C25   C28   A    
C62   H14   S    
C99   O29   D    
C67   C88   S    
C97   H37   S    
C31   C43   A    
C60   C63   A    
C2    O1    A    
C7    H31   S    
C37   C40   A    
C69   C93   S    
C4    C7    S    
C68   H17   S    
C22   O24   A    
C93   O35   S    
C38   O37   S    
C36   O11   A    
C45   C48   A    
C80   H23   S    
C28   C40   A    
C67   O30   S    
C4    H1    S    
C84   H27   S    
C33   C45   A    
O35   H45   S    
C83   C95   S    
C45   H6    S    
C48   C75   A    
C84   C96   S    
C80   C89   S    
O34   H44   S    
C79   C88   S    
C36   C76   S    
C33   C72   A    
C68   C92   S    
O30   H40   S    
C59   C104  S    
C42   H12   S    
C31   C70   A    
C66   C72   A    
C7    C88   S    
C58   C103  S    
C24   O4    A    
C20   O21   A    
C22   O5    A    
C61   H13   S    
C64   C73   A    
Cr4   O23   S    
C32   C38   A    
C82   H28   S    
C26   H8    S    
C7    O48   S    
C12   C87   T    
C44   C47   A    
C25   H7    S    
C4    H34   S    
C6    C96   S    
C56   C71   A    
C58   C61   A    
C98   O28   D    
C63   C66   A    
C27   H9    S    
C97   O27   D    
C21   C47   S    
C27   C30   A    
C19   O18   A    
C103  O42   D    
C14   C17   T    
C24   O26   A    
Cr6   O6    S    
C80   C83   S    
Cr2   O11   S    
Cr6   O19   S    
O50   H60   S    
C5    C95   S    
C28   C55   A    
C91   C97   S    
C36   O15   A    
C43   C46   A    
C39   C42   A    
C23   O25   A    
C53   C59   A    
Cr3   O12   S    
C50   C53   A    
C8    H32   S    
C105  H54   S    
C26   C77   A    
C32   C71   A    
Cr5   O25   S    
C1    O3    A    
O48   H58   S    
C38   C41   A    
Cr6   O22   S    
C39   O38   S    
O47   H57   S    
C54   C60   A    
Cr3   O16   S    
Cr2   O8    S    
Cr5   O18   S    
C22   C87   S    
C84   H30   S    
C92   C95   S    
C65   C74   A    
C31   C37   A    
Cr2   O2    S    
C30   C57   A    
C43   H4    S    
C100  O39   D    
C6    H36   S    
C61   C64   A    
C14   C89   S    
C83   H29   S    
C69   O32   S    
C5    C8    S    
C92   C98   S    
C81   O47   S    
Cr1   O13   S    
C49   C52   A    
C49   H19   S    
C91   O33   S    
C44   H5    S    
C67   C91   S    
C68   C89   S    
C21   O17   A    
C49   C76   A    
C60   C105  S    
C33   C39   A    
Cr1   O16   S    
C104  H53   S    
Cr5   O21   S    
C102  H51   S    
C52   C58   A    
C4    C94   S    
C81   C90   S    
C9    H33   S    
Cr4   O17   S    
C98   H38   S    
C104  O43   D    
C93   C96   S    
C64   C70   A    
C20   O19   A    
Cr1   O10   S    
C23   O6    A    
C35   O14   A    
C69   C90   S    
C50   C77   A    
C81   C84   S    
O33   H43   S    
C9    O50   S    
C75   C102  S    
C11   C95   S    
C92   O34   S    
Cr3   O9    S    
C74   C101  S    
O31   H41   S    
C59   C62   A    
C35   C78   S    
C62   C65   A    
C29   C41   A    
C19   C48   S    
C19   O20   A    
Cr1   O7    S    
Cr3   O3    S    
C12   C96   S    
C47   C74   A    
C41   H11   S    
C9    C90   S    
C79   C82   S    
C102  O41   D    
C34   O13   A    
C52   C55   A    
C37   O36   S    
C5    H35   S    
C8    C89   S    
C29   C56   A    
C2    O8    A    
C79   H22   S    
C69   H18   S    
C1    C17   S    
C80   O46   S    
C25   C76   A    
C100  H49   S    
C51   C54   A    
Cr5   O23   S    
C51   C78   A    
C34   C77   S    
Cr4   O4    S    
C91   C94   S    
Cr5   O5    S    
O49   H59   S    
C68   O31   S    
Cr6   O23   S    
C63   H15   S    
C66   C75   A    
Cr3   O15   S    
C13   C88   S    
C21   O22   A    
C6    H3    S    
C30   C42   A    
C35   O10   A    
C57   C72   A    
C67   H16   S    
C53   C56   A    
C82   H25   S    
C5    H2    S    
C73   C100  S    
C8    O49   S    
C101  H50   S    
Cr4   O20   S    
C65   C71   A    
O46   H56   S    
C32   C44   A    
C26   C29   A    
Cr6   O26   S    
O45   H55   S    
C23   C85   S    
C13   C16   T    
C105  O44   D    
C10   C94   S    
O37   H47   S    
Cr4   O24   S    
C3    O2    A    
C11   C86   T    
C101  O40   D    
O36   H46   S    
C24   C86   S    
Cr1   O1    S    
C46   C73   A    
C20   C46   S    
C3    C16   S    
C15   C90   S    
C54   C57   A    
C93   C99   S    
