data_mof_unit_22543.cif
_audit_creation_date              2012-12-10T18:43:41-0500
_audit_creation_method            fapswitch 2.2
_symmetry_space_group_name_H-M    P1
_symmetry_Int_Tables_number       1
_space_group_crystal_system       triclinic
_cell_length_a                    10.830933
_cell_length_b                    10.719432
_cell_length_c                    9.842789
_cell_angle_alpha                 89.469713
_cell_angle_beta                  104.012974
_cell_angle_gamma                 90.072943
_cell_volume                      1108.70648664

loop_
_atom_site_label
_atom_site_type_symbol
_atom_type_description
_atom_site_fract_x
_atom_site_fract_y
_atom_site_fract_z
_atom_type_partial_charge
C1    C     C_R   0.505752 0.259832 0.502624 0.915243
C2    C     C_R   0.506392 0.740011 0.501221 0.914504
C3    C     C_R   0.259097 0.497071 0.441698 0.958091
C4    C     C_R   0.740895 0.497057 0.558316 0.910996
C5    C     C_R   0.601593 0.545470 0.098319 -0.052971
C6    C     C_R   0.399303 0.452472 0.901876 -0.048145
C7    C     C_R   0.601252 0.546223 0.954481 -0.101098
C8    C     C_R   0.399137 0.452918 0.045617 -0.071172
C9    C     C_2   0.122826 0.485564 0.408506 -0.378802
C10   C     C_2   0.877112 0.485239 0.591466 -0.381729
C11   C     C_2   0.067598 0.464071 0.513249 -0.144977
C12   C     C_2   0.932181 0.464577 0.486782 -0.158504
C13   C     C_R   0.543816 0.066486 0.393437 -0.338728
C14   C     C_R   0.511297 0.933286 0.627001 -0.338309
C15   C     C_R   0.553510 0.938581 0.394613 0.519591
C16   C     C_R   0.520018 0.060677 0.633858 0.503536
C17   C     C_R   0.523292 0.872079 0.506204 -0.237558
C18   C     C_R   0.522415 0.127570 0.510384 -0.238469
H1    H     H_    0.877666 0.455668 0.378802 0.181815
H2    H     H_    0.122035 0.453890 0.621255 0.180636
H3    H     H_    0.683527 0.580416 0.173784 0.110234
H4    H     H_    0.318926 0.413881 0.826787 0.129164
H5    H     H_    0.932055 0.494453 0.699111 0.147985
H6    H     H_    0.067951 0.495955 0.300761 0.143815
H7    H     H_    0.682242 0.583335 0.921317 0.127965
H8    H     H_    0.318523 0.415073 0.078922 0.129658
H9    H     H_    0.556552 0.117502 0.302205 0.200251
H10   H     H_    0.496417 0.882943 0.717719 0.207070
N1    N     N_R   0.499970 0.499970 0.857200 -0.083362
N2    N     N_R   0.500030 0.500030 0.142800 -0.076768
O1    O     O_R   0.499990 0.316750 0.614620 -0.588342
O2    O     O_R   0.500010 0.683250 0.385380 -0.573748
O3    O     O_R   0.499990 0.316780 0.385290 -0.626211
O4    O     O_R   0.500010 0.683220 0.614710 -0.624979
O5    O     O_R   0.317810 0.500000 0.571850 -0.620154
O6    O     O_R   0.682190 0.500000 0.428150 -0.635249
O7    O     O_R   0.317810 0.500030 0.342520 -0.621511
O8    O     O_R   0.682190 0.499970 0.657480 -0.635990
Zn1   Zn    Zn3+2 0.500000 0.499980 0.653120 0.945237
Zn2   Zn    Zn3+2 0.500000 0.500020 0.346880 0.953932
O9    O     O_3   0.587935 0.881578 0.283596 -0.627829
C19   C     C_3   0.716572 0.841759 0.325728 0.115427
H11   H     H_    0.735344 0.784230 0.239863 0.160880
H12   H     H_    0.734347 0.780822 0.420768 0.123101
C20   C     C_3   0.810678 0.951522 0.348944 -0.423428
H13   H     H_    0.785774 0.016770 0.258306 0.244216
H14   H     H_    0.804791 0.003053 0.444611 0.215848
C21   C     C_3   0.947275 0.906107 0.367143 -0.924488
H15   H     H_    0.974382 0.842531 0.459357 0.269372
H16   H     H_    0.012895 0.987234 0.383780 0.272468
H17   H     H_    0.957502 0.855907 0.272245 0.257789
O10   O     O_3   0.516891 0.117339 0.758959 -0.624749
C22   C     C_3   0.642043 0.152294 0.830280 0.146567
H18   H     H_    0.633866 0.230144 0.901394 0.170775
H19   H     H_    0.699293 0.188945 0.758343 0.117750
C23   C     C_3   0.712624 0.044069 0.918911 -0.406804
H20   H     H_    0.658225 0.012523 0.995261 0.249481
H21   H     H_    0.721475 0.964447 0.850523 0.220226
C24   C     C_3   0.846076 0.083597 0.997410 -0.966662
H22   H     H_    0.901681 0.115588 0.922476 0.268020
H23   H     H_    0.896319 0.003001 0.057851 0.277394
H24   H     H_    0.840846 0.160264 0.071005 0.261702

loop_
_geom_bond_atom_site_label_1
_geom_bond_atom_site_label_2
_ccdc_geom_bond_type
C6    N1    A    
C1    O1    A    
O5    Zn1   S    
C11   C12   S    
C4    O6    A    
C9    H6    S    
C15   C17   A    
C3    C9    S    
C10   H5    S    
C8    H8    S    
O9    C19   S    
C22   H19   S    
C7    H7    S    
C23   C24   S    
C3    O5    A    
C8    N2    A    
N1    Zn1   S    
C21   H16   S    
C1    O3    A    
C24   H22   S    
C22   H18   S    
C23   H20   S    
C2    C17   S    
C9    C11   D    
C14   C17   A    
C2    O4    A    
C1    C18   S    
C19   H12   S    
C13   C18   A    
O1    Zn1   S    
C7    N1    A    
C10   C12   D    
C12   H1    S    
C16   C18   A    
C21   H15   S    
C23   H21   S    
O7    Zn2   S    
C20   H14   S    
C13   C15   A    
O8    Zn1   S    
C14   C16   A    
C11   H2    S    
C24   H23   S    
O3    Zn2   S    
C22   C23   S    
C19   H11   S    
N2    Zn2   S    
O4    Zn1   S    
C6    H4    S    
O6    Zn2   S    
O2    Zn2   S    
C5    H3    S    
O10   C22   S    
C15   O9    S    
C2    O2    A    
C5    N2    A    
C20   C21   S    
C5    C7    A    
C13   H9    S    
C24   H24   S    
C6    C8    A    
C14   H10   S    
C20   H13   S    
C4    C10   S    
C21   H17   S    
C16   O10   S    
C3    O7    A    
C4    O8    A    
C19   C20   S    
