data_mof_unit_22606.cif
_audit_creation_date              2012-12-11T15:54:41-0500
_audit_creation_method            fapswitch 2.2
_symmetry_space_group_name_H-M    P1
_symmetry_Int_Tables_number       1
_space_group_crystal_system       triclinic
_cell_length_a                    6.948266
_cell_length_b                    14.521706
_cell_length_c                    16.140151
_cell_angle_alpha                 90.164243
_cell_angle_beta                  90.157132
_cell_angle_gamma                 90.261118
_cell_volume                      1628.52236154

loop_
_atom_site_label
_atom_site_type_symbol
_atom_type_description
_atom_site_fract_x
_atom_site_fract_y
_atom_site_fract_z
_atom_type_partial_charge
O1    O     O_R   0.638180 0.333920 0.163320 -0.517217
O2    O     O_R   0.361820 0.666080 0.836680 -0.526069
O3    O     O_R   0.308470 0.344960 0.336080 -0.549965
O4    O     O_R   0.691530 0.655040 0.663920 -0.552204
O5    O     O_R   0.138140 0.166110 0.336680 -0.544047
O6    O     O_R   0.861860 0.833890 0.663320 -0.541697
C1    C     C_R   0.477761 0.367061 0.365054 0.663122
C2    C     C_R   0.522228 0.632879 0.634997 0.670350
O7    O     O_R   0.308460 0.344950 0.163930 -0.523385
O8    O     O_R   0.691540 0.655050 0.836070 -0.541746
O9    O     O_R   0.138140 0.166100 0.163310 -0.527310
O10   O     O_R   0.861860 0.833900 0.836690 -0.524516
C3    C     C_R   0.478657 0.365781 0.134207 0.737901
C4    C     C_R   0.520895 0.629972 0.862729 0.741205
O11   O     O_R   0.638180 0.333930 0.336700 -0.550632
O12   O     O_R   0.361820 0.666070 0.663300 -0.546231
O13   O     O_3   0.471670 0.191340 0.250000 -0.360575
O14   O     O_3   0.528330 0.808660 0.750000 -0.356722
V1    V     V_3+5 0.196830 0.260900 0.250000 1.496059
V2    V     V_3+5 0.803170 0.739100 0.750000 1.461072
O15   O     O_R   0.808420 0.155070 0.163920 -0.516768
O16   O     O_R   0.191580 0.844930 0.836080 -0.523022
C5    C     C_R   0.975499 0.134332 0.133830 0.725210
C6    C     C_R   0.024079 0.865879 0.865849 0.727262
O17   O     O_R   0.808420 0.155080 0.336070 -0.544350
O18   O     O_R   0.191580 0.844920 0.663930 -0.542529
C7    C     C_R   0.977195 0.133144 0.364702 0.669575
C8    C     C_R   0.022803 0.866886 0.635324 0.676808
V3    V     V_3+5 0.696830 0.239130 0.250000 1.517262
V4    V     V_3+5 0.303170 0.760870 0.750000 1.501365
O19   O     O_3   0.971850 0.308690 0.250010 -0.355535
O20   O     O_3   0.028150 0.691310 0.749990 -0.384827
H1    H     H_    0.280193 0.847730 0.267660 0.146068
H2    H     H_    0.720470 0.152446 0.732468 0.154702
C9    C     C_R   0.830755 0.174383 0.528858 -0.146109
C10   C     C_R   0.169472 0.825707 0.471215 -0.144659
C11   C     C_R   0.760824 0.197027 0.607088 -0.118569
C12   C     C_R   0.239625 0.803106 0.393016 -0.121750
C13   C     C_R   0.773618 0.134213 0.671619 -0.105100
C14   C     C_R   0.226863 0.865925 0.328488 -0.108260
C15   C     C_R   0.856285 0.048201 0.658431 -0.132394
C16   C     C_R   0.143989 0.951894 0.341648 -0.130741
C17   C     C_R   0.926745 0.022635 0.579439 0.068270
C18   C     C_R   0.073364 0.977431 0.420618 0.068136
C19   C     C_R   0.913838 0.087208 0.513153 0.068874
C20   C     C_R   0.086260 0.912857 0.486903 0.068626
C21   C     C_R   0.012804 0.935280 0.566450 -0.179374
C22   C     C_R   0.987217 0.064767 0.433593 -0.177751
H3    H     H_    0.820110 0.226417 0.481291 0.105593
H4    H     H_    0.180095 0.773663 0.518774 0.106016
H5    H     H_    0.697646 0.264023 0.617803 0.128085
H6    H     H_    0.302952 0.736139 0.382321 0.124734
H7    H     H_    0.865797 0.002617 0.711147 0.104445
H8    H     H_    0.134493 0.997472 0.288929 0.104039
C23   C     C_R   0.157372 0.939679 0.998084 0.015077
C24   C     C_R   0.838671 0.059454 0.001752 0.006766
C25   C     C_R   0.137668 0.004414 0.062201 -0.162233
C26   C     C_R   0.860501 0.995424 0.937178 -0.151236
H9    H     H_    0.245474 0.006686 0.110916 0.151314
H10   H     H_    0.752653 0.992451 0.888495 0.159178
C27   C     C_R   0.981311 0.065346 0.065214 -0.151782
C28   C     C_R   0.016766 0.934746 0.934294 -0.139547
C29   C     C_R   0.321930 0.477855 0.464494 -0.153695
C30   C     C_R   0.678025 0.521952 0.535679 -0.153445
H11   H     H_    0.182222 0.462075 0.438018 0.117445
H12   H     H_    0.817728 0.537723 0.562168 0.118723
C31   C     C_R   0.332759 0.541621 0.529605 -0.154115
C32   C     C_R   0.667195 0.458186 0.470567 -0.157837
H13   H     H_    0.201018 0.573175 0.551087 0.115819
H14   H     H_    0.798932 0.426621 0.449096 0.114937
C33   C     C_R   0.510947 0.564525 0.566153 -0.038977
C34   C     C_R   0.489021 0.435324 0.433982 -0.039644
C35   C     C_R   0.334314 0.487095 0.044942 -0.199408
C36   C     C_R   0.658551 0.499797 0.945484 -0.135097
H15   H     H_    0.204292 0.481404 0.081161 0.184716
H16   H     H_    0.777222 0.499296 0.903942 0.148483
C37   C     C_R   0.333896 0.543877 0.974973 0.008618
C38   C     C_R   0.657259 0.436873 0.010918 0.018236
C39   C     C_R   0.504624 0.558159 0.929277 -0.138814
C40   C     C_R   0.493980 0.432154 0.064182 -0.153983
C41   C     C_2   0.147608 0.565631 0.937749 0.765618
O21   O     O_2   0.030456 0.613251 0.974245 -0.561979
O22   O     O_R   0.110378 0.530435 0.858484 -0.661294
H17   H     H_    0.992978 0.557221 0.831231 0.301196
C42   C     C_2   0.826481 0.375340 0.016078 0.733509
O23   O     O_2   0.927220 0.374420 0.078096 -0.553325
O24   O     O_R   0.880502 0.324357 0.946419 -0.650317
H18   H     H_    0.000880 0.286690 0.956361 0.292762
C43   C     C_2   0.321497 0.875636 0.003176 0.753832
O25   O     O_2   0.451418 0.879834 0.952425 -0.552993
O26   O     O_R   0.331541 0.813222 0.068753 -0.665054
H19   H     H_    0.450839 0.773367 0.066200 0.297227
C44   C     C_2   0.666594 0.119222 0.997422 0.748931
O27   O     O_2   0.551951 0.121633 0.054622 -0.556167
O28   O     O_R   0.626920 0.166667 0.924149 -0.658852
H20   H     H_    0.503640 0.203578 0.927523 0.296681

loop_
_geom_bond_atom_site_label_1
_geom_bond_atom_site_label_2
_ccdc_geom_bond_type
C7    C22   S    
C26   C28   A    
C12   C14   A    
O24   H18   S    
C29   H11   S    
C8    C21   S    
C44   O27   D    
O13   V3    S    
O28   H20   S    
O4    C2    A    
V1    O19   S    
C41   O21   D    
C13   C15   A    
C42   O23   D    
O9    V1    S    
C36   H16   S    
C30   C32   A    
C9    C11   A    
O3    C1    A    
C11   H5    S    
C38   C40   A    
C25   H9    S    
C12   H6    S    
O12   V4    S    
C23   C28   A    
C30   C33   A    
O7    C3    A    
O5    C7    A    
O7    V1    S    
O6    C8    A    
O8    V2    S    
C9    H3    S    
O3    V1    S    
O14   V4    S    
C43   O26   S    
C31   C33   A    
C37   C39   A    
C3    C40   S    
C2    O12   A    
V3    O19   S    
C15   C17   A    
C16   C18   A    
C41   O22   S    
C18   C20   A    
O11   V3    S    
C26   H10   S    
C42   O24   S    
O17   V3    S    
C24   C44   S    
C11   C13   A    
C29   C31   A    
H1    C14   S    
H2    C13   S    
O8    C4    A    
O26   H19   S    
C1    O11   A    
O15   V3    S    
C31   H13   S    
C30   H12   S    
O22   H17   S    
C37   C41   S    
C32   C34   A    
O10   V2    S    
O1    V3    S    
C4    C39   S    
C10   C20   A    
C17   C19   A    
C15   H7    S    
C38   C42   S    
O18   V4    S    
C36   C39   A    
O15   C5    A    
O16   C6    A    
O1    C3    A    
C35   H15   S    
C10   C12   A    
C9    C19   A    
C1    C34   S    
C10   H4    S    
V2    O20   S    
C19   C22   A    
C20   C21   A    
C2    C33   S    
C6    C28   S    
O16   V4    S    
C14   C16   A    
C25   C27   A    
O5    V1    S    
O17   C7    A    
O6    V2    S    
O10   C6    A    
O18   C8    A    
O2    V4    S    
C23   C25   A    
C23   C43   S    
C16   H8    S    
V4    O20   S    
C44   O28   S    
O9    C5    A    
O13   V1    S    
C35   C40   A    
C24   C26   A    
O14   V2    S    
O2    C4    A    
O4    V2    S    
C5    C27   S    
C29   C34   A    
C32   H14   S    
C36   C38   A    
C35   C37   A    
C24   C27   A    
C43   O25   D    
C17   C21   A    
C18   C22   A    
