data_mof_unit_23051.cif
_audit_creation_date              2012-12-11T14:01:18-0500
_audit_creation_method            fapswitch 2.2
_symmetry_space_group_name_H-M    P1
_symmetry_Int_Tables_number       1
_space_group_crystal_system       triclinic
_cell_length_a                    19.046026
_cell_length_b                    11.03084
_cell_length_c                    18.845972
_cell_angle_alpha                 90.299221
_cell_angle_beta                  90.757908
_cell_angle_gamma                 90.059104
_cell_volume                      3959.01654531

loop_
_atom_site_label
_atom_site_type_symbol
_atom_type_description
_atom_site_fract_x
_atom_site_fract_y
_atom_site_fract_z
_atom_type_partial_charge
C1    C     C_R   0.269911 0.051900 0.846639 0.572746
C2    C     C_R   0.726847 0.042799 0.148455 0.561551
C3    C     C_R   0.771057 0.549445 0.848858 0.559858
C4    C     C_R   0.226373 0.540255 0.145958 0.564672
C5    C     C_R   0.475462 0.041670 0.076776 -0.086843
C6    C     C_R   0.504508 0.050792 0.932829 -0.084142
C7    C     C_R   0.974479 0.539277 0.075158 -0.084538
C8    C     C_R   0.006295 0.550025 0.931837 -0.087384
C9    C     C_R   0.974209 0.650302 0.040644 -0.136737
C10   C     C_R   0.991168 0.655770 0.969443 -0.142105
C11   C     C_R   0.476316 0.152608 0.042317 -0.135841
C12   C     C_R   0.491253 0.157064 0.970683 -0.124186
C13   C     C_2   0.243749 0.570612 0.914784 -0.124382
C14   C     C_2   0.720196 0.691091 0.066799 -0.144115
C15   C     C_2   0.769126 0.124975 0.928084 -0.114885
C16   C     C_2   0.225593 0.148837 0.069109 -0.129721
C17   C     C_2   0.248180 0.583729 0.076833 0.001126
C18   C     C_2   0.746145 0.621548 0.907773 0.014598
C19   C     C_2   0.744005 0.090314 0.081178 -0.000252
C20   C     C_2   0.248854 0.109510 0.911059 0.021168
C21   C     C_2   0.275816 0.501601 0.031381 -0.173415
C22   C     C_2   0.783307 0.606646 0.968058 -0.148413
C23   C     C_2   0.713570 0.031885 0.025746 -0.133004
C24   C     C_2   0.283667 0.066651 0.968232 -0.137965
C25   C     C_2   0.294149 0.531504 0.958626 -0.188572
C26   C     C_2   0.779805 0.684271 0.030437 -0.168568
C27   C     C_2   0.709984 0.084394 0.955467 -0.167313
C28   C     C_2   0.285196 0.126106 0.036449 -0.179442
C29   C     C_2   0.481928 0.832179 0.570809 -0.122016
C30   C     C_2   0.487895 0.844950 0.414760 -0.111028
C31   C     C_2   0.981930 0.332223 0.570821 -0.122349
C32   C     C_2   0.987909 0.344991 0.414767 -0.110553
C33   C     C_2   0.460981 0.752908 0.450337 -0.174522
C34   C     C_2   0.442799 0.765385 0.525061 -0.169076
C35   C     C_2   0.960956 0.252988 0.450343 -0.174335
C36   C     C_2   0.942766 0.265501 0.525066 -0.168921
C37   C     C_2   0.231698 0.544079 0.598526 -0.124315
C38   C     C_2   0.766351 0.544957 0.402834 -0.111870
C39   C     C_2   0.731751 0.044271 0.598421 -0.120691
C40   C     C_2   0.266294 0.045058 0.402908 -0.112314
C41   C     C_2   0.227714 0.509957 0.435977 0.009312
C42   C     C_2   0.770516 0.530418 0.565372 0.008724
C43   C     C_2   0.727768 0.010077 0.435933 0.009376
C44   C     C_2   0.270480 0.030679 0.565427 0.010453
C45   C     C_R   0.471729 0.821367 0.853836 0.530907
C46   C     C_R   0.528202 0.820313 0.146842 0.518430
C47   C     C_R   0.972318 0.321286 0.853361 0.521764
C48   C     C_R   0.028595 0.319950 0.146431 0.526372
C49   C     C_2   0.173634 0.536624 0.478902 -0.173544
C50   C     C_2   0.825179 0.534906 0.520394 -0.162608
C51   C     C_2   0.673694 0.036810 0.478843 -0.173626
C52   C     C_2   0.325132 0.035027 0.520434 -0.162111
C53   C     C_2   0.181975 0.581163 0.552026 -0.161674
C54   C     C_2   0.819048 0.577659 0.447047 -0.164686
C55   C     C_2   0.682056 0.081437 0.551925 -0.163015
C56   C     C_2   0.319010 0.077748 0.447092 -0.165139
C57   C     C_R   0.260342 0.634992 0.850183 0.546287
C58   C     C_R   0.722570 0.697026 0.143900 0.584984
C59   C     C_R   0.772921 0.177059 0.858959 0.562158
C60   C     C_R   0.224589 0.186422 0.141909 0.572365
C61   C     C_R   0.287802 0.003926 0.639339 0.578459
C62   C     C_R   0.710637 0.998024 0.359988 0.592667
C63   C     C_R   0.787831 0.503830 0.639332 0.581891
C64   C     C_R   0.210625 0.498001 0.359995 0.592966
C65   C     C_R   0.466347 0.823482 0.645635 0.544658
C66   C     C_R   0.528383 0.825277 0.350900 0.544180
C67   C     C_R   0.966370 0.323492 0.645648 0.544673
C68   C     C_R   0.028386 0.325282 0.350903 0.545804
C69   C     C_R   0.256379 0.627323 0.653160 0.543105
C70   C     C_R   0.743118 0.628161 0.347720 0.559365
C71   C     C_R   0.756406 0.127410 0.653102 0.554126
C72   C     C_R   0.243096 0.128214 0.347763 0.559979
C73   C     C_R   0.495206 0.821680 0.075600 -0.020561
C74   C     C_R   0.502519 0.825493 0.926927 -0.036572
C75   C     C_R   0.997696 0.320081 0.074082 -0.022428
C76   C     C_R   0.005120 0.325051 0.925559 -0.038555
C77   C     C_R   0.490278 0.932920 0.039826 0.003750
C78   C     C_R   0.499537 0.936101 0.965793 0.001180
C79   C     C_R   0.991676 0.431324 0.038470 0.002650
C80   C     C_R   0.001723 0.435182 0.964645 0.005445
C81   C     C_R   0.509622 0.712402 0.963909 -0.021676
C82   C     C_R   0.492571 0.710347 0.036632 0.003716
C83   C     C_R   0.014040 0.211603 0.961997 -0.025971
C84   C     C_R   0.997031 0.208532 0.034638 0.002807
Cr1   Cr    Cr6+3 0.230530 0.836340 0.748870 0.970882
Cr2   Cr    Cr6+3 0.769470 0.836340 0.251130 0.960053
Cr3   Cr    Cr6+3 0.730530 0.336340 0.748870 0.969812
Cr4   Cr    Cr6+3 0.269470 0.336340 0.251130 0.956704
Cr5   Cr    Cr6+3 0.387420 0.989430 0.750820 0.995607
Cr6   Cr    Cr6+3 0.612580 0.989430 0.249180 0.990185
Cr7   Cr    Cr6+3 0.887420 0.489430 0.750820 0.991422
Cr8   Cr    Cr6+3 0.112580 0.489430 0.249180 0.992998
Cr9   Cr    Cr6+3 0.385640 0.677860 0.749230 0.985369
Cr10  Cr    Cr6+3 0.614360 0.677860 0.250770 0.985106
Cr11  Cr    Cr6+3 0.885640 0.177860 0.749230 0.975601
Cr12  Cr    Cr6+3 0.114360 0.177860 0.250770 0.979300
H1    H     H_    0.121827 0.551178 0.455486 0.127672
H2    H     H_    0.878394 0.526582 0.541382 0.135872
H3    H     H_    0.621878 0.051335 0.455439 0.128180
H4    H     H_    0.378349 0.026527 0.541395 0.136313
H5    H     H_    0.151351 0.662016 0.562999 0.156408
H6    H     H_    0.853760 0.652115 0.433891 0.147711
H7    H     H_    0.651465 0.162336 0.562882 0.156013
H8    H     H_    0.353757 0.152136 0.433902 0.147694
H9    H     H_    0.258196 0.458185 0.594216 0.090404
H10   H     H_    0.735589 0.464155 0.411534 0.102304
H11   H     H_    0.758230 0.958370 0.594084 0.091909
H12   H     H_    0.235494 0.964313 0.411658 0.101925
H13   H     H_    0.460752 0.041291 0.132042 0.128234
H14   H     H_    0.519724 0.059992 0.878080 0.127247
H15   H     H_    0.959111 0.538092 0.130225 0.128752
H16   H     H_    0.022206 0.559365 0.877272 0.126572
H17   H     H_    0.961212 0.732377 0.069250 0.097732
H18   H     H_    0.991240 0.742154 0.943260 0.105690
H19   H     H_    0.464835 0.235204 0.071118 0.097053
H20   H     H_    0.490813 0.243175 0.944385 0.108604
H21   H     H_    0.283813 0.408177 0.047512 0.138541
H22   H     H_    0.821956 0.534045 0.971556 0.132813
H23   H     H_    0.685979 0.946618 0.033427 0.118460
H24   H     H_    0.318607 0.988884 0.963352 0.139787
H25   H     H_    0.348774 0.528385 0.943101 0.143757
H26   H     H_    0.829863 0.702053 0.056481 0.163336
H27   H     H_    0.660940 0.082673 0.925449 0.145953
H28   H     H_    0.335338 0.135037 0.063689 0.164736
H29   H     H_    0.189512 0.571854 0.932235 0.116930
H30   H     H_    0.670216 0.670254 0.042003 0.091273
H31   H     H_    0.818883 0.111740 0.956186 0.092425
H32   H     H_    0.175468 0.126823 0.044873 0.092264
H33   H     H_    0.459366 0.663279 0.426917 0.153992
H34   H     H_    0.402512 0.705020 0.544833 0.152121
H35   H     H_    0.959316 0.163369 0.426919 0.153789
H36   H     H_    0.902452 0.205189 0.544835 0.151799
H37   H     H_    0.486764 0.936038 0.437103 0.103902
H38   H     H_    0.523185 0.892731 0.553417 0.092162
H39   H     H_    0.986807 0.436080 0.437110 0.103634
H40   H     H_    0.023224 0.392707 0.553435 0.091673
O1    O     O_R   0.215090 0.709860 0.828130 -0.531856
O2    O     O_R   0.784910 0.709860 0.171870 -0.528106
O3    O     O_R   0.715090 0.209860 0.828130 -0.529509
O4    O     O_R   0.284910 0.209860 0.171870 -0.528830
O5    O     O_R   0.445660 0.919250 0.676780 -0.510928
O6    O     O_R   0.554340 0.919250 0.323220 -0.519721
O7    O     O_R   0.945660 0.419250 0.676780 -0.510542
O8    O     O_R   0.054340 0.419250 0.323220 -0.520039
O9    O     O_R   0.456260 0.718170 0.670000 -0.524668
O10   O     O_R   0.543740 0.718170 0.330000 -0.513717
O11   O     O_R   0.956260 0.218170 0.670000 -0.524420
O12   O     O_R   0.043740 0.218170 0.330000 -0.516114
O13   O     O_R   0.320940 0.626760 0.674370 -0.507795
O14   O     O_R   0.679060 0.626760 0.325630 -0.493834
O15   O     O_R   0.820940 0.126760 0.674370 -0.503813
O16   O     O_R   0.179060 0.126760 0.325630 -0.495079
O17   O     O_3   0.334530 0.834540 0.749640 -0.250196
O18   O     O_3   0.665470 0.834540 0.250360 -0.283203
O19   O     O_3   0.834530 0.334540 0.749640 -0.263506
O20   O     O_3   0.165470 0.334540 0.250360 -0.275575
O21   O     O_R   0.236990 0.958390 0.823710 -0.515402
O22   O     O_R   0.763010 0.958390 0.176290 -0.528851
O23   O     O_R   0.736990 0.458390 0.823710 -0.528470
O24   O     O_R   0.263010 0.458390 0.176290 -0.531462
O25   O     O_R   0.332380 0.074750 0.830850 -0.514800
O26   O     O_R   0.667620 0.074750 0.169150 -0.515174
O27   O     O_R   0.832380 0.574750 0.830850 -0.516277
O28   O     O_R   0.167620 0.574750 0.169150 -0.507156
O29   O     O_R   0.445800 0.917770 0.825070 -0.498683
O30   O     O_R   0.554200 0.917770 0.174930 -0.503445
O31   O     O_R   0.945800 0.417770 0.825070 -0.499661
O32   O     O_R   0.054200 0.417770 0.174930 -0.502270
O33   O     O_R   0.456410 0.716580 0.829970 -0.535178
O34   O     O_R   0.543590 0.716580 0.170030 -0.533103
O35   O     O_R   0.956410 0.216580 0.829970 -0.543876
O36   O     O_R   0.043590 0.216580 0.170030 -0.528231
O37   O     O_R   0.321080 0.625290 0.822650 -0.500557
O38   O     O_R   0.678920 0.625290 0.177350 -0.511329
O39   O     O_R   0.821080 0.125290 0.822650 -0.513857
O40   O     O_R   0.178920 0.125290 0.177350 -0.512856
O41   O     O_R   0.214930 0.711450 0.668160 -0.526876
O42   O     O_R   0.785070 0.711450 0.331840 -0.543072
O43   O     O_R   0.714930 0.211450 0.668160 -0.524489
O44   O     O_R   0.285070 0.211450 0.331840 -0.542147
O45   O     O_R   0.236850 0.959870 0.675420 -0.519936
O46   O     O_R   0.763150 0.959870 0.324580 -0.521416
O47   O     O_R   0.736850 0.459870 0.675420 -0.516103
O48   O     O_R   0.263150 0.459870 0.324580 -0.520949
O49   O     O_R   0.332230 0.076350 0.670880 -0.535482
O50   O     O_R   0.667770 0.076350 0.329120 -0.517772
O51   O     O_R   0.832230 0.576350 0.670880 -0.525084
O52   O     O_R   0.167770 0.576350 0.329120 -0.518610
C85   C     C_3   0.524576 0.594241 0.921896 -0.238623
C86   C     C_3   0.576786 0.501027 0.950352 -0.357443
C87   C     C_3   0.592768 0.407512 0.892553 -0.431051
H41   H     H_    0.544035 0.363383 0.872879 0.125273
H42   H     H_    0.615677 0.452482 0.846012 0.181856
H43   H     H_    0.629499 0.337848 0.913420 0.177556
H44   H     H_    0.625633 0.548060 0.964817 0.170990
H45   H     H_    0.556647 0.449919 0.995921 0.148563
H46   H     H_    0.474172 0.546949 0.909970 0.164543
H47   H     H_    0.550038 0.621173 0.871739 0.173356
C88   C     C_3   0.476534 0.588519 0.072118 -0.220882
C89   C     C_3   0.422000 0.591929 0.131765 -0.276010
C90   C     C_3   0.421114 0.471833 0.171819 -0.409824
H48   H     H_    0.400504 0.398219 0.136922 0.152497
H49   H     H_    0.474830 0.447815 0.190591 0.129744
H50   H     H_    0.387601 0.480074 0.219299 0.171207
H51   H     H_    0.428292 0.665602 0.171091 0.179845
H52   H     H_    0.371139 0.610449 0.107643 0.156881
H53   H     H_    0.454161 0.524381 0.032285 0.121873
H54   H     H_    0.526374 0.548902 0.092430 0.165399
C91   C     C_3   0.027304 0.094004 0.918541 -0.238697
C92   C     C_3   0.075985 0.991268 0.942977 -0.350884
C93   C     C_3   0.083749 0.901039 0.881145 -0.432478
H55   H     H_    0.031494 0.870282 0.861455 0.119335
H56   H     H_    0.110058 0.944723 0.835887 0.179357
H57   H     H_    0.114217 0.820334 0.897395 0.168499
H58   H     H_    0.128101 0.026209 0.957694 0.172358
H59   H     H_    0.055118 0.939949 0.988032 0.148102
H60   H     H_    0.975440 0.051648 0.906272 0.170295
H61   H     H_    0.053092 0.122857 0.868916 0.174581
C94   C     C_3   0.981275 0.085681 0.068971 -0.222746
C95   C     C_3   0.922983 0.085950 0.124846 -0.273871
C96   C     C_3   0.935923 0.989731 0.181617 -0.410167
H62   H     H_    0.936154 0.897951 0.157145 0.127546
H63   H     H_    0.986909 0.005695 0.209371 0.161948
H64   H     H_    0.893752 0.993684 0.221638 0.163458
H65   H     H_    0.915937 0.175135 0.151059 0.165969
H66   H     H_    0.873265 0.063728 0.097399 0.150552
H67   H     H_    0.961506 0.020805 0.028332 0.113549
H68   H     H_    0.031045 0.047918 0.090708 0.168700
C97   C     C_3   0.300971 0.476969 0.466971 -0.242545
C98   C     C_3   0.364296 0.451765 0.419175 -0.290262
C99   C     C_3   0.429053 0.421760 0.464027 -0.496933
H69   H     H_    0.437314 0.492137 0.505374 0.155998
H70   H     H_    0.422281 0.332931 0.490620 0.151020
H71   H     H_    0.475783 0.416750 0.429528 0.144505
H72   H     H_    0.355426 0.371157 0.385297 0.217943
H73   H     H_    0.374980 0.531749 0.385456 0.172372
H74   H     H_    0.318294 0.553422 0.501383 0.151201
H75   H     H_    0.294184 0.392072 0.497483 0.142192
C100  C     C_3   0.694573 0.542210 0.538901 -0.247513
C101  C     C_3   0.635776 0.554239 0.593127 -0.290728
C102  C     C_3   0.567444 0.575617 0.553679 -0.478121
H76   H     H_    0.571018 0.662199 0.524582 0.179119
H77   H     H_    0.558393 0.501268 0.514863 0.147648
H78   H     H_    0.523536 0.577069 0.591524 0.182102
H79   H     H_    0.628203 0.468300 0.622449 0.196378
H80   H     H_    0.646450 0.630705 0.630425 0.177644
H81   H     H_    0.691304 0.624140 0.504888 0.157066
H82   H     H_    0.681711 0.459342 0.507858 0.138861
C103  C     C_3   0.801054 0.977134 0.466896 -0.242565
C104  C     C_3   0.864371 0.951942 0.419076 -0.290063
C105  C     C_3   0.929163 0.922021 0.463904 -0.497137
H83   H     H_    0.937383 0.992343 0.505293 0.156157
H84   H     H_    0.922462 0.833132 0.490448 0.151125
H85   H     H_    0.975896 0.917179 0.429399 0.143643
H86   H     H_    0.855507 0.871295 0.385223 0.218058
H87   H     H_    0.875015 0.031904 0.385324 0.172197
H88   H     H_    0.818378 0.053600 0.501296 0.150311
H89   H     H_    0.794301 0.892234 0.497411 0.142299
C106  C     C_3   0.194543 0.042749 0.539025 -0.246887
C107  C     C_3   0.135808 0.054940 0.593314 -0.291872
C108  C     C_3   0.067455 0.076118 0.553876 -0.478187
H90   H     H_    0.071001 0.162592 0.524672 0.179177
H91   H     H_    0.058397 0.001632 0.515149 0.147489
H92   H     H_    0.023564 0.077594 0.591731 0.182240
H93   H     H_    0.128223 0.969101 0.622724 0.196123
H94   H     H_    0.146515 0.131510 0.630544 0.175766
H95   H     H_    0.191338 0.124696 0.505019 0.156665
H96   H     H_    0.181576 0.959934 0.507978 0.139008
C109  C     C_3   0.244369 0.718957 0.062060 -0.249204
C110  C     C_3   0.168756 0.761740 0.047883 -0.280160
C111  C     C_3   0.138866 0.835767 0.109212 -0.417924
H97   H     H_    0.081553 0.848054 0.101101 0.112889
H98   H     H_    0.147553 0.791347 0.161088 0.193127
H99   H     H_    0.164396 0.925782 0.111024 0.170034
H100  H     H_    0.169525 0.821032 0.000870 0.149456
H101  H     H_    0.133358 0.684075 0.035455 0.188831
H102  H     H_    0.268376 0.768925 0.107724 0.134232
H103  H     H_    0.277343 0.743398 0.016084 0.141788
C112  C     C_3   0.708920 0.739362 0.890378 -0.255269
C113  C     C_3   0.756976 0.827239 0.850017 -0.261267
C114  C     C_3   0.826604 0.853800 0.889140 -0.400170
H104  H     H_    0.857222 0.921855 0.859708 0.152400
H105  H     H_    0.816975 0.887673 0.943620 0.155001
H106  H     H_    0.860026 0.772011 0.892691 0.177573
H107  H     H_    0.768469 0.789529 0.796621 0.170496
H108  H     H_    0.728257 0.913525 0.841493 0.162775
H109  H     H_    0.662508 0.718579 0.856177 0.103951
H110  H     H_    0.688698 0.785294 0.938342 0.144108
C115  C     C_3   0.759442 0.224292 0.081901 -0.256373
C116  C     C_3   0.690267 0.293249 0.089919 -0.280480
C117  C     C_3   0.700001 0.421604 0.068454 -0.459796
H111  H     H_    0.651352 0.471824 0.080758 0.155913
H112  H     H_    0.745481 0.460352 0.098210 0.191978
H113  H     H_    0.709968 0.423637 0.010777 0.156289
H114  H     H_    0.647628 0.253143 0.056292 0.184358
H115  H     H_    0.673522 0.292731 0.146184 0.190641
H116  H     H_    0.794076 0.246677 0.128143 0.116979
H117  H     H_    0.788746 0.254623 0.034980 0.138935
C118  C     C_3   0.210989 0.231437 0.909568 -0.269530
C119  C     C_3   0.182858 0.272028 0.836249 -0.305863
C120  C     C_3   0.239864 0.320791 0.787419 -0.405149
H118  H     H_    0.215212 0.377014 0.745213 0.130433
H119  H     H_    0.278331 0.377540 0.817249 0.162689
H120  H     H_    0.268040 0.245769 0.760962 0.187310
H121  H     H_    0.154197 0.196729 0.809253 0.151768
H122  H     H_    0.144415 0.346262 0.845038 0.146777
H123  H     H_    0.165065 0.227848 0.944738 0.126978
H124  H     H_    0.246697 0.301937 0.931446 0.163882

loop_
_geom_bond_atom_site_label_1
_geom_bond_atom_site_label_2
_ccdc_geom_bond_type
C37   C69   S    
C117  H111  S    
C70   O14   A    
C67   O7    A    
C120  H118  S    
C114  H106  S    
C31   C67   S    
C47   C76   S    
C120  H120  S    
C119  H122  S    
C111  H97   S    
Cr2   O42   S    
Cr11  O39   S    
C113  H107  S    
C21   H21   S    
Cr12  O40   S    
C35   C36   S    
C98   H73   S    
C11   H19   S    
C13   H29   S    
C88   C89   S    
C15   H31   S    
C58   O38   A    
C76   C83   A    
C41   C49   D    
C24   H24   S    
C63   O47   A    
C87   H41   S    
Cr4   O48   S    
C17   C109  S    
C103  H88   S    
Cr6   O50   S    
C17   C21   D    
C100  H82   S    
C19   C23   D    
C97   C98   S    
Cr8   O32   S    
C15   C27   D    
C14   C26   D    
C81   C85   S    
C83   C91   S    
C57   O37   A    
C67   O11   A    
C101  H79   S    
C60   O40   A    
C74   C81   A    
C107  H94   S    
C119  C120  S    
C7    C79   A    
Cr1   O1    S    
C85   H46   S    
C22   H22   S    
C1    C20   S    
C2    C19   S    
C31   H40   S    
C32   H39   S    
C47   O35   A    
Cr10  O14   S    
C14   H30   S    
C91   H60   S    
Cr9   O17   S    
Cr2   O18   S    
C87   H43   S    
C115  H116  S    
Cr10  O34   S    
C118  H123  S    
Cr12  O20   S    
C49   C53   S    
Cr9   O37   S    
Cr3   O23   S    
C99   H71   S    
C51   C55   S    
Cr4   O24   S    
C66   O10   A    
C49   H1    S    
C18   C112  S    
C8    C10   A    
C73   C77   A    
C31   C36   D    
C25   H25   S    
C119  H121  S    
C86   C87   S    
C103  H89   S    
C2    O26   A    
C103  C104  S    
Cr6   O26   S    
C116  H115  S    
Cr7   O31   S    
C117  H112  S    
C36   H36   S    
Cr3   O47   S    
C108  H90   S    
C75   C84   A    
C6    C78   A    
C13   C57   S    
C92   H58   S    
Cr12  O16   S    
C102  H76   S    
C16   C60   S    
Cr4   O4    S    
C106  H96   S    
C94   H68   S    
C9    C10   A    
C68   O12   A    
C62   O50   A    
C37   C53   D    
C44   C52   D    
C3    O23   A    
C90   H49   S    
C85   C86   S    
C95   C96   S    
C115  C116  S    
Cr7   O7    S    
C104  H87   S    
C39   C55   D    
C50   H2    S    
C109  H102  S    
Cr11  O11   S    
C113  C114  S    
C105  H85   S    
C40   C56   D    
C52   H4    S    
C46   O34   A    
C45   C74   S    
C112  H109  S    
C37   H9    S    
C96   H62   S    
C65   O5    A    
C43   C103  S    
C83   C84   A    
C61   O49   A    
C91   C92   S    
C57   O1    A    
C64   O52   A    
C22   C26   S    
C86   H44   S    
C42   C50   D    
C29   C65   S    
C60   O4    A    
C63   O51   A    
C74   C78   A    
C72   O44   A    
C21   C25   S    
Cr1   O45   S    
C40   C72   S    
C18   C22   D    
Cr5   O49   S    
C110  H100  S    
C76   C80   A    
C107  C108  S    
C45   O33   A    
C108  H92   S    
C28   H28   S    
C44   C61   S    
C114  H105  S    
C102  H78   S    
C9    H17   S    
C107  H93   S    
C82   C88   S    
Cr11  O35   S    
C101  C102  S    
C68   O8    A    
C16   H32   S    
C113  H108  S    
C64   O48   A    
C93   H57   S    
C46   C73   S    
C12   H20   S    
Cr10  O10   S    
C111  H99   S    
C38   C70   S    
C89   H51   S    
Cr9   O13   S    
C100  C101  S    
C105  H83   S    
C77   C78   A    
Cr9   O33   S    
C50   C54   S    
Cr4   O20   S    
C5    C11   A    
C96   H64   S    
C8    H16   S    
C6    C12   A    
C20   C118  S    
C100  H81   S    
C116  C117  S    
Cr7   O51   S    
C69   O41   A    
C71   O15   A    
C53   H5    S    
C72   O16   A    
C112  C113  S    
Cr6   O18   S    
C10   H18   S    
C3    O27   A    
C40   H12   S    
C29   H38   S    
C1    O25   A    
C109  C110  S    
Cr6   O30   S    
C101  H80   S    
Cr7   O27   S    
Cr1   O21   S    
Cr12  O12   S    
Cr5   O25   S    
Cr4   O44   S    
C120  H119  S    
C14   C58   S    
C24   C28   S    
C56   H8    S    
C94   C95   S    
C104  C105  S    
C29   C34   D    
C118  C119  S    
C87   H42   S    
C62   O46   A    
C93   H55   S    
C38   C54   D    
C59   O3    A    
C2    O22   A    
Cr8   O52   S    
C98   H72   S    
C99   H70   S    
Cr6   O6    S    
C4    C17   S    
Cr11  O15   S    
C115  H117  S    
C35   H35   S    
C73   C82   A    
C33   H33   S    
C46   O30   A    
C15   C59   S    
C54   H6    S    
Cr3   O3    S    
C42   C100  S    
C66   O6    A    
C61   O45   A    
C69   O13   A    
C23   H23   S    
C43   C51   D    
C5    H13   S    
C92   H59   S    
C95   H66   S    
C7    H15   S    
C98   C99   S    
C106  H95   S    
Cr1   O41   S    
C19   C115  S    
Cr2   O46   S    
C110  C111  S    
C26   H26   S    
C41   C64   S    
C94   H67   S    
C97   H75   S    
C45   O29   A    
C42   C63   S    
C43   C62   S    
C85   H47   S    
C16   C28   D    
C90   H48   S    
C81   C82   A    
C39   H11   S    
C91   H61   S    
C59   O39   A    
C118  H124  S    
C105  H84   S    
C55   H7    S    
C3    C18   S    
C71   O43   A    
C88   H54   S    
C48   O36   A    
C20   C24   D    
C89   C90   S    
C95   H65   S    
C4    O28   A    
Cr9   O9    S    
C23   C27   S    
C86   H45   S    
C32   C68   S    
Cr8   O28   S    
C39   C71   S    
C5    C77   A    
C6    H14   S    
C48   C75   S    
C13   C25   D    
C51   H3    S    
C116  H114  S    
C32   C35   D    
C110  H101  S    
C117  H113  S    
C108  H91   S    
C27   H27   S    
C70   O42   A    
C114  H104  S    
C102  H77   S    
C38   H10   S    
Cr7   O19   S    
C84   C94   S    
C47   O31   A    
Cr5   O17   S    
C48   O32   A    
Cr10  O18   S    
C30   H37   S    
C88   H53   S    
C33   C34   S    
Cr8   O20   S    
Cr1   O17   S    
Cr2   O22   S    
Cr5   O29   S    
C30   C66   S    
Cr10  O38   S    
C93   H56   S    
C41   C97   S    
C90   H50   S    
Cr3   O19   S    
C75   C79   A    
C65   O9    A    
C106  C107  S    
C104  H86   S    
C111  H98   S    
C89   H52   S    
C30   C33   D    
C11   C12   A    
C112  H110  S    
C1    O21   A    
C96   H63   S    
C44   C106  S    
C58   O2    A    
C4    O24   A    
Cr5   O5    S    
C109  H103  S    
Cr11  O19   S    
Cr8   O8    S    
Cr2   O2    S    
Cr3   O43   S    
C79   C80   A    
C7    C9    A    
C34   H34   S    
C92   C93   S    
Cr12  O36   S    
C99   H69   S    
C8    C80   A    
C97   H74   S    
C52   C56   S    
