data_mof_unit_49777.cif
_audit_creation_date              2012-12-10T20:53:00-0500
_audit_creation_method            fapswitch 2.2
_symmetry_space_group_name_H-M    P1
_symmetry_Int_Tables_number       1
_space_group_crystal_system       triclinic
_cell_length_a                    18.376743
_cell_length_b                    18.358456
_cell_length_c                    18.392653
_cell_angle_alpha                 59.629398
_cell_angle_beta                  59.746011
_cell_angle_gamma                 59.726359
_cell_volume                      4357.81995116

loop_
_atom_site_label
_atom_site_type_symbol
_atom_type_description
_atom_site_fract_x
_atom_site_fract_y
_atom_site_fract_z
_atom_type_partial_charge
C1    C     C_R   0.389960 0.110210 0.110136 0.790377
C2    C     C_R   0.342019 0.839202 0.881574 -0.382534
C3    C     C_R   0.028961 0.563786 0.915958 0.070989
C4    C     C_R   0.471648 0.094703 0.959959 0.064446
C5    C     C_R   0.530048 0.905362 0.039958 0.070727
C6    C     C_R   0.946275 0.945492 0.553536 -0.159048
C7    C     C_R   0.054373 0.053652 0.447297 -0.181788
C8    C     C_R   0.946498 0.552665 0.945443 -0.197124
C9    C     C_R   0.054135 0.446006 0.053948 -0.180719
C10   C     C_R   0.553782 0.945947 0.945958 -0.175347
C11   C     C_R   0.446213 0.054074 0.054007 -0.177172
C12   C     C_3   0.116721 0.831898 0.019376 0.124072
C13   C     C_R   0.195414 0.961187 0.689493 -0.342104
C14   C     C_3   0.018969 0.894063 0.034816 -0.406470
C15   C     C_3   0.982244 0.907033 0.969439 -0.797605
C16   C     C_3   0.853112 0.208297 0.002300 0.073793
C17   C     C_3   0.869110 0.142627 0.090542 -0.308544
C18   C     C_3   0.823285 0.073019 0.137667 -1.021053
C19   C     C_3   0.673934 0.009252 0.016934 0.110743
C20   C     C_3   0.734479 0.934524 0.072070 -0.404805
C21   C     C_3   0.685165 0.873021 0.155185 -0.940709
C22   C     C_3   0.282645 0.025764 0.855719 0.067390
C23   C     C_3   0.379036 0.025927 0.815344 -0.341873
C24   C     C_R   0.821824 0.005820 0.371214 -0.330181
C25   C     C_3   0.395153 0.098441 0.723631 -0.962769
C26   C     C_3   0.042093 0.922716 0.722608 0.066701
C27   C     C_3   0.975236 0.872644 0.788268 -0.329532
C28   C     C_3   0.879600 0.937054 0.811919 -0.835151
C29   C     C_3   0.948216 0.100213 0.260016 0.051331
C30   C     C_3   0.036790 0.028530 0.271569 -0.385578
C31   C     C_3   0.102843 0.008573 0.185229 -0.831589
C32   C     C_3   0.904491 0.687525 0.145159 0.048089
C33   C     C_3   0.885036 0.607751 0.161579 -0.301382
C34   C     C_3   0.785244 0.621531 0.203496 -0.987342
C35   C     C_R   0.124383 0.626973 0.269696 -0.224909
C36   C     C_3   0.084171 0.369964 0.848220 0.117207
C37   C     C_3   0.185318 0.340507 0.799736 -0.377357
C38   C     C_3   0.225941 0.405104 0.782106 -0.954036
C39   C     C_3   0.699662 0.292069 0.741092 0.089432
C40   C     C_3   0.633510 0.359891 0.690094 -0.350076
C41   C     C_3   0.664716 0.439003 0.617333 -0.996949
C42   C     C_3   0.341091 0.801206 0.158818 0.096861
C43   C     C_3   0.295165 0.737188 0.244081 -0.374923
C44   C     C_3   0.357772 0.665461 0.297622 -0.995890
C45   C     C_3   0.326980 0.730419 0.599353 0.079042
C46   C     C_R   0.874673 0.386701 0.739373 -0.184362
C47   C     C_3   0.328496 0.660762 0.575688 -0.315313
C48   C     C_3   0.387964 0.567038 0.615639 -1.001076
C49   C     C_3   0.631915 0.288701 0.414964 0.093565
C50   C     C_3   0.633812 0.382788 0.383182 -0.361788
C51   C     C_3   0.682416 0.386844 0.427310 -0.787124
C52   C     C_R   0.611002 0.243617 0.059069 -0.163470
C53   C     C_R   0.388762 0.748373 0.893447 -0.114712
C54   C     C_R   0.266000 0.994680 0.642239 -0.207568
C55   C     C_R   0.747366 0.983514 0.399789 -0.148535
C56   C     C_R   0.054803 0.593192 0.309113 0.110697
C57   C     C_R   0.610026 0.889820 0.889832 0.800958
C58   C     C_R   0.953420 0.407785 0.689867 0.116347
C59   C     C_R   0.581277 0.321513 0.992678 0.083888
C60   C     C_R   0.408811 0.689520 0.972146 0.121993
C61   C     C_R   0.335107 0.970383 0.568432 0.112805
C62   C     C_R   0.661927 0.037506 0.437025 0.083557
C63   C     C_R   0.010805 0.608122 0.256440 -0.329491
C64   C     C_R   0.012334 0.381549 0.732340 -0.367379
C65   C     C_R   0.597349 0.316545 0.912146 -0.414369
C66   C     C_R   0.378312 0.721385 0.040655 -0.425208
C67   C     C_R   0.332525 0.912938 0.541526 -0.369040
C68   C     C_R   0.110005 0.110361 0.390135 0.784605
C69   C     C_R   0.651224 0.116755 0.440887 -0.430716
C70   C     C_R   0.033935 0.659878 0.164430 0.486619
C71   C     C_R   0.991342 0.336843 0.825505 0.494140
C72   C     C_R   0.644571 0.234170 0.896453 0.481218
C73   C     C_R   0.331050 0.813581 0.029854 0.488064
C74   C     C_R   0.263257 0.876369 0.590781 0.455811
C75   C     C_R   0.725653 0.144610 0.405024 0.467633
C76   C     C_R   0.102197 0.695787 0.126185 0.514441
C77   C     C_R   0.913008 0.314073 0.874864 0.508364
C78   C     C_R   0.668382 0.155348 0.965849 0.486158
C79   C     C_R   0.890321 0.889245 0.610008 0.787078
C80   C     C_R   0.313999 0.873344 0.948957 0.492404
C81   C     C_R   0.192290 0.903034 0.663222 0.482710
C82   C     C_R   0.811839 0.087479 0.370943 0.505305
C83   C     C_R   0.973917 0.593469 0.462514 -0.272253
C84   C     C_R   0.027166 0.406923 0.536840 -0.270395
C85   C     C_R   0.590081 0.465791 0.953050 -0.270191
C86   C     C_R   0.407713 0.536165 0.040127 -0.258819
C87   C     C_R   0.473125 0.939576 0.583715 -0.275837
C88   C     C_R   0.527199 0.064086 0.416275 -0.260427
C89   C     C_R   0.946868 0.552035 0.555330 -0.066112
C90   C     C_R   0.110212 0.390021 0.110085 0.782977
C91   C     C_R   0.053779 0.448308 0.444050 -0.066564
C92   C     C_R   0.551182 0.556294 0.944122 -0.070586
C93   C     C_R   0.447112 0.445196 0.050139 -0.067935
C94   C     C_R   0.554997 0.950099 0.552802 -0.055417
C95   C     C_R   0.445707 0.052309 0.446802 -0.060487
C96   C     C_R   0.974823 0.457336 0.592910 0.039142
C97   C     C_R   0.027348 0.543095 0.406232 0.042541
C98   C     C_R   0.457721 0.592962 0.985041 0.034059
C99   C     C_R   0.538791 0.410322 0.002901 0.049206
C100  C     C_R   0.582075 0.014234 0.468693 0.050362
C101  C     C_R   0.889701 0.609785 0.890001 0.789571
C102  C     C_R   0.418053 0.989830 0.531806 0.039905
C103  C     C_R   0.109898 0.390685 0.389546 0.794875
C104  C     C_R   0.890387 0.609372 0.610309 0.796188
C105  C     C_R   0.390350 0.389805 0.108270 0.797377
C106  C     C_R   0.609314 0.610419 0.889994 0.795226
C107  C     C_R   0.389928 0.108581 0.390283 0.797063
C108  C     C_R   0.610273 0.892430 0.609671 0.806762
C109  C     C_R   0.183403 0.924838 0.408189 -0.102163
C110  C     C_R   0.816615 0.075040 0.590605 -0.145061
C111  C     C_R   0.941213 0.371267 0.167193 -0.151470
C112  C     C_R   0.149130 0.676204 0.178686 -0.366988
C113  C     C_R   0.060189 0.625589 0.831259 -0.183032
C114  C     C_R   0.444443 0.189060 0.918747 -0.127286
C115  C     C_R   0.560725 0.811129 0.081049 -0.194015
C116  C     C_R   0.219502 0.835377 0.414821 -0.078340
C117  C     C_R   0.780758 0.164340 0.584566 -0.066806
C118  C     C_R   0.861372 0.359098 0.194029 -0.166209
C119  C     C_R   0.140411 0.637231 0.803766 -0.125454
C120  C     C_R   0.470360 0.228224 0.825934 -0.093216
C121  C     C_R   0.537507 0.772066 0.173800 -0.183752
C122  C     C_R   0.166162 0.781434 0.467733 -0.156083
C123  C     C_R   0.854258 0.340472 0.831118 -0.365524
C124  C     C_R   0.835101 0.217094 0.534317 -0.164750
C125  C     C_R   0.808964 0.410738 0.139547 -0.140618
C126  C     C_R   0.193390 0.585318 0.857707 -0.112050
C127  C     C_R   0.523832 0.174665 0.772393 -0.115509
C128  C     C_R   0.483103 0.825622 0.227379 -0.165040
C129  C     C_R   0.076217 0.816905 0.514215 -0.159059
C130  C     C_R   0.925076 0.181492 0.488418 -0.142171
C131  C     C_R   0.835498 0.475665 0.058645 -0.110672
C132  C     C_R   0.166127 0.521559 0.939605 -0.123070
C133  C     C_R   0.551698 0.081637 0.811358 -0.140320
C134  C     C_R   0.652043 0.160992 0.046755 -0.345454
C135  C     C_R   0.452016 0.918526 0.188504 -0.172356
C136  C     C_R   0.037584 0.908109 0.507604 0.072638
C137  C     C_R   0.963310 0.090701 0.493987 0.103462
C138  C     C_R   0.918235 0.487239 0.027960 0.056100
C139  C     C_R   0.082965 0.510520 0.970824 0.072347
C140  C     C_R   0.525917 0.040222 0.905507 0.057801
C141  C     C_R   0.475411 0.959838 0.094425 0.067794
C142  C     C_R   0.092034 0.962693 0.454065 0.047565
C143  C     C_R   0.908571 0.036451 0.546683 0.083263
C144  C     C_R   0.972326 0.433679 0.082796 0.057727
H1    H     H_    0.807389 0.286280 0.530009 0.129054
H2    H     H_    0.336876 0.564045 0.073909 0.189371
H3    H     H_    0.217487 0.272543 0.841221 0.240835
H4    H     H_    0.199814 0.336906 0.735070 0.209770
H5    H     H_    0.194060 0.473993 0.741843 0.268362
H6    H     H_    0.298669 0.383258 0.744623 0.260075
H7    H     H_    0.216868 0.405463 0.846325 0.271751
H8    H     H_    0.760745 0.256614 0.696552 0.162101
H9    H     H_    0.722560 0.326913 0.756666 0.116632
H10   H     H_    0.626261 0.326229 0.659363 0.207696
H11   H     H_    0.566488 0.385615 0.736593 0.220528
H12   H     H_    0.665181 0.477633 0.647929 0.265017
H13   H     H_    0.452653 0.890093 0.648192 0.163525
H14   H     H_    0.618454 0.483974 0.578164 0.266003
H15   H     H_    0.732929 0.415552 0.571166 0.261497
H16   H     H_    0.338975 0.850951 0.177876 0.175966
H17   H     H_    0.413392 0.766606 0.128739 0.151710
H18   H     H_    0.234623 0.776189 0.285881 0.224058
H19   H     H_    0.272781 0.703402 0.227306 0.224242
H20   H     H_    0.415058 0.621753 0.258715 0.262914
H21   H     H_    0.321075 0.623393 0.360989 0.261549
H22   H     H_    0.383815 0.696460 0.313737 0.262180
H23   H     H_    0.307969 0.708203 0.673319 0.143762
H24   H     H_    0.547172 0.114190 0.352225 0.160472
H25   H     H_    0.395628 0.734233 0.567274 0.125505
H26   H     H_    0.259651 0.660065 0.601177 0.225980
H27   H     H_    0.354079 0.678939 0.501806 0.212084
H28   H     H_    0.457501 0.565781 0.590398 0.266517
H29   H     H_    0.388466 0.518503 0.596173 0.266364
H30   H     H_    0.362218 0.546090 0.689761 0.265681
H31   H     H_    0.591572 0.269918 0.487311 0.127478
H32   H     H_    0.598742 0.293353 0.375338 0.090883
H33   H     H_    0.666478 0.406088 0.309654 0.205080
H34   H     H_    0.563877 0.429534 0.398828 0.170887
H35   H     H_    0.228060 0.963582 0.367115 0.115012
H36   H     H_    0.653885 0.359190 0.501170 0.244161
H37   H     H_    0.674955 0.457557 0.407948 0.227307
H38   H     H_    0.754709 0.348585 0.404373 0.282265
H39   H     H_    0.771519 0.036829 0.630122 0.117409
H40   H     H_    0.977083 0.331663 0.214209 0.146988
H41   H     H_    0.024060 0.665037 0.784476 0.135454
H42   H     H_    0.403141 0.233457 0.957655 0.110003
H43   H     H_    0.602933 0.766749 0.042126 0.126279
H44   H     H_    0.289490 0.807838 0.379485 0.121363
H45   H     H_    0.194708 0.711651 0.473252 0.128915
H46   H     H_    0.710540 0.192565 0.618965 0.127044
H47   H     H_    0.839661 0.310058 0.257895 0.205157
H48   H     H_    0.161726 0.686183 0.739827 0.187182
H49   H     H_    0.448997 0.300457 0.795449 0.116903
H50   H     H_    0.561576 0.699930 0.204194 0.147361
H51   H     H_    0.037580 0.772137 0.555163 0.119072
H52   H     H_    0.963999 0.225930 0.448776 0.119674
H53   H     H_    0.789533 0.516634 0.021592 0.141078
H54   H     H_    0.211974 0.480635 0.976816 0.138847
H55   H     H_    0.593367 0.042716 0.766981 0.110763
H56   H     H_    0.256573 0.593428 0.835462 0.127955
H57   H     H_    0.410058 0.957438 0.232886 0.118655
H58   H     H_    0.205378 0.698549 0.148826 0.167458
H59   H     H_    0.792433 0.325988 0.867520 0.141435
H60   H     H_    0.671416 0.101572 0.100251 0.170533
H61   H     H_    0.327274 0.881099 0.820064 0.157455
H62   H     H_    0.145990 0.977043 0.749274 0.153616
H63   H     H_    0.887382 0.959672 0.348013 0.161516
H64   H     H_    0.959936 0.578025 0.287346 0.145624
H65   H     H_    0.074247 0.396048 0.692597 0.148214
H66   H     H_    0.574362 0.377496 0.861269 0.167341
H67   H     H_    0.746631 0.401623 0.160570 0.129215
H68   H     H_    0.391025 0.673022 0.102268 0.164053
H69   H     H_    0.387157 0.891940 0.486006 0.149574
H70   H     H_    0.584196 0.156010 0.471500 0.147793
H71   H     H_    0.156329 0.859354 0.948493 0.173966
H72   H     H_    0.144337 0.834197 0.059504 0.104144
H73   H     H_    0.976687 0.867034 0.104504 0.202030
H74   H     H_    0.015228 0.960482 0.025412 0.198892
H75   H     H_    0.025428 0.931464 0.899573 0.245973
H76   H     H_    0.914152 0.957583 0.978112 0.232359
H77   H     H_    0.978646 0.842992 0.981890 0.296908
H78   H     H_    0.464965 0.795090 0.299377 0.133332
H79   H     H_    0.881925 0.169933 0.956909 0.134751
H80   H     H_    0.780005 0.242211 0.015476 0.156517
H81   H     H_    0.942282 0.107859 0.077329 0.224866
H82   H     H_    0.842769 0.180936 0.134959 0.223673
H83   H     H_    0.750055 0.104614 0.165935 0.270669
H84   H     H_    0.848104 0.018976 0.193458 0.265212
H85   H     H_    0.837916 0.042646 0.090692 0.270478
H86   H     H_    0.665892 0.979369 0.983102 0.178518
H87   H     H_    0.605589 0.036806 0.061444 0.155182
H88   H     H_    0.793786 0.895068 0.030005 0.219056
H89   H     H_    0.543776 0.205313 0.700332 0.107275
H90   H     H_    0.758493 0.962909 0.093238 0.225650
H91   H     H_    0.667185 0.838170 0.135236 0.286644
H92   H     H_    0.623556 0.911992 0.196352 0.274478
H93   H     H_    0.728502 0.822395 0.196619 0.254102
H94   H     H_    0.237062 0.093057 0.861145 0.190365
H95   H     H_    0.264820 0.018248 0.811160 0.116040
H96   H     H_    0.391550 0.037890 0.860895 0.242289
H97   H     H_    0.427479 0.960246 0.807628 0.252947
H98   H     H_    0.382800 0.087623 0.677148 0.267657
H99   H     H_    0.465615 0.095752 0.695480 0.261927
H100  H     H_    0.953769 0.665928 0.432995 0.174172
H101  H     H_    0.350445 0.165777 0.729304 0.261399
H102  H     H_    0.032985 0.957216 0.656158 0.154164
H103  H     H_    0.027567 0.973828 0.747979 0.132395
H104  H     H_    0.980421 0.830004 0.758411 0.244550
H105  H     H_    0.992020 0.827930 0.850641 0.242430
H106  H     H_    0.861119 0.983370 0.750770 0.272282
H107  H     H_    0.872844 0.976878 0.845894 0.270869
H108  H     H_    0.832835 0.898431 0.857861 0.282326
H109  H     H_    0.960009 0.164938 0.213918 0.181246
H110  H     H_    0.925556 0.083380 0.226575 0.124696
H111  H     H_    0.047827 0.334464 0.566541 0.178685
H112  H     H_    0.066511 0.052820 0.290704 0.260284
H113  H     H_    0.025347 0.965739 0.325391 0.229306
H114  H     H_    0.076823 0.980065 0.166090 0.257312
H115  H     H_    0.167289 0.959136 0.195556 0.285017
H116  H     H_    0.114917 0.070633 0.130198 0.277331
H117  H     H_    0.160081 0.614275 0.309375 0.157868
H118  H     H_    0.828813 0.406820 0.706911 0.142766
H119  H     H_    0.601027 0.246757 0.120846 0.157368
H120  H     H_    0.409669 0.723750 0.841025 0.141257
H121  H     H_    0.269030 0.036361 0.665600 0.149178
H122  H     H_    0.660430 0.438616 0.917799 0.175183
H123  H     H_    0.756549 0.922590 0.395384 0.163074
H124  H     H_    0.874313 0.746256 0.095023 0.172760
H125  H     H_    0.871300 0.705734 0.206602 0.112324
H126  H     H_    0.910163 0.599759 0.096347 0.241536
H127  H     H_    0.920564 0.545498 0.205630 0.215597
H128  H     H_    0.757061 0.633045 0.267715 0.264641
H129  H     H_    0.774634 0.560883 0.216740 0.274864
H130  H     H_    0.749628 0.679555 0.157116 0.272839
H131  H     H_    0.071745 0.373323 0.912314 0.183550
H132  H     H_    0.050707 0.439230 0.809064 0.123877
O1    O     O_3   0.250000 0.250000 0.250000 -0.481862
O2    O     O_R   0.865800 0.694910 0.573470 -0.653839
O3    O     O_R   0.305090 0.426530 0.134200 -0.644644
O4    O     O_R   0.694910 0.573470 0.865800 -0.643069
O5    O     O_R   0.426530 0.134200 0.305090 -0.650602
O6    O     O_R   0.573470 0.865800 0.694910 -0.654466
O7    O     O_R   0.134190 0.426530 0.134200 -0.632247
O8    O     O_R   0.865810 0.573470 0.865800 -0.652703
O9    O     O_R   0.426530 0.134200 0.134190 -0.651803
O10   O     O_R   0.573470 0.865800 0.865810 -0.653659
O11   O     O_R   0.134200 0.134190 0.426530 -0.640843
O12   O     O_3   0.750000 0.750000 0.750000 -0.473950
O13   O     O_R   0.865800 0.865810 0.573470 -0.632774
O14   O     O_R   0.426530 0.305080 0.134210 -0.638468
O15   O     O_R   0.573470 0.694920 0.865790 -0.639647
O16   O     O_R   0.305080 0.134210 0.426530 -0.629452
O17   O     O_R   0.694920 0.865790 0.573470 -0.641197
O18   O     O_R   0.134210 0.426530 0.305080 -0.632402
O19   O     O_R   0.865790 0.573470 0.694920 -0.634493
O20   O     O_3   0.126623 0.743779 0.035280 -0.596807
O21   O     O_3   0.893804 0.272526 0.966756 -0.621699
O22   O     O_3   0.714741 0.074644 0.949741 -0.643615
O23   O     O_R   0.305080 0.134200 0.134200 -0.628896
O24   O     O_3   0.264151 0.962768 0.943315 -0.626610
O25   O     O_3   0.129385 0.859966 0.715714 -0.639345
O26   O     O_3   0.885293 0.110896 0.343367 -0.621124
O27   O     O_3   0.997898 0.670576 0.107453 -0.612206
O28   O     O_3   0.050467 0.304628 0.869373 -0.630306
O29   O     O_3   0.662347 0.227225 0.816821 -0.614550
O30   O     O_3   0.293904 0.848695 0.097735 -0.633015
O31   O     O_3   0.264546 0.814186 0.568387 -0.627455
O32   O     O_3   0.719583 0.225405 0.401614 -0.600683
O33   O     O_R   0.694920 0.865800 0.865800 -0.647399
O34   O     O_R   0.134200 0.134200 0.305080 -0.652550
O35   O     O_R   0.865800 0.865800 0.694920 -0.657524
O36   O     O_R   0.134200 0.305080 0.134200 -0.641976
O37   O     O_R   0.865800 0.694920 0.865800 -0.643875
O38   O     O_R   0.134200 0.305090 0.426530 -0.651491
Zn1   Zn    Zn3+2 0.206620 0.206630 0.380140 0.959997
Zn2   Zn    Zn3+2 0.793380 0.793370 0.619860 0.952502
Zn3   Zn    Zn3+2 0.206630 0.380140 0.206620 0.969113
Zn4   Zn    Zn3+2 0.793370 0.619860 0.793380 0.956338
Zn5   Zn    Zn3+2 0.380140 0.206620 0.206630 0.949003
Zn6   Zn    Zn3+2 0.619860 0.793380 0.793370 0.943353
Zn7   Zn    Zn3+2 0.206620 0.206620 0.206620 0.951385
Zn8   Zn    Zn3+2 0.793380 0.793380 0.793380 0.927004

loop_
_geom_bond_atom_site_label_1
_geom_bond_atom_site_label_2
_ccdc_geom_bond_type
C30   H113  S    
C70   O27   S    
C19   C20   S    
C112  H58   S    
O16   Zn1   S    
C42   H17   S    
C25   H98   S    
C103  O38   A    
C103  O18   A    
C111  C118  A    
C131  H53   S    
C13   C54   A    
C60   C98   S    
O36   Zn7   S    
C87   C94   A    
C8    C138  A    
C7    C68   S    
C85   C92   A    
C39   O29   S    
C88   H24   S    
C109  C142  A    
C84   C91   A    
C29   H109  S    
C95   C102  A    
C41   H12   S    
C88   C95   A    
C33   H127  S    
C34   H128  S    
C32   H125  S    
C10   C140  A    
C129  H51   S    
C90   O36   A    
C45   C47   S    
C71   O28   S    
C121  C128  A    
C3    C8    A    
C128  C135  A    
C7    C137  A    
O38   Zn1   S    
C83   H100  S    
C43   C44   S    
C37   C38   S    
C118  H47   S    
O23   Zn7   S    
C132  H54   S    
C124  C130  A    
C67   C74   A    
C37   H3    S    
C53   H120  S    
C92   C106  S    
C110  H39   S    
O13   Zn2   S    
C63   H64   S    
C16   H80   S    
C45   O31   S    
C74   C81   A    
C104  O2    A    
C121  H50   S    
C49   H31   S    
C122  H45   S    
C77   O21   S    
C22   H95   S    
C126  H56   S    
C52   H119  S    
C101  O8    A    
C50   H34   S    
C69   H70   S    
C91   C103  S    
C51   H37   S    
C2    C53   A    
C81   O25   S    
C9    C90   S    
C47   H27   S    
C108  O17   A    
C54   C61   A    
C24   H63   S    
C123  H59   S    
C89   C96   A    
C57   O33   A    
C27   H105  S    
C28   H107  S    
C131  C138  A    
C75   O32   S    
C39   H8    S    
C110  C143  A    
O17   Zn2   S    
C18   H83   S    
C41   H14   S    
C119  C126  A    
C20   C21   S    
C13   H62   S    
C14   H74   S    
C36   H132  S    
C26   H102  S    
C23   H96   S    
C21   H93   S    
C55   C62   A    
C115  C121  A    
C52   C134  A    
C49   O32   S    
C120  C127  A    
C135  H57   S    
O34   Zn7   S    
C132  C139  A    
C36   C37   S    
C79   O35   A    
O1    Zn1   S    
O2    Zn2   S    
C21   H92   S    
C129  C136  A    
O5    Zn5   S    
O11   Zn1   S    
O6    Zn6   S    
C72   C78   A    
O7    Zn3   S    
C17   H81   S    
O15   Zn6   S    
C126  C132  A    
C23   H97   S    
C29   O26   S    
C133  H55   S    
C5    C115  A    
C56   C97   S    
C53   C60   A    
C48   H30   S    
C58   C64   A    
C83   C89   A    
C34   H129  S    
C127  H89   S    
C54   H121  S    
C119  H48   S    
C39   C40   S    
C87   H13   S    
C29   C30   S    
C85   C99   A    
C86   C93   A    
C68   O11   A    
C115  H43   S    
C125  C131  A    
C94   C100  A    
C113  H41   S    
C17   C18   S    
O33   Zn8   S    
C11   C141  A    
C65   H66   S    
C30   H112  S    
C3    C139  A    
C15   H75   S    
C38   H7    S    
C71   C77   A    
C107  O16   A    
C122  C129  A    
C90   O7    A    
C22   C23   S    
C85   H122  S    
C22   O24   S    
C45   H25   S    
C75   C82   A    
C65   C72   A    
C120  H49   S    
O18   Zn3   S    
O12   Zn4   S    
C138  C144  A    
C59   C65   A    
O14   Zn5   S    
C31   H114  S    
C44   H21   S    
C61   C67   A    
C28   H106  S    
C43   H18   S    
C78   O22   S    
C49   C50   S    
C14   C15   S    
C35   C112  A    
C82   O26   S    
C43   H19   S    
C33   H126  S    
O37   Zn8   S    
O35   Zn8   S    
C1    O9    A    
C125  H67   S    
C26   C27   S    
C116  C122  A    
C39   H9    S    
C4    C114  A    
C117  C124  A    
C130  H52   S    
C30   C31   S    
C13   C81   A    
C64   C71   A    
C136  C142  A    
C109  C116  A    
C113  C119  A    
C16   C17   S    
C40   H11   S    
C118  C125  A    
C8    C101  S    
C93   C99   A    
C38   H5    S    
C35   C56   A    
C60   C66   A    
C68   O34   A    
C86   H2    S    
C110  C117  A    
C9    C144  A    
C25   H99   S    
C42   H16   S    
C50   H33   S    
O12   Zn6   S    
C62   C69   A    
C104  O19   A    
C28   H108  S    
C77   C123  A    
C34   H130  S    
C84   H111  S    
C50   C51   S    
C29   H110  S    
C91   C97   A    
C4    C11   A    
C88   C100  A    
C18   H84   S    
C72   O29   S    
C62   C100  S    
C46   C123  A    
C42   C43   S    
C26   H103  S    
C26   O25   S    
C1    O23   A    
C127  C133  A    
C18   H85   S    
C134  H60   S    
C114  H42   S    
C19   O22   S    
C32   C33   S    
C35   H117  S    
C27   H104  S    
C9    C139  A    
C6    C79   S    
C21   H91   S    
C69   C75   A    
C37   H4    S    
C86   C98   A    
C19   H86   S    
C133  C140  A    
C83   C97   A    
C16   H79   S    
C31   H115  S    
C44   H20   S    
C12   H71   S    
C130  C137  A    
C49   H32   S    
C114  C120  A    
C22   H94   S    
C25   H101  S    
C12   O20   S    
O9    Zn5   S    
C20   H88   S    
O10   Zn6   S    
C59   C99   S    
C1    C11   S    
C51   H38   S    
C92   C98   A    
C24   C55   A    
C116  H44   S    
C94   C108  S    
C42   O30   S    
C76   O20   S    
C32   O27   S    
C84   C96   A    
C24   C82   A    
C105  O14   A    
C58   C96   S    
C93   C105  S    
C41   H15   S    
C6    C136  A    
C14   H73   S    
C36   H131  S    
O1    Zn3   S    
C137  C143  A    
C48   H28   S    
C40   H10   S    
C107  O5    A    
C73   O30   S    
C36   O28   S    
C10   C57   S    
C55   H123  S    
C3    C113  A    
C128  H78   S    
C66   C73   A    
C16   O21   S    
C15   H77   S    
C52   C59   A    
C4    C140  A    
C87   C102  A    
C78   C134  A    
C17   H82   S    
C109  H35   S    
C5    C141  A    
C47   C48   S    
C63   C70   A    
C135  C141  A    
C76   C112  A    
C33   C34   S    
C56   C63   A    
C2    H61   S    
C44   H22   S    
C45   H23   S    
C31   H116  S    
C95   C107  S    
C111  C144  A    
C79   O13   A    
C101  O37   A    
C40   C41   S    
C12   C14   S    
C20   H90   S    
C89   C104  S    
C70   C76   A    
C105  O3    A    
C67   H69   S    
C106  O4    A    
O12   Zn2   S    
C51   H36   S    
C47   H26   S    
C108  O6    A    
O12   Zn8   S    
C48   H29   S    
O19   Zn4   S    
O4    Zn4   S    
O1    Zn7   S    
C57   O10   A    
C46   H118  S    
C124  H1    S    
C61   C102  S    
C15   H76   S    
C5    C10   A    
C106  O15   A    
C19   H87   S    
C111  H40   S    
C73   C80   A    
C32   H124  S    
C23   C25   S    
C64   H65   S    
O1    Zn5   S    
C2    C80   A    
C117  H46   S    
C80   O24   S    
O3    Zn3   S    
C27   C28   S    
C12   H72   S    
C6    C143  A    
C66   H68   S    
C38   H6    S    
C7    C142  A    
C46   C58   A    
C74   O31   S    
O8    Zn4   S    
