data_mof_unit_5274.cif
_audit_creation_date              2012-12-10T17:09:18-0500
_audit_creation_method            fapswitch 2.2
_symmetry_space_group_name_H-M    P1
_symmetry_Int_Tables_number       1
_space_group_crystal_system       triclinic
_cell_length_a                    18.397541
_cell_length_b                    18.348068
_cell_length_c                    11.653439
_cell_angle_alpha                 90.07844
_cell_angle_beta                  75.118222
_cell_angle_gamma                 89.877454
_cell_volume                      3801.76508229

loop_
_atom_site_label
_atom_site_type_symbol
_atom_type_description
_atom_site_fract_x
_atom_site_fract_y
_atom_site_fract_z
_atom_type_partial_charge
C1    C     C_R   0.400387 0.101473 0.522015 0.839434
C2    C     C_R   0.600014 0.898817 0.477980 0.840087
C3    C     C_R   0.600296 0.100868 0.478084 0.826270
C4    C     C_R   0.398828 0.899749 0.522356 0.839766
C5    C     C_R   0.899717 0.600836 0.522032 0.844438
C6    C     C_R   0.100910 0.399482 0.477552 0.829097
C7    C     C_R   0.103239 0.597883 0.477349 0.849047
C8    C     C_R   0.899071 0.399688 0.522139 0.823484
C9    C     C_R   0.536060 0.003376 0.960468 -0.122084
C10   C     C_R   0.463995 0.000025 0.039564 -0.087195
C11   C     C_R   0.035548 0.504941 0.960649 -0.093196
C12   C     C_R   0.964091 0.495405 0.039423 -0.105656
C13   C     C_R   0.410457 0.998279 0.868232 -0.013755
C14   C     C_R   0.589476 0.004200 0.132030 0.013678
C15   C     C_R   0.910992 0.490730 0.867783 -0.003129
C16   C     C_R   0.088626 0.509938 0.132134 -0.000617
C17   C     C_R   0.400488 0.998694 0.992724 0.316137
C18   C     C_R   0.599456 0.007070 0.007934 0.358109
C19   C     C_R   0.901089 0.488386 0.992023 0.341024
C20   C     C_R   0.098440 0.512581 0.008090 0.322702
C21   C     C_R   0.542673 0.002736 0.836198 0.019651
C22   C     C_R   0.457346 0.998377 0.163741 0.015936
C23   C     C_R   0.042246 0.506204 0.836455 0.001737
C24   C     C_R   0.957709 0.492899 0.163564 0.031931
C25   C     C_R   0.654828 0.159945 0.465417 -0.141944
C26   C     C_R   0.340807 0.843550 0.536737 -0.146734
C27   C     C_R   0.346005 0.160816 0.535681 -0.130230
C28   C     C_R   0.654063 0.839088 0.464970 -0.128567
C29   C     C_R   0.163619 0.651182 0.463158 -0.140617
C30   C     C_R   0.842888 0.342044 0.535672 -0.152440
C31   C     C_R   0.844800 0.659552 0.535124 -0.141091
C32   C     C_R   0.156840 0.341168 0.463343 -0.141876
C33   C     C_R   0.234569 0.776682 0.656402 -0.299964
C34   C     C_R   0.729380 0.257025 0.352073 -0.272117
C35   C     C_R   0.712423 0.728451 0.369722 -0.313060
C36   C     C_R   0.280382 0.265992 0.639452 -0.312661
C37   C     C_R   0.766512 0.246457 0.650100 -0.283758
C38   C     C_R   0.271945 0.715274 0.343757 -0.290651
C39   C     C_R   0.223625 0.236544 0.359655 -0.317913
C40   C     C_R   0.786123 0.769800 0.630802 -0.283851
C41   C     C_R   0.295473 0.823585 0.649895 0.443585
C42   C     C_R   0.676012 0.201999 0.360610 0.423850
C43   C     C_R   0.663066 0.787655 0.371722 0.449056
C44   C     C_R   0.333582 0.209580 0.633125 0.440406
C45   C     C_R   0.820523 0.300870 0.641311 0.437997
C46   C     C_R   0.218997 0.659084 0.354671 0.442948
C47   C     C_R   0.175312 0.296330 0.360675 0.451639
C48   C     C_R   0.835665 0.711357 0.627375 0.428874
C49   C     C_R   0.331315 0.808505 0.434644 -0.295222
C50   C     C_R   0.684730 0.175672 0.561643 -0.302086
C51   C     C_R   0.695195 0.832911 0.550163 -0.314203
C52   C     C_R   0.307930 0.169204 0.447129 -0.321496
C53   C     C_R   0.812279 0.327030 0.439875 -0.300106
C54   C     C_R   0.168040 0.692059 0.562531 -0.301692
C55   C     C_R   0.191558 0.330299 0.555720 -0.317924
C56   C     C_R   0.802912 0.664999 0.450906 -0.313830
C57   C     C_R   0.276008 0.755873 0.443460 0.110203
C58   C     C_R   0.736744 0.231293 0.553798 0.108986
C59   C     C_R   0.744714 0.775280 0.545912 0.111734
C60   C     C_R   0.257782 0.226206 0.452345 0.125957
C61   C     C_R   0.759584 0.271943 0.448093 0.104607
C62   C     C_R   0.225536 0.742085 0.554358 0.111867
C63   C     C_R   0.242945 0.274086 0.549836 0.125684
C64   C     C_R   0.753176 0.722643 0.455367 0.130232
Cu1   Cu    Cu3+1 0.507800 1.000000 0.383250 0.964870
Cu2   Cu    Cu3+1 0.492200 0.000000 0.616750 0.970370
Cu3   Cu    Cu3+1 0.007800 0.500000 0.383250 0.976426
Cu4   Cu    Cu3+1 0.992200 0.500000 0.616750 0.955233
H1    H     H_    0.638157 0.005465 0.167928 0.160478
H2    H     H_    0.361811 0.995372 0.832401 0.174636
H3    H     H_    0.136636 0.515274 0.168204 0.183800
H4    H     H_    0.862772 0.484063 0.831738 0.160203
H5    H     H_    0.402370 0.996158 0.225686 0.177037
H6    H     H_    0.597608 0.004306 0.774128 0.157271
H7    H     H_    0.903154 0.486029 0.225279 0.163524
H8    H     H_    0.096897 0.512017 0.774624 0.174812
H9    H     H_    0.668101 0.144111 0.642777 0.157731
H10   H     H_    0.368357 0.820686 0.348250 0.182696
H11   H     H_    0.318285 0.131724 0.372486 0.168006
H12   H     H_    0.688517 0.873247 0.620341 0.171984
H13   H     H_    0.127644 0.683767 0.647430 0.178621
H14   H     H_    0.829200 0.358453 0.358604 0.180614
H15   H     H_    0.809660 0.624553 0.380861 0.162845
H16   H     H_    0.179139 0.366330 0.632243 0.177242
H17   H     H_    0.748336 0.215955 0.731988 0.137086
H18   H     H_    0.311965 0.724805 0.259074 0.138343
H19   H     H_    0.235544 0.198209 0.286528 0.126025
H20   H     H_    0.781393 0.811739 0.697941 0.153458
H21   H     H_    0.196135 0.765051 0.741727 0.139741
H22   H     H_    0.746827 0.288072 0.270543 0.164735
H23   H     H_    0.718819 0.686144 0.303126 0.121219
H24   H     H_    0.269469 0.305512 0.710754 0.129047
N1    N     N_R   0.519530 0.000000 0.207810 -0.219008
N2    N     N_R   0.480470 0.000000 0.792190 -0.205010
N3    N     N_R   0.019530 0.500000 0.207810 -0.206097
N4    N     N_R   0.980470 0.500000 0.792190 -0.217923
O1    O     O_R   0.430030 0.075530 0.417420 -0.608648
O2    O     O_R   0.569970 0.924470 0.582580 -0.602258
O3    O     O_R   0.569970 0.075530 0.582580 -0.594732
O4    O     O_R   0.430030 0.924470 0.417420 -0.591008
O5    O     O_R   0.930030 0.575530 0.417420 -0.598693
O6    O     O_R   0.069970 0.424470 0.582580 -0.602880
O7    O     O_R   0.069970 0.575530 0.582580 -0.599871
O8    O     O_R   0.930030 0.424470 0.417420 -0.595043
O9    O     O_R   0.416860 0.075510 0.614610 -0.539792
O10   O     O_R   0.583140 0.924490 0.385390 -0.539268
O11   O     O_R   0.583140 0.075510 0.385390 -0.549518
O12   O     O_R   0.416860 0.924490 0.614610 -0.540981
O13   O     O_R   0.916860 0.575510 0.614610 -0.556370
O14   O     O_R   0.083140 0.424490 0.385390 -0.530272
O15   O     O_R   0.083140 0.575510 0.385390 -0.547006
O16   O     O_R   0.916860 0.424490 0.614610 -0.545617
O17   O     O_3   0.647612 0.187356 0.264146 -0.583922
C65   C     C_3   0.586626 0.234857 0.267570 0.090080
H25   H     H_    0.606453 0.292235 0.253041 0.138657
H26   H     H_    0.543216 0.230873 0.353985 0.137396
C66   C     C_3   0.549844 0.213928 0.169262 -0.779510
H27   H     H_    0.527832 0.157461 0.183118 0.258072
H28   H     H_    0.502382 0.251558 0.169927 0.194220
H29   H     H_    0.591464 0.217295 0.081533 0.241592
O18   O     O_3   0.309945 0.851062 0.752879 -0.566910
C67   C     C_3   0.325095 0.792554 0.822705 0.053827
H30   H     H_    0.363250 0.751135 0.767699 0.135350
H31   H     H_    0.271755 0.766135 0.871261 0.142452
C68   C     C_3   0.363465 0.820739 0.914697 -0.745110
H32   H     H_    0.326507 0.860927 0.973163 0.281390
H33   H     H_    0.374270 0.774825 0.970152 0.186158
H34   H     H_    0.418023 0.846263 0.870060 0.249910
O19   O     O_3   0.380651 0.204718 0.709824 -0.566490
C69   C     C_3   0.347507 0.231162 0.825416 0.068227
H35   H     H_    0.290247 0.207956 0.861277 0.126640
H36   H     H_    0.345280 0.291701 0.825883 0.150114
C70   C     C_3   0.396392 0.209138 0.906963 -0.803650
H37   H     H_    0.452562 0.235116 0.877240 0.253891
H38   H     H_    0.369448 0.226828 0.999313 0.179856
H39   H     H_    0.403915 0.149219 0.905328 0.242918
O20   O     O_3   0.617354 0.793659 0.293229 -0.567664
C71   C     C_3   0.651606 0.765907 0.178759 0.054311
H40   H     H_    0.645935 0.705627 0.178239 0.136305
H41   H     H_    0.712036 0.781619 0.148394 0.139624
C72   C     C_3   0.611360 0.796532 0.090517 -0.749755
H42   H     H_    0.617838 0.856543 0.085374 0.255170
H43   H     H_    0.636055 0.772993 0.001091 0.185575
H44   H     H_    0.550570 0.782878 0.118543 0.244057
O21   O     O_3   0.221864 0.610684 0.261825 -0.585136
C73   C     C_3   0.292314 0.574232 0.232658 0.041921
H45   H     H_    0.311640 0.559980 0.313209 0.138665
H46   H     H_    0.335450 0.608866 0.173062 0.149267
C74   C     C_3   0.286489 0.503388 0.167649 -0.817425
H47   H     H_    0.270686 0.514826 0.083729 0.264296
H48   H     H_    0.341695 0.474957 0.145689 0.203384
H49   H     H_    0.244014 0.467087 0.224824 0.252899
O22   O     O_3   0.848653 0.315812 0.738035 -0.565231
C75   C     C_3   0.905329 0.264377 0.741051 0.072253
H50   H     H_    0.948790 0.261942 0.654441 0.135137
H51   H     H_    0.880501 0.209274 0.763283 0.134839
C76   C     C_3   0.944196 0.286600 0.836211 -0.734367
H52   H     H_    0.902446 0.290805 0.923764 0.253005
H53   H     H_    0.987292 0.245288 0.842033 0.190006
H54   H     H_    0.972301 0.340080 0.813594 0.258908
O23   O     O_3   0.882780 0.710477 0.702870 -0.561184
C77   C     C_3   0.840572 0.694256 0.819322 0.084454
H55   H     H_    0.813892 0.639596 0.822350 0.127026
H56   H     H_    0.796293 0.736030 0.853424 0.128368
C78   C     C_3   0.892990 0.693529 0.901240 -0.786538
H57   H     H_    0.920805 0.747351 0.899088 0.253867
H58   H     H_    0.860460 0.682280 0.993666 0.171693
H59   H     H_    0.936749 0.650813 0.872575 0.252122
O24   O     O_3   0.141147 0.309663 0.268627 -0.561201
C79   C     C_3   0.186895 0.289263 0.155732 0.035158
H60   H     H_    0.178680 0.230540 0.139767 0.144874
H61   H     H_    0.247694 0.300460 0.146703 0.131958
C80   C     C_3   0.163752 0.332476 0.059726 -0.736484
H62   H     H_    0.180428 0.390134 0.064395 0.255981
H63   H     H_    0.192845 0.310598 0.970865 0.180555
H64   H     H_    0.101996 0.329086 0.071425 0.257830
O25   O     O_3   0.329429 0.990470 0.067806 -0.591443
C81   C     C_3   0.291022 0.057710 0.078148 0.028415
H65   H     H_    0.281031 0.074223 0.991537 0.149992
H66   H     H_    0.323017 0.101221 0.110672 0.133395
C82   C     C_3   0.215160 0.049556 0.167690 -0.768372
H67   H     H_    0.223382 0.036288 0.256498 0.244769
H68   H     H_    0.182776 0.101098 0.174043 0.187724
H69   H     H_    0.182477 0.005270 0.139404 0.260663
O26   O     O_3   0.671601 0.008970 0.934389 -0.597113
C83   C     C_3   0.691022 0.081608 0.898327 0.026238
H70   H     H_    0.641851 0.118391 0.902942 0.127843
H71   H     H_    0.723517 0.080349 0.803800 0.160120
C84   C     C_3   0.741095 0.113990 0.970997 -0.783816
H72   H     H_    0.792515 0.080182 0.960713 0.249846
H73   H     H_    0.757826 0.170182 0.940075 0.212491
H74   H     H_    0.710398 0.116135 0.066150 0.281940
O27   O     O_3   0.831090 0.472687 0.065383 -0.580655
C85   C     C_3   0.789806 0.538115 0.092283 0.035886
H75   H     H_    0.777615 0.561402 0.011010 0.136324
H76   H     H_    0.820646 0.578960 0.132694 0.129869
C86   C     C_3   0.715455 0.522194 0.181683 -0.794399
H77   H     H_    0.725944 0.500551 0.264988 0.242252
H78   H     H_    0.681689 0.572962 0.202273 0.186851
H79   H     H_    0.683128 0.481387 0.144630 0.254882
O28   O     O_3   0.170253 0.515167 0.934102 -0.603594
C87   C     C_3   0.189846 0.588484 0.906010 0.033983
H80   H     H_    0.201441 0.616685 0.984062 0.171255
H81   H     H_    0.144885 0.618651 0.877142 0.134706
C88   C     C_3   0.260532 0.589932 0.803937 -0.799096
H82   H     H_    0.250554 0.560325 0.726185 0.250849
H83   H     H_    0.275844 0.646895 0.777379 0.187792
H84   H     H_    0.307879 0.563714 0.831332 0.248170

loop_
_geom_bond_atom_site_label_1
_geom_bond_atom_site_label_2
_ccdc_geom_bond_type
C6    C32   S    
C78   H57   S    
C7    C29   S    
C84   H74   S    
O24   C79   S    
C14   C18   A    
C30   C45   A    
C85   H76   S    
C34   C42   A    
Cu4   O7    S    
C39   H19   S    
C23   H8    S    
C72   H43   S    
O23   C77   S    
C57   C62   A    
C80   H62   S    
C10   C22   A    
C15   C19   A    
C15   H4    S    
C4    O12   A    
C59   C64   A    
C76   H52   S    
C87   H81   S    
C38   H18   S    
C60   C63   A    
C37   H17   S    
Cu4   O6    S    
C20   O28   S    
O19   C69   S    
C74   H48   S    
C28   C51   A    
C82   H69   S    
C46   O21   S    
C13   H2    S    
C10   C17   A    
C73   C74   S    
C49   C57   A    
C49   H10   S    
C86   H78   S    
Cu4   O16   S    
C41   O18   S    
C84   H73   S    
C51   H12   S    
C21   N2    A    
C52   C60   A    
C25   C50   A    
C53   C61   A    
C27   C44   A    
C23   N4    A    
C33   C62   A    
C87   C88   S    
C55   C63   A    
C68   H34   S    
C56   C64   A    
C35   C64   A    
C31   C56   A    
C52   H11   S    
C35   C43   A    
C9    C10   A    
C32   C55   A    
C75   H51   S    
C37   C58   A    
Cu2   N2    S    
C36   H24   S    
C58   C61   A    
C80   H63   S    
C85   H75   S    
C76   H53   S    
C40   C59   A    
C7    O7    A    
Cu3   N3    S    
C6    O14   A    
C67   H31   S    
C84   H72   S    
C16   H3    S    
C47   O24   S    
Cu3   O8    S    
O21   C73   S    
C73   H46   S    
C82   H68   S    
C65   C66   S    
C30   C53   A    
C5    O5    A    
C11   C20   A    
C87   H80   S    
C73   H45   S    
Cu3   Cu4   S    
C50   C58   A    
C81   H65   S    
C3    C25   S    
C75   C76   S    
C26   C49   A    
C1    O1    A    
C15   N4    A    
C48   O23   S    
C54   C62   A    
C3    O11   A    
C44   O19   S    
C82   H67   S    
C21   H6    S    
C2    O10   A    
C34   C61   A    
C53   H14   S    
C77   H55   S    
Cu2   O3    S    
C86   H79   S    
C69   H36   S    
C34   H22   S    
C33   H21   S    
C70   H39   S    
C77   C78   S    
Cu3   O14   S    
C81   H66   S    
C16   C20   A    
O18   C67   S    
C13   N2    A    
C24   H7    S    
Cu4   N4    S    
C68   H33   S    
C8    O8    A    
C75   H50   S    
C71   H41   S    
O25   C81   S    
C28   C43   A    
C74   H49   S    
Cu3   O15   S    
C14   H1    S    
C19   O27   S    
C78   H59   S    
C31   C48   A    
C4    O4    A    
C70   H37   S    
C22   N1    A    
C66   H29   S    
C69   C70   S    
C51   C59   A    
Cu2   O9    S    
C37   C45   A    
C36   C63   A    
C50   H9    S    
Cu1   O10   S    
C42   O17   S    
C27   C52   A    
Cu3   O5    S    
C56   H15   S    
C39   C47   A    
O17   C65   S    
C88   H84   S    
C17   O25   S    
C40   C48   A    
C65   H26   S    
C88   H82   S    
C16   N3    A    
C14   N1    A    
Cu1   O4    S    
Cu2   O12   S    
C71   C72   S    
C25   C42   A    
C4    C26   S    
C11   C12   A    
C80   H64   S    
C65   H25   S    
C29   C54   A    
C72   H44   S    
C76   H54   S    
O20   C71   S    
C12   C24   A    
C18   O26   S    
C66   H27   S    
C55   H16   S    
O28   C87   S    
C13   C17   A    
C29   C46   A    
C33   C41   A    
Cu2   O2    S    
C67   C68   S    
C66   H28   S    
C69   H35   S    
C83   H70   S    
C8    C30   S    
Cu1   Cu2   S    
C77   H56   S    
C72   H42   S    
C24   N3    A    
C9    C21   A    
O26   C83   S    
C68   H32   S    
C38   C57   A    
C5    O13   A    
C83   C84   S    
C39   C60   A    
C12   C19   A    
C11   C23   A    
Cu1   N1    S    
C32   C47   A    
C8    O16   A    
C7    O15   A    
C43   O20   S    
Cu4   O13   S    
C6    O6    A    
C86   H77   S    
C38   C46   A    
C81   C82   S    
C36   C44   A    
C71   H40   S    
Cu1   O1    S    
C85   C86   S    
C3    O3    A    
C9    C18   A    
C45   O22   S    
C2    O2    A    
C78   H58   S    
O27   C85   S    
C79   H60   S    
C1    C27   S    
C70   H38   S    
C2    C28   S    
C79   H61   S    
C22   H5    S    
C5    C31   S    
C67   H30   S    
C74   H47   S    
C88   H83   S    
C83   H71   S    
Cu1   O11   S    
C54   H13   S    
C40   H20   S    
C26   C41   A    
C1    O9    A    
O22   C75   S    
C79   C80   S    
C35   H23   S    
