data_mof_unit_43513.cif
_audit_creation_date              2012-12-11T14:01:36-0500
_audit_creation_method            fapswitch 2.2
_symmetry_space_group_name_H-M    P1
_symmetry_Int_Tables_number       1
_space_group_crystal_system       triclinic
_cell_length_a                    19.015042
_cell_length_b                    10.976247
_cell_length_c                    18.742577
_cell_angle_alpha                 89.999915
_cell_angle_beta                  90.512615
_cell_angle_gamma                 89.999971
_cell_volume                      3911.677863

loop_
_atom_site_label
_atom_site_type_symbol
_atom_type_description
_atom_site_fract_x
_atom_site_fract_y
_atom_site_fract_z
_atom_type_partial_charge
C1    C     C_R   0.272600 0.042450 0.853480 0.555741
C2    C     C_R   0.008295 0.665445 0.963760 -0.124897
C3    C     C_R   0.491720 0.165448 0.036236 -0.124896
C4    C     C_R   0.507625 0.165556 0.963957 -0.124816
C5    C     C_2   0.249587 0.579590 0.920525 -0.112918
C6    C     C_2   0.750407 0.579604 0.079469 -0.112620
C7    C     C_2   0.749593 0.079603 0.920531 -0.112620
C8    C     C_2   0.250413 0.079590 0.079475 -0.112918
C9    C     C_2   0.249730 0.587464 0.077294 -0.106864
C10   C     C_2   0.750265 0.587475 0.922701 -0.106464
C11   C     C_2   0.749735 0.087475 0.077299 -0.106464
C12   C     C_R   0.727401 0.042453 0.146521 0.554352
C13   C     C_2   0.250269 0.087463 0.922705 -0.106863
C14   C     C_2   0.295637 0.523520 0.038160 -0.165207
C15   C     C_2   0.704355 0.523537 0.961835 -0.165004
C16   C     C_2   0.795645 0.023537 0.038165 -0.165005
C17   C     C_2   0.204363 0.023520 0.961840 -0.165206
C18   C     C_2   0.304560 0.548271 0.962094 -0.161540
C19   C     C_2   0.695434 0.548287 0.037901 -0.161650
C20   C     C_2   0.804566 0.048287 0.962099 -0.161650
C21   C     C_2   0.195440 0.048271 0.037906 -0.161540
C22   C     C_2   0.492387 0.828128 0.573528 0.325621
C23   C     C_R   0.772599 0.542453 0.853479 0.554352
C24   C     C_2   0.482088 0.840784 0.411527 0.305777
C25   C     C_2   0.017911 0.340785 0.588472 0.305775
C26   C     C_2   0.007612 0.328126 0.426472 0.325626
C27   C     C_2   0.471398 0.745207 0.453969 -0.113375
C28   C     C_2   0.452664 0.761548 0.527949 -0.078966
C29   C     C_2   0.047337 0.261551 0.472051 -0.078966
C30   C     C_2   0.028603 0.245208 0.546031 -0.113379
C31   C     C_2   0.254917 0.614396 0.569011 -0.155977
C32   C     C_2   0.744116 0.615573 0.431277 -0.136949
C33   C     C_2   0.755884 0.115573 0.568723 -0.136952
C34   C     C_R   0.227400 0.542450 0.146519 0.555741
C35   C     C_2   0.245084 0.114395 0.430988 -0.155973
C36   C     C_2   0.258076 0.604571 0.414229 -0.064556
C37   C     C_2   0.741948 0.606040 0.586185 -0.064572
C38   C     C_2   0.758051 0.106040 0.413815 -0.064572
C39   C     C_2   0.241924 0.104571 0.585770 -0.064556
C40   C     C_R   0.471976 0.822228 0.852958 0.534169
C41   C     C_R   0.528022 0.822210 0.147045 0.528341
C42   C     C_R   0.971977 0.322209 0.852956 0.528339
C43   C     C_R   0.028023 0.322228 0.147043 0.534170
C44   C     C_2   0.223885 0.692007 0.449327 0.246894
C45   C     C_R   0.486048 0.055468 0.072964 -0.084679
C46   C     C_2   0.777266 0.691673 0.550559 0.246307
C47   C     C_2   0.722734 0.191673 0.449441 0.246305
C48   C     C_2   0.276115 0.192006 0.550672 0.246894
C49   C     C_2   0.241363 0.709175 0.525187 -0.171155
C50   C     C_2   0.759639 0.709638 0.474855 -0.148755
C51   C     C_2   0.740361 0.209638 0.525145 -0.148755
C52   C     C_2   0.258636 0.209175 0.474813 -0.171157
C53   C     C_R   0.261090 0.635988 0.851378 0.554256
C54   C     C_R   0.738908 0.635996 0.148618 0.553570
C55   C     C_R   0.761092 0.135995 0.851382 0.553569
C56   C     C_R   0.513532 0.055672 0.927168 -0.084701
C57   C     C_R   0.238910 0.135988 0.148622 0.554257
C58   C     C_R   0.270699 0.048701 0.649672 0.568693
C59   C     C_R   0.729300 0.048925 0.350245 0.570187
C60   C     C_R   0.770700 0.548925 0.649755 0.570188
C61   C     C_R   0.229301 0.548701 0.350328 0.568691
C62   C     C_R   0.469873 0.823377 0.647548 0.513253
C63   C     C_R   0.526850 0.824695 0.349749 0.552486
C64   C     C_R   0.973150 0.324696 0.650250 0.552493
C65   C     C_R   0.030126 0.323377 0.352452 0.513252
C66   C     C_R   0.261377 0.641278 0.644080 0.548398
C67   C     C_R   0.986476 0.555677 0.072830 -0.084697
C68   C     C_R   0.738374 0.641896 0.356131 0.553988
C69   C     C_R   0.761625 0.141896 0.643869 0.553989
C70   C     C_R   0.238623 0.141277 0.355920 0.548396
C71   C     C_R   0.499601 0.830442 0.074559 0.001609
C72   C     C_R   0.500411 0.830536 0.925439 -0.000142
C73   C     C_R   0.999585 0.330538 0.074562 -0.000144
C74   C     C_R   0.000395 0.330439 0.925443 0.001612
C75   C     C_R   0.496184 0.943131 0.037546 0.026529
C76   C     C_R   0.503610 0.943207 0.962514 0.025763
C77   C     C_R   0.996392 0.443209 0.037486 0.025764
C78   C     C_R   0.013961 0.555463 0.927035 -0.084683
C79   C     C_R   0.003818 0.443129 0.962454 0.026527
C80   C     C_R   0.501508 0.721010 0.963576 -0.152878
C81   C     C_R   0.498728 0.720956 0.036368 -0.152201
C82   C     C_R   0.001259 0.220954 0.963635 -0.152198
C83   C     C_R   0.998479 0.221012 0.036428 -0.152880
C84   C     C_3   0.120447 0.804690 0.456964 -0.099263
C85   C     C_3   0.883834 0.794551 0.541034 -0.092219
C86   C     C_3   0.616165 0.294550 0.458966 -0.092221
C87   C     C_3   0.379553 0.304686 0.543034 -0.099263
C88   C     C_3   0.409740 0.000810 0.389633 -0.112707
C89   C     C_R   0.992390 0.665559 0.036039 -0.124814
C90   C     C_3   0.598496 0.919850 0.604316 -0.108864
C91   C     C_3   0.901500 0.419838 0.395680 -0.108861
C92   C     C_3   0.090264 0.500805 0.610358 -0.112708
Cr1   Cr    Cr6+3 0.230530 0.836340 0.748870 1.001073
Cr2   Cr    Cr6+3 0.614360 0.677860 0.250770 1.025227
Cr3   Cr    Cr6+3 0.885640 0.177860 0.749230 1.025228
Cr4   Cr    Cr6+3 0.114360 0.177860 0.250770 1.021783
Cr5   Cr    Cr6+3 0.769470 0.836340 0.251130 1.008148
Cr6   Cr    Cr6+3 0.730530 0.336340 0.748870 1.008148
Cr7   Cr    Cr6+3 0.269470 0.336340 0.251130 1.001071
Cr8   Cr    Cr6+3 0.387420 0.989430 0.750820 1.038696
Cr9   Cr    Cr6+3 0.612580 0.989430 0.249180 1.046109
Cr10  Cr    Cr6+3 0.887420 0.489430 0.750820 1.046115
Cr11  Cr    Cr6+3 0.112580 0.489430 0.249180 1.038694
Cr12  Cr    Cr6+3 0.385640 0.677860 0.749230 1.021783
H1    H     H_    0.500379 0.633182 0.937155 0.136806
H2    H     H_    0.695774 0.563170 0.562448 0.044317
H3    H     H_    0.804225 0.063170 0.437552 0.044320
H4    H     H_    0.196739 0.059560 0.561430 0.032839
H5    H     H_    0.259579 0.521129 0.550403 0.102328
H6    H     H_    0.736028 0.523273 0.450306 0.093561
H7    H     H_    0.763972 0.023273 0.549694 0.093562
H8    H     H_    0.240422 0.021128 0.449596 0.102331
H9    H     H_    0.472246 0.059334 0.128767 0.124202
H10   H     H_    0.527354 0.059731 0.871378 0.126346
H11   H     H_    0.972654 0.559741 0.128620 0.126348
H12   H     H_    0.500031 0.633094 0.062743 0.136804
H13   H     H_    0.027762 0.559324 0.871231 0.124202
H14   H     H_    0.985599 0.751056 0.063938 0.107705
H15   H     H_    0.015266 0.750848 0.935810 0.107336
H16   H     H_    0.484754 0.250853 0.064185 0.107334
H17   H     H_    0.514420 0.251051 0.936057 0.107707
H18   H     H_    0.326168 0.449614 0.061391 0.152868
H19   H     H_    0.673823 0.449632 0.938604 0.152921
H20   H     H_    0.826177 0.949632 0.061396 0.152921
H21   H     H_    0.173832 0.949613 0.938609 0.152868
H22   H     H_    0.357507 0.543866 0.940941 0.152999
H23   H     H_    0.999950 0.133091 0.937262 0.136804
H24   H     H_    0.642488 0.543878 0.059055 0.152958
H25   H     H_    0.857512 0.043879 0.940945 0.152955
H26   H     H_    0.142493 0.043866 0.059059 0.153002
H27   H     H_    0.221081 0.663708 0.054105 0.114275
H28   H     H_    0.778914 0.663720 0.945889 0.114200
H29   H     H_    0.721085 0.163720 0.054111 0.114200
H30   H     H_    0.278919 0.163708 0.945894 0.114275
H31   H     H_    0.196566 0.580672 0.941758 0.111550
H32   H     H_    0.803428 0.580687 0.058234 0.111705
H33   H     H_    0.696572 0.080686 0.941766 0.111706
H34   H     H_    0.999602 0.133185 0.062850 0.136806
H35   H     H_    0.303434 0.080672 0.058242 0.111549
H36   H     H_    0.482219 0.652682 0.436630 0.090648
H37   H     H_    0.409222 0.706172 0.546920 0.094079
H38   H     H_    0.090782 0.206181 0.453080 0.094077
H39   H     H_    0.017784 0.152683 0.563370 0.090649
H40   H     H_    0.138115 0.879084 0.493029 0.093702
H41   H     H_    0.097509 0.727820 0.487694 0.137217
H42   H     H_    0.077897 0.842383 0.422638 0.140387
H43   H     H_    0.868524 0.871531 0.505713 0.096485
H44   H     H_    0.902986 0.715592 0.509284 0.150549
H45   H     H_    0.237627 0.800945 0.546663 0.143973
H46   H     H_    0.928459 0.826264 0.574732 0.139178
H47   H     H_    0.631476 0.371531 0.494287 0.096486
H48   H     H_    0.597015 0.215592 0.490717 0.150548
H49   H     H_    0.571540 0.326264 0.425268 0.139177
H50   H     H_    0.361886 0.379079 0.506967 0.093701
H51   H     H_    0.402492 0.227814 0.512306 0.137222
H52   H     H_    0.422104 0.342380 0.577360 0.140386
H53   H     H_    0.362123 0.942304 0.393938 0.107996
H54   H     H_    0.426210 0.008153 0.332991 0.117353
H55   H     H_    0.395511 0.093656 0.407587 0.153221
H56   H     H_    0.765855 0.800844 0.453160 0.144551
H57   H     H_    0.613756 0.835617 0.633744 0.100206
H58   H     H_    0.577769 0.990223 0.641220 0.134212
H59   H     H_    0.646755 0.956525 0.579954 0.144739
H60   H     H_    0.886248 0.335607 0.366246 0.100204
H61   H     H_    0.922226 0.490223 0.358782 0.134214
H62   H     H_    0.853238 0.456497 0.420042 0.144739
H63   H     H_    0.137879 0.442303 0.606038 0.108002
H64   H     H_    0.073805 0.508134 0.667003 0.117345
H65   H     H_    0.104488 0.593656 0.592408 0.153220
H66   H     H_    0.734145 0.300844 0.546840 0.144551
H67   H     H_    0.262371 0.300945 0.453336 0.143972
H68   H     H_    0.303261 0.559560 0.438570 0.032841
O1    O     O_R   0.215090 0.709860 0.828130 -0.522827
O2    O     O_R   0.543740 0.718170 0.330000 -0.549019
O3    O     O_R   0.956260 0.218170 0.670000 -0.549019
O4    O     O_R   0.043740 0.218170 0.330000 -0.546728
O5    O     O_R   0.320940 0.626760 0.674370 -0.482588
O6    O     O_R   0.679060 0.626760 0.325630 -0.476207
O7    O     O_R   0.820940 0.126760 0.674370 -0.476206
O8    O     O_R   0.179060 0.126760 0.325630 -0.482588
O9    O     O_3   0.334530 0.834540 0.749640 -0.250413
O10   O     O_3   0.665470 0.834540 0.250360 -0.251784
O11   O     O_3   0.834530 0.334540 0.749640 -0.251786
O12   O     O_R   0.784910 0.709860 0.171870 -0.522325
O13   O     O_3   0.165470 0.334540 0.250360 -0.250412
O14   O     O_R   0.236990 0.958390 0.823710 -0.499868
O15   O     O_R   0.763010 0.958390 0.176290 -0.500582
O16   O     O_R   0.736990 0.458390 0.823710 -0.500583
O17   O     O_R   0.263010 0.458390 0.176290 -0.499868
O18   O     O_R   0.332380 0.074750 0.830850 -0.509876
O19   O     O_R   0.667620 0.074750 0.169150 -0.511641
O20   O     O_R   0.832380 0.574750 0.830850 -0.511641
O21   O     O_R   0.167620 0.574750 0.169150 -0.509875
O22   O     O_R   0.445800 0.917770 0.825070 -0.509090
O23   O     O_R   0.715090 0.209860 0.828130 -0.522325
O24   O     O_R   0.554200 0.917770 0.174930 -0.514409
O25   O     O_R   0.945800 0.417770 0.825070 -0.514407
O26   O     O_R   0.054200 0.417770 0.174930 -0.509091
O27   O     O_R   0.456410 0.716580 0.829970 -0.523375
O28   O     O_R   0.543590 0.716580 0.170030 -0.527039
O29   O     O_R   0.956410 0.216580 0.829970 -0.527040
O30   O     O_R   0.043590 0.216580 0.170030 -0.523375
O31   O     O_R   0.321080 0.625290 0.822650 -0.491221
O32   O     O_R   0.678920 0.625290 0.177350 -0.492810
O33   O     O_R   0.821080 0.125290 0.822650 -0.492810
O34   O     O_R   0.284910 0.209860 0.171870 -0.522827
O35   O     O_R   0.178920 0.125290 0.177350 -0.491221
O36   O     O_R   0.214930 0.711450 0.668160 -0.530754
O37   O     O_R   0.785070 0.711450 0.331840 -0.524634
O38   O     O_R   0.714930 0.211450 0.668160 -0.524635
O39   O     O_R   0.285070 0.211450 0.331840 -0.530756
O40   O     O_R   0.236850 0.959870 0.675420 -0.527303
O41   O     O_R   0.763150 0.959870 0.324580 -0.526882
O42   O     O_R   0.736850 0.459870 0.675420 -0.526882
O43   O     O_R   0.263150 0.459870 0.324580 -0.527303
O44   O     O_R   0.332230 0.076350 0.670880 -0.447679
O45   O     O_R   0.445660 0.919250 0.676780 -0.500468
O46   O     O_R   0.667770 0.076350 0.329120 -0.440854
O47   O     O_R   0.832230 0.576350 0.670880 -0.440854
O48   O     O_R   0.167770 0.576350 0.329120 -0.447679
O49   O     O_3   0.175712 0.765640 0.412722 -0.539713
O50   O     O_3   0.827821 0.761921 0.586126 -0.540777
O51   O     O_3   0.672179 0.261920 0.413874 -0.540778
O52   O     O_3   0.324288 0.265639 0.587277 -0.539713
O53   O     O_3   0.464475 0.957231 0.433847 -0.528190
O54   O     O_3   0.549748 0.895053 0.549139 -0.540964
O55   O     O_3   0.950247 0.395041 0.450860 -0.540969
O56   O     O_R   0.554340 0.919250 0.323220 -0.477229
O57   O     O_3   0.035521 0.457233 0.566152 -0.528193
O58   O     O_R   0.945660 0.419250 0.676780 -0.477223
O59   O     O_R   0.054340 0.419250 0.323220 -0.500471
O60   O     O_R   0.456260 0.718170 0.670000 -0.546729

loop_
_geom_bond_atom_site_label_1
_geom_bond_atom_site_label_2
_ccdc_geom_bond_type
C44   C49   S    
C43   C73   S    
C31   C66   S    
C55   O23   A    
Cr3   O33   S    
C14   H18   S    
C28   H37   S    
C13   H30   S    
C14   C18   S    
C91   H62   S    
Cr11  O13   S    
C61   O48   A    
C7    C55   S    
C20   H25   S    
C75   C76   A    
Cr5   O37   S    
Cr3   O11   S    
C53   O1    A    
Cr5   O10   S    
Cr7   O39   S    
C84   H41   S    
C15   C19   S    
C6    C19   D    
Cr6   O38   S    
C25   O57   S    
C53   O31   A    
C32   H6    S    
C90   H58   S    
C8    H35   S    
C56   C76   A    
Cr10  O11   S    
C92   O57   S    
C5    C53   S    
C86   H49   S    
C31   C49   D    
C84   O49   S    
C41   O24   A    
C10   C15   D    
C11   H29   S    
C23   O16   A    
Cr12  O60   S    
C84   H40   S    
Cr9   O10   S    
C19   H24   S    
C67   C89   A    
Cr5   O15   S    
Cr2   O6    S    
C88   H55   S    
C70   O8    A    
Cr6   O11   S    
C67   H11   S    
C85   H46   S    
Cr3   O3    S    
C43   O30   A    
Cr1   O9    S    
Cr9   O46   S    
C88   O53   S    
C35   C70   S    
C67   C77   A    
C4    H17   S    
Cr10  O20   S    
C24   C27   D    
C33   H7    S    
C88   H54   S    
C40   C72   S    
C85   O50   S    
C92   H65   S    
Cr2   O28   S    
Cr9   O24   S    
C33   C69   S    
Cr11  O48   S    
C32   C68   S    
C1    O18   A    
C77   C79   A    
Cr12  O9    S    
Cr6   O42   S    
Cr5   O41   S    
C4    C56   A    
C70   O39   A    
C63   O2    A    
C6    C54   S    
C41   O28   A    
C68   O37   A    
C52   H67   S    
C22   C28   D    
C23   O20   A    
Cr1   O1    S    
C90   O54   S    
C69   O7    A    
C6    H32   S    
C9    H27   S    
Cr11  O59   S    
C39   H4    S    
C55   O33   A    
C66   O5    A    
C36   H68   S    
C42   C74   S    
C65   O59   A    
C90   H57   S    
Cr12  O31   S    
C78   H13   S    
C60   O47   A    
C7    H33   S    
C78   C79   A    
Cr4   O35   S    
C40   O22   A    
C5    C18   D    
C48   O52   S    
C50   H56   S    
C1    O14   A    
C39   C58   S    
C57   O34   A    
C3    C45   A    
C17   C21   S    
C33   C51   D    
Cr11  O26   S    
C49   H45   S    
Cr1   O36   S    
C2    C89   A    
C9    C14   D    
C62   O45   A    
C29   C30   S    
C2    C78   A    
C86   H48   S    
C8    C57   S    
C22   C62   S    
C66   O36   A    
C11   C16   D    
C92   H64   S    
Cr12  O5    S    
C26   O55   S    
C16   C20   S    
Cr1   O40   S    
C8    C21   D    
C31   H5    S    
C87   H50   S    
C42   O25   A    
C72   C76   A    
C88   H53   S    
Cr4   O8    S    
C64   O3    A    
Cr8   O9    S    
C32   C50   D    
C38   C47   D    
C15   H19   S    
Cr10  O47   S    
Cr2   O2    S    
C24   O53   S    
C34   O21   A    
Cr3   O7    S    
C58   O40   A    
C38   H3    S    
Cr8   O45   S    
C7    C20   D    
C24   C63   S    
Cr8   O22   S    
C74   C79   A    
Cr9   O56   S    
C65   O4    A    
C9    C34   S    
Cr12  O27   S    
C54   O12   A    
C91   H60   S    
Cr10  O25   S    
C1    C13   S    
C86   O51   S    
C3    C4    A    
C34   O17   A    
C21   H26   S    
Cr7   O34   S    
Cr7   O13   S    
C85   H44   S    
Cr5   O12   S    
Cr7   O17   S    
C74   C82   A    
C25   C30   D    
C5    H31   S    
C12   O19   A    
C47   O51   S    
C64   O58   A    
Cr8   O44   S    
C73   C77   A    
Cr4   O4    S    
C91   O55   S    
C26   C65   S    
Cr4   O13   S    
C91   H61   S    
C51   H66   S    
Cr8   O18   S    
C85   H43   S    
C35   C52   D    
C80   C81   A    
Cr9   O19   S    
C59   O46   A    
C47   C51   S    
C2    H15   S    
C59   O41   A    
Cr4   O30   S    
C63   O56   A    
C22   O54   S    
C40   O27   A    
C84   H42   S    
C10   C23   S    
Cr3   O29   S    
Cr2   O10   S    
C46   C50   S    
C62   O60   A    
C27   H36   S    
C46   O50   S    
C13   C17   D    
C90   H59   S    
C45   C75   A    
C87   O52   S    
C16   H20   S    
C37   H2    S    
C72   C80   A    
C86   H47   S    
Cr1   O14   S    
C71   C75   A    
C12   O15   A    
C92   H63   S    
C17   H21   S    
Cr7   O43   S    
C41   C71   S    
C54   O32   A    
C29   H38   S    
C80   H1    S    
C81   H12   S    
C68   O6    A    
C73   C83   A    
Cr6   O23   S    
C43   O26   A    
C87   H51   S    
C10   H28   S    
C82   H23   S    
C37   C60   S    
C36   C44   D    
C3    H16   S    
C30   H39   S    
C38   C59   S    
C69   O38   A    
C45   H9    S    
C48   C52   S    
Cr2   O32   S    
C89   H14   S    
C26   C29   D    
C82   C83   A    
C27   C28   S    
Cr10  O58   S    
C56   H10   S    
C87   H52   S    
C42   O29   A    
C60   O42   A    
C44   O49   S    
C61   O43   A    
C37   C46   D    
C57   O35   A    
Cr6   O16   S    
C25   C64   S    
C83   H34   S    
C18   H22   S    
C35   H8    S    
C36   C61   S    
C11   C12   S    
Cr11  O21   S    
C39   C48   D    
C71   C81   A    
C58   O44   A    
