data_mof_unit_7991.cif
_audit_creation_date              2012-12-10T17:20:51-0500
_audit_creation_method            fapswitch 2.2
_symmetry_space_group_name_H-M    P1
_symmetry_Int_Tables_number       1
_space_group_crystal_system       triclinic
_cell_length_a                    14.343508
_cell_length_b                    10.835933
_cell_length_c                    9.579167
_cell_angle_alpha                 90.191947
_cell_angle_beta                  90.124532
_cell_angle_gamma                 91.874622
_cell_volume                      1488.03576743

loop_
_atom_site_label
_atom_site_type_symbol
_atom_type_description
_atom_site_fract_x
_atom_site_fract_y
_atom_site_fract_z
_atom_type_partial_charge
C1    C     C_R   0.508437 0.262930 0.500296 0.862779
C2    C     C_1   0.771227 0.502570 0.500197 -0.073073
C3    C     C_R   0.567018 0.113005 0.754220 0.385947
C4    C     C_R   0.541528 0.059886 0.882170 -0.166300
C5    C     C_R   0.485500 0.952792 0.885351 -0.228799
C6    C     C_R   0.463752 0.890811 0.761168 -0.155022
C7    C     C_R   0.493238 0.940222 0.631356 0.051766
C8    C     C_R   0.528000 0.063033 0.628827 -0.041605
C9    C     C_R   0.520207 0.128957 0.501687 -0.102090
C10   C     C_R   0.508012 0.063760 0.376099 -0.176970
C11   C     C_R   0.498497 0.936365 0.376959 -0.139066
C12   C     C_R   0.331126 0.499732 0.499901 0.799323
C13   C     C_R   0.490700 0.872798 0.503829 -0.087505
C14   C     C_R   0.619635 0.668375 0.144915 -0.252201
C15   C     C_R   0.674723 0.755248 0.073641 0.419715
C16   C     C_R   0.675354 0.753826 0.929554 -0.252082
C17   C     C_R   0.620196 0.667728 0.856970 -0.204857
C18   C     C_R   0.558691 0.582882 0.925619 0.237787
C19   C     C_R   0.558633 0.582910 0.075193 0.146865
C20   C     C_R   0.444525 0.420759 0.073455 -0.044411
C21   C     C_R   0.444487 0.420859 0.925468 -0.025343
C22   C     C_R   0.494318 0.737760 0.500851 0.789809
C23   C     C_R   0.668879 0.501647 0.500069 0.867280
C24   C     C_1   0.228782 0.500355 0.499694 -0.184308
C25   C     C_1   0.143365 0.500991 0.499722 0.011707
C26   C     C_1   0.042705 0.501746 0.499872 0.038070
C27   C     C_1   0.957289 0.502285 0.500025 0.048261
C28   C     C_1   0.856638 0.502666 0.500168 0.058879
Cu1   Cu    Cu3+1 0.499990 0.499990 0.640660 0.983042
Cu2   Cu    Cu3+1 0.500010 0.500010 0.359340 0.957157
H1    H     H_    0.505530 0.111042 0.276750 0.166133
H2    H     H_    0.719571 0.819086 0.872640 0.210123
H3    H     H_    0.629240 0.672466 0.747289 0.214195
H4    H     H_    0.399149 0.355889 0.869691 0.130068
H5    H     H_    0.568462 0.098436 0.979198 0.194640
H6    H     H_    0.464490 0.913046 0.984417 0.157007
H7    H     H_    0.421815 0.806477 0.768450 0.173123
H8    H     H_    0.495298 0.888021 0.277790 0.163685
H9    H     H_    0.399133 0.355812 0.128384 0.132049
H10   H     H_    0.628288 0.671416 0.254413 0.240310
N1    N     N_R   0.500820 0.501210 0.147910 -0.177040
N2    N     N_R   0.500850 0.501290 0.852040 -0.170129
O1    O     O_R   0.499990 0.319640 0.618810 -0.553492
O2    O     O_R   0.500000 0.319660 0.381240 -0.584276
O3    O     O_R   0.376050 0.499990 0.618810 -0.570530
O4    O     O_R   0.376060 0.500010 0.381240 -0.560102
O5    O     O_R   0.500000 0.680340 0.618760 -0.618137
O6    O     O_R   0.500010 0.680360 0.381190 -0.596537
O7    O     O_R   0.623940 0.499990 0.618760 -0.524342
O8    O     O_R   0.623950 0.500010 0.381190 -0.578373
S1    S     S_3+6 0.670078 0.207208 0.753566 0.026450
O9    O     O_2   0.744873 0.142069 0.831751 -0.238599
O10   O     O_2   0.652951 0.326605 0.827468 -0.247794
O11   O     O_3   0.707734 0.235270 0.590329 -0.558670
H11   H     H_    0.728785 0.154738 0.555247 0.349886
S2    S     S_3+6 0.744739 0.865153 0.165228 0.005021
O12   O     O_2   0.845590 0.836910 0.143950 -0.248392
O13   O     O_2   0.727088 0.991475 0.108633 -0.262504
O14   O     O_3   0.720124 0.861736 0.336895 -0.577615
H12   H     H_    0.750776 0.937491 0.376008 0.379086

loop_
_geom_bond_atom_site_label_1
_geom_bond_atom_site_label_2
_ccdc_geom_bond_type
C11   H8    S    
C22   O6    A    
C24   C25   T    
Cu2   N1    S    
Cu1   Cu2   S    
Cu1   N2    S    
C16   H2    S    
C9    C10   A    
C12   C24   S    
C1    O2    A    
S2    O14   S    
C7    C13   A    
S1    O11   S    
C15   S2    S    
C17   C18   A    
Cu2   O8    S    
C6    H7    S    
O14   H12   S    
Cu1   O7    S    
Cu1   O1    S    
C11   C13   A    
Cu2   O2    S    
C26   C27   T    
C6    C7    A    
C17   H3    S    
Cu1   O5    S    
C4    C5    A    
C10   H1    S    
Cu2   O6    S    
S2    O13   D    
C13   C22   S    
C20   N1    A    
C4    H5    S    
C18   N2    A    
C3    C8    A    
C5    C6    A    
C22   O5    A    
C23   O7    A    
C16   C17   A    
C10   C11   A    
C14   H10   S    
S1    O9    D    
C5    H6    S    
C19   N1    A    
C7    C8    A    
C1    C9    S    
C20   C21   A    
C12   O4    A    
C18   C19   A    
C2    C23   S    
S2    O12   D    
C20   H9    S    
C3    S1    S    
C14   C15   A    
C12   O3    A    
C23   O8    A    
C2    C28   T    
C21   H4    S    
S1    O10   D    
C25   C26   S    
O11   H11   S    
C14   C19   A    
C1    O1    A    
C21   N2    A    
C3    C4    A    
C15   C16   A    
Cu1   O3    S    
C8    C9    A    
C27   C28   S    
Cu2   O4    S    
