data_mof_unit_7251.cif
_audit_creation_date              2012-12-10T20:39:11-0500
_audit_creation_method            fapswitch 2.2
_symmetry_space_group_name_H-M    P1
_symmetry_Int_Tables_number       1
_space_group_crystal_system       triclinic
_cell_length_a                    19.238861
_cell_length_b                    10.685084
_cell_length_c                    9.854499
_cell_angle_alpha                 89.64931
_cell_angle_beta                  90.368082
_cell_angle_gamma                 90.106243
_cell_volume                      2025.69490159

loop_
_atom_site_label
_atom_site_type_symbol
_atom_type_description
_atom_site_fract_x
_atom_site_fract_y
_atom_site_fract_z
_atom_type_partial_charge
C1    C     C_R   0.502302 0.259812 0.500274 0.885520
C2    C     C_R   0.289904 0.498164 0.497653 -0.047844
C3    C     C_R   0.929921 0.507781 0.503884 0.281205
C4    C     C_R   0.069636 0.496840 0.496620 0.274521
C5    C     C_R   0.818314 0.477918 0.622748 -0.164964
C6    C     C_R   0.746284 0.475739 0.621705 -0.199720
C7    C     C_R   0.709823 0.503364 0.501682 -0.025779
C8    C     C_R   0.745884 0.534709 0.383199 -0.197090
C9    C     C_R   0.817868 0.538147 0.384613 -0.164273
C10   C     C_R   0.854396 0.508988 0.504155 0.092826
C11   C     C_R   0.518011 0.062700 0.622560 0.140985
C12   C     C_R   0.365524 0.500031 0.499539 0.870921
C13   C     C_R   0.514094 0.128434 0.500344 -0.107686
C14   C     C_R   0.524337 0.065486 0.377410 -0.223742
C15   C     C_R   0.524536 0.936044 0.376953 -0.225743
C16   C     C_R   0.514490 0.871230 0.499417 -0.107899
C17   C     C_R   0.518179 0.934940 0.621997 0.136005
C18   C     C_3   0.472793 0.925817 0.744111 -0.468698
C19   C     C_3   0.472492 0.067528 0.744718 -0.502811
C20   C     C_R   0.440281 0.475773 0.070816 0.216472
C21   C     C_R   0.557331 0.535317 0.072389 -0.138647
C22   C     C_R   0.557362 0.535177 0.928442 -0.141495
C23   C     C_R   0.502513 0.740047 0.499631 0.883351
C24   C     C_R   0.440155 0.476478 0.928170 0.218599
C25   C     C_3   0.397823 0.359737 0.922696 -0.515625
C26   C     C_3   0.398488 0.358351 0.076623 -0.503876
C27   C     C_R   0.634388 0.500595 0.500410 0.858308
C28   C     C_R   0.253024 0.497814 0.619433 -0.201027
C29   C     C_R   0.181153 0.494121 0.617069 -0.181839
C30   C     C_R   0.145121 0.491208 0.493194 0.045387
C31   C     C_R   0.181926 0.489032 0.369450 0.021541
C32   C     C_R   0.254228 0.494442 0.373353 -0.241550
H1    H     H_    0.279520 0.501557 0.716527 0.151509
H2    H     H_    0.527270 0.887942 0.280681 0.172191
H3    H     H_    0.420985 0.884268 0.721380 0.205153
H4    H     H_    0.500513 0.884181 0.832792 0.205277
H5    H     H_    0.420447 0.108041 0.722108 0.203497
H6    H     H_    0.500142 0.107340 0.833985 0.203689
H7    H     H_    0.603955 0.562087 0.126763 0.146373
H8    H     H_    0.604016 0.561684 0.874776 0.149988
H9    H     H_    0.345291 0.376002 0.878781 0.198758
H10   H     H_    0.426679 0.280855 0.877871 0.214182
H11   H     H_    0.346230 0.373294 0.120666 0.198594
H12   H     H_    0.153579 0.496355 0.712371 0.144385
H13   H     H_    0.428007 0.278454 0.121057 0.214651
H14   H     H_    0.282563 0.493589 0.278824 0.151335
H15   H     H_    0.845663 0.455648 0.716207 0.145577
H16   H     H_    0.719248 0.451299 0.714277 0.150776
H17   H     H_    0.718563 0.557123 0.289744 0.145335
H18   H     H_    0.844835 0.561633 0.291707 0.148217
H19   H     H_    0.526998 0.114986 0.281301 0.170879
N1    N     N_R   0.034133 0.563099 0.401416 -0.154043
N2    N     N_R   0.965320 0.567879 0.404500 -0.175812
N3    N     N_R   0.965541 0.443597 0.600745 -0.189104
N4    N     N_R   0.034378 0.438328 0.597252 -0.195988
N5    N     N_R   0.499530 0.499140 0.142800 -0.107331
N6    N     N_R   0.499530 0.499180 0.857150 -0.106692
O1    O     O_R   0.500010 0.316790 0.614690 -0.613857
O2    O     O_R   0.500000 0.316760 0.385350 -0.621486
O3    O     O_R   0.398140 0.500000 0.614710 -0.621615
O4    O     O_R   0.398130 0.499970 0.385370 -0.619019
O5    O     O_R   0.500000 0.683240 0.614650 -0.615662
O6    O     O_R   0.499990 0.683210 0.385310 -0.621715
O7    O     O_R   0.601870 0.500030 0.614630 -0.628597
O8    O     O_R   0.601860 0.500000 0.385290 -0.627761
Zn1   Zn    Zn3+2 0.500000 0.500020 0.653130 0.943313
Zn2   Zn    Zn3+2 0.500000 0.499980 0.346870 0.943191
C33   C     C_R   0.147048 0.476090 0.235597 0.114625
C34   C     C_R   0.158343 0.565421 0.132801 -0.147085
C35   C     C_R   0.125009 0.553733 0.007024 -0.144126
C36   C     C_R   0.080697 0.452437 0.982586 -0.114062
C37   C     C_R   0.069939 0.362265 0.083600 -0.122780
C38   C     C_R   0.103109 0.373621 0.209575 -0.130035
H20   H     H_    0.192254 0.644734 0.150673 0.128328
H21   H     H_    0.133377 0.623465 0.928673 0.130736
H22   H     H_    0.054718 0.443728 0.885417 0.148848
H23   H     H_    0.035832 0.283604 0.064331 0.133902
H24   H     H_    0.094461 0.302926 0.286906 0.128129

loop_
_geom_bond_atom_site_label_1
_geom_bond_atom_site_label_2
_ccdc_geom_bond_type
C3    N2    A    
N6    Zn1   S    
C20   N5    A    
C2    C12   S    
C22   N6    A    
C7    C8    A    
C5    H15   S    
C11   C19   S    
C29   C30   A    
C6    H16   S    
C4    N1    A    
C28   C29   A    
C1    O2    A    
C5    C6    A    
C3    N3    A    
C16   C17   A    
C15   C16   A    
C7    C27   S    
C2    C32   A    
C18   C19   S    
C19   H5    S    
C26   H13   S    
O2    Zn2   S    
C33   C34   A    
O1    Zn1   S    
C23   O5    A    
C31   C32   A    
C24   N6    A    
O8    Zn2   S    
C38   H24   S    
C35   C36   A    
C18   H3    S    
C15   H2    S    
C23   O6    A    
O3    Zn1   S    
C13   C14   A    
C26   H11   S    
C31   C33   S    
O6    Zn2   S    
O5    Zn1   S    
C20   C24   A    
C24   C25   S    
C25   H9    S    
C8    C9    A    
C33   C38   A    
O7    Zn1   S    
C37   H23   S    
C27   O8    A    
C19   H6    S    
O4    Zn2   S    
C14   H19   S    
C21   H7    S    
C22   H8    S    
C17   C18   S    
C34   H20   S    
C28   H1    S    
C16   C23   S    
C4    N4    A    
C1    C13   S    
C36   H22   S    
N1    N2    A    
C9    C10   A    
N3    N4    A    
C11   C17   A    
C32   H14   S    
C9    H18   S    
C37   C38   A    
C25   H10   S    
C21   N5    A    
C6    C7    A    
N5    Zn2   S    
C25   C26   S    
C36   C37   A    
C29   H12   S    
C3    C10   S    
C1    O1    A    
C12   O4    A    
C11   C13   A    
C30   C31   A    
C20   C26   S    
C34   C35   A    
C27   O7    A    
C12   O3    A    
C5    C10   A    
C35   H21   S    
C14   C15   A    
C2    C28   A    
C21   C22   A    
C18   H4    S    
C8    H17   S    
C4    C30   S    
