data_mof_unit_59876.cif
_audit_creation_date              2013-03-05T15:43:59-0500
_audit_creation_method            fapswitch 2.2
_symmetry_space_group_name_H-M    P1
_symmetry_Int_Tables_number       1
_space_group_crystal_system       triclinic
_cell_length_a                    11.532109
_cell_length_b                    10.701272
_cell_length_c                    10.096112
_cell_angle_alpha                 89.097675
_cell_angle_beta                  89.364919
_cell_angle_gamma                 90.367145
_cell_volume                      1245.68533378

loop_
_atom_site_label
_atom_site_type_symbol
_atom_site_description
_atom_site_fract_x
_atom_site_fract_y
_atom_site_fract_z
_atom_type_partial_charge
O1    O     O_R   0.499980 0.319060 0.613040 -0.622352
O2    O     O_R   0.500020 0.319100 0.386900 -0.597948
C1    C     C_R   0.508273 0.263420 0.500880 0.905985
O3    O     O_R   0.334430 0.499990 0.613070 -0.674419
O4    O     O_R   0.334470 0.500030 0.386930 -0.549985
C2    C     C_R   0.282160 0.500075 0.500584 0.845161
Zn1   Zn    Zn3+2 0.499980 0.499970 0.650990 1.038192
Zn2   Zn    Zn3+2 0.500020 0.500030 0.349010 1.103368
O5    O     O_R   0.499980 0.680900 0.613100 -0.563559
O6    O     O_R   0.500020 0.680940 0.386960 -0.572149
O7    O     O_R   0.665530 0.499970 0.613070 -0.585679
O8    O     O_R   0.665570 0.500010 0.386930 -0.572300
C3    C     C_R   0.499538 0.737259 0.498669 0.837284
C4    C     C_R   0.717848 0.500394 0.499396 0.891611
C5    C     C_1   0.161617 0.500647 0.501490 -0.152029
C6    C     C_1   0.059369 0.501044 0.500717 0.026218
C7    C     C_1   0.940642 0.501160 0.499110 0.044795
C8    C     C_1   0.838393 0.500910 0.498415 -0.089371
C9    C     C_2   0.554133 0.934627 0.401054 0.385518
C10   C     C_2   0.491085 0.870313 0.493442 0.250557
C11   C     C_2   0.540132 0.069463 0.392960 -0.281334
C12   C     C_2   0.538497 0.134822 0.503753 -0.285667
H1    H     H_    0.526610 0.112610 0.296247 0.205170
H2    H     H_    0.560229 0.092652 0.598917 0.212609
C13   C     C_2   0.583550 0.546772 0.924318 0.421510
N1    N     N_2   0.501210 0.501330 0.852150 0.001549
C14   C     C_2   0.593016 0.509608 0.070704 0.310140
N2    N     N_2   0.501250 0.501360 0.147810 -0.038997
O9    O     O_3   0.617960 0.870550 0.305588 -0.596484
C15   C     C_3   0.717875 0.937940 0.263895 0.077949
H3    H     H_    0.766398 0.974920 0.349966 0.143617
H4    H     H_    0.693781 0.016210 0.196040 0.186469
C16   C     C_3   0.797667 0.850720 0.188587 -0.648396
H5    H     H_    0.752296 0.813046 0.101144 0.293667
H6    H     H_    0.876498 0.902407 0.154257 0.203351
H7    H     H_    0.824000 0.771740 0.254120 0.256134
O10   O     O_3   0.420750 0.929104 0.585909 -0.619620
C17   C     C_3   0.303369 0.900510 0.561134 0.104814
H8    H     H_    0.283951 0.800853 0.586366 0.148392
H9    H     H_    0.281320 0.919689 0.455472 0.139715
C18   C     C_3   0.226959 0.982112 0.647369 -0.750935
H10   H     H_    0.244086 0.082395 0.623947 0.239666
H11   H     H_    0.134197 0.961015 0.628779 0.209738
H12   H     H_    0.245309 0.963781 0.753683 0.272247
N3    N     N_R   0.663268 0.636082 0.867526 0.188366
O11   O     O_R   0.627611 0.747241 0.834746 -0.357134
O12   O     O_R   0.771603 0.607336 0.849408 -0.351155
O13   O     O_3   0.459274 0.392726 0.905493 -0.584035
C19   C     C_3   0.343946 0.374600 0.866048 0.271139
H13   H     H_    0.341340 0.334311 0.766297 0.177977
H14   H     H_    0.293257 0.462767 0.869869 0.174540
C20   C     C_3   0.286634 0.277281 0.957501 -0.816569
H15   H     H_    0.292974 0.304932 0.062538 0.292798
H16   H     H_    0.193741 0.266677 0.931781 0.218857
H17   H     H_    0.330017 0.185629 0.945860 0.256859
N4    N     N_R   0.701762 0.464859 0.118604 0.204796
O14   O     O_R   0.708073 0.353503 0.171538 -0.386277
O15   O     O_R   0.795255 0.532697 0.105867 -0.357057
N5    N     N_R   0.407225 0.572785 0.105554 0.261840
O16   O     O_R   0.302440 0.531338 0.126880 -0.373989
O17   O     O_R   0.421515 0.691299 0.077993 -0.375158

loop_
_geom_bond_atom_site_label_1
_geom_bond_atom_site_label_2
_geom_bond_distance
_ccdc_geom_bond_type
C7    C8    1.179235 T    
O4    Zn2   1.942984 S    
C17   H9    1.115605 S    
O9    C15   1.412063 S    
C13   C14   1.529698 S    
C18   H10   1.111242 S    
C4    C8    1.390039 S    
Zn1   O7    1.942984 S    
C9    C10   1.353029 D    
C15   C16   1.521129 S    
C20   H17   1.111165 S    
N1    O13   1.357182 S    
Zn2   O8    1.951306 S    
C19   C20   1.523584 S    
C20   H16   1.110594 S    
C19   H14   1.114044 S    
N3    O12   1.300204 A    
C16   H5    1.111057 S    
C13   N1    1.299842 D    
N5    O16   1.299085 A    
O1    Zn1   1.979428 S    
N3    O11   1.300203 A    
N4    O14   1.301098 A    
C15   H4    1.112295 S    
C10   O10   1.390501 S    
C18   H11   1.110507 S    
O10   C17   1.411806 S    
Zn1   N1    2.031420 S    
O3    Zn1   1.951306 S    
O4    C2    1.290448 A    
Zn2   O6    1.979429 S    
O13   C19   1.405670 S    
C9    C11   1.454073 S    
O8    C4    1.291537 A    
O2    C1    1.292243 A    
C11   H1    1.086751 S    
C15   H3    1.115187 S    
Zn2   N2    2.031055 S    
C18   H12   1.110984 S    
C12   H2    1.087512 S    
N5    O17   1.303173 A    
C5    C6    1.179277 T    
C9    O9    1.397324 S    
C13   N3    1.430774 S    
C14   N2    1.308467 D    
C16   H7    1.111055 S    
C17   H8    1.113323 S    
C20   H15   1.108521 S    
C17   C18   1.521128 S    
O3    C2    1.291601 A    
C19   H13   1.102373 S    
N2    N5    1.397334 S    
O7    C4    1.290588 A    
Zn1   O5    1.967692 S    
O5    C3    1.294890 A    
C14   N4    1.431690 S    
C1    C12   1.421711 S    
C3    C10   1.427987 S    
C16   H6    1.110426 S    
C2    C5    1.390103 S    
C11   C12   1.328572 D    
O2    Zn2   1.967691 S    
N4    O15   1.299987 A    
C6    C7    1.369453 S    
O1    C1    1.290551 A    
O6    C3    1.287077 A    
