data_mof_unit_64646.cif
_audit_creation_date              2012-12-10T18:10:51-0500
_audit_creation_method            fapswitch 2.2
_symmetry_space_group_name_H-M    P1
_symmetry_Int_Tables_number       1
_space_group_crystal_system       triclinic
_cell_length_a                    18.363442
_cell_length_b                    18.363431
_cell_length_c                    47.237457
_cell_angle_alpha                 89.839145
_cell_angle_beta                  89.838621
_cell_angle_gamma                 89.986839
_cell_volume                      15929.0905049

loop_
_atom_site_label
_atom_site_type_symbol
_atom_type_description
_atom_site_fract_x
_atom_site_fract_y
_atom_site_fract_z
_atom_type_partial_charge
C1    C     C_R   0.000005 0.860149 0.000034 0.836762
C2    C     C_R   0.139851 0.999995 0.999966 0.836762
C3    C     C_R   0.000014 0.139851 0.999966 0.838672
C4    C     C_R   0.860149 0.999985 0.000034 0.838672
C5    C     C_R   0.500005 0.360149 0.500034 0.836761
C6    C     C_R   0.639851 0.499995 0.499966 0.836761
C7    C     C_R   0.500014 0.639851 0.499966 0.838673
C8    C     C_R   0.360149 0.499986 0.500034 0.838673
C9    C     C_R   0.463815 0.949447 0.868692 -0.102214
C10   C     C_R   0.057082 0.472865 0.869094 -0.101365
C11   C     C_R   0.547867 0.049260 0.869469 -0.098735
C12   C     C_R   0.956910 0.556839 0.870319 -0.099313
C13   C     C_R   0.443171 0.043098 0.129682 -0.099312
C14   C     C_R   0.050544 0.536177 0.131308 -0.102205
C15   C     C_R   0.527133 0.942916 0.130906 -0.101366
C16   C     C_R   0.950749 0.452105 0.130528 -0.098740
C17   C     C_R   0.963853 0.449427 0.368692 -0.102205
C18   C     C_R   0.557074 0.972843 0.369095 -0.101362
C19   C     C_R   0.047860 0.549277 0.369470 -0.098742
C20   C     C_R   0.456923 0.056844 0.370319 -0.099306
C21   C     C_R   0.943166 0.543092 0.629682 -0.099313
C22   C     C_R   0.550542 0.036197 0.631308 -0.102214
C23   C     C_R   0.027142 0.442921 0.630905 -0.101366
C24   C     C_R   0.450743 0.952128 0.630530 -0.098730
C25   C     C_R   0.462404 0.947990 0.898537 0.345224
C26   C     C_R   0.054901 0.466631 0.898761 0.346263
C27   C     C_R   0.545320 0.050781 0.899336 0.341288
C28   C     C_R   0.952024 0.549649 0.899972 0.338929
C29   C     C_R   0.450358 0.047982 0.100028 0.338932
C30   C     C_R   0.052001 0.537595 0.101463 0.345234
C31   C     C_R   0.533365 0.945096 0.101239 0.346261
C32   C     C_R   0.949227 0.454658 0.100662 0.341274
C33   C     C_R   0.962436 0.447971 0.398536 0.345240
C34   C     C_R   0.554891 0.966612 0.398761 0.346252
C35   C     C_R   0.045308 0.550798 0.399336 0.341281
C36   C     C_R   0.452037 0.049658 0.399973 0.338930
C37   C     C_R   0.950353 0.547976 0.600028 0.338929
C38   C     C_R   0.551999 0.037609 0.601463 0.345209
C39   C     C_R   0.033373 0.445101 0.601239 0.346261
C40   C     C_R   0.449223 0.954674 0.600664 0.341299
C41   C     C_R   0.500860 0.000880 0.914001 -0.239986
C42   C     C_R   0.000524 0.503161 0.914239 -0.243217
C43   C     C_R   0.496841 0.999477 0.085761 -0.243222
C44   C     C_R   0.999119 0.499132 0.085999 -0.239979
C45   C     C_R   0.000866 0.500879 0.414000 -0.239996
C46   C     C_R   0.500524 0.003157 0.414239 -0.243214
C47   C     C_R   0.996841 0.499477 0.585761 -0.243215
C48   C     C_R   0.499117 0.999142 0.585999 -0.239989
C49   C     C_R   0.494214 0.010222 0.853980 0.077443
C50   C     C_R   0.998215 0.505922 0.854232 0.075482
C51   C     C_R   0.494083 0.001787 0.145768 0.075481
C52   C     C_R   0.989776 0.505762 0.146019 0.077447
C53   C     C_R   0.994226 0.510215 0.353980 0.077454
C54   C     C_R   0.498215 0.005915 0.354233 0.075472
C55   C     C_R   0.994085 0.501788 0.645768 0.075483
C56   C     C_R   0.489772 0.005787 0.646019 0.077419
C57   C     C_1   0.782640 0.999970 0.000100 -0.161891
C58   C     C_1   0.000000 0.782640 0.000100 -0.162944
C59   C     C_1   0.217360 1.000000 0.999900 -0.162942
C60   C     C_1   0.000030 0.217359 0.999900 -0.161890
C61   C     C_1   0.282640 0.499970 0.500100 -0.161892
C62   C     C_1   0.500000 0.282640 0.500100 -0.162941
C63   C     C_1   0.717360 0.500000 0.499900 -0.162940
C64   C     C_1   0.500030 0.717360 0.499900 -0.161890
C65   C     C_1   0.717357 0.999971 0.000096 -0.158190
C66   C     C_1   0.999993 0.717357 0.000095 -0.158499
C67   C     C_1   0.282643 0.000007 0.999905 -0.158504
C68   C     C_1   0.000029 0.282642 0.999904 -0.158185
C69   C     C_1   0.217357 0.499971 0.500096 -0.158193
C70   C     C_1   0.499993 0.217357 0.500095 -0.158513
C71   C     C_1   0.782643 0.500007 0.499905 -0.158490
C72   C     C_1   0.500029 0.782642 0.499904 -0.158196
C73   C     C_R   0.500165 0.000138 0.945400 0.889016
C74   C     C_R   0.000116 0.500317 0.945476 0.891363
C75   C     C_R   0.499683 0.999884 0.054524 0.891354
C76   C     C_R   0.999862 0.499834 0.054600 0.889046
C77   C     C_R   0.000166 0.500138 0.445399 0.889011
C78   C     C_R   0.500116 0.000316 0.445476 0.891373
C79   C     C_R   0.999683 0.499884 0.554524 0.891366
C80   C     C_R   0.499862 0.999835 0.554600 0.888985
C81   C     C_R   0.639863 0.999991 0.000047 0.839182
C82   C     C_R   0.999995 0.639863 0.000045 0.838761
C83   C     C_R   0.360137 0.000005 0.999955 0.838743
C84   C     C_R   0.000009 0.360137 0.999953 0.839190
C85   C     C_R   0.139863 0.499991 0.500047 0.839173
C86   C     C_R   0.499995 0.139863 0.500045 0.838721
C87   C     C_R   0.860137 0.500005 0.499955 0.838762
C88   C     C_R   0.500009 0.860137 0.499953 0.839183
C89   C     C_R   0.915391 0.492933 0.190355 0.569316
C90   C     C_R   0.560051 0.978177 0.190921 0.568120
C91   C     C_R   0.005689 0.581134 0.189518 0.568466
C92   C     C_R   0.471748 0.068398 0.191098 0.569548
C93   C     C_R   0.931609 0.528269 0.808902 0.569546
C94   C     C_R   0.507013 0.084616 0.809645 0.569322
C95   C     C_R   0.021815 0.439950 0.809079 0.568121
C96   C     C_R   0.418846 0.994284 0.810481 0.568459
C97   C     C_R   0.415380 0.992975 0.690355 0.569329
C98   C     C_R   0.060057 0.478189 0.690921 0.568121
C99   C     C_R   0.505696 0.081157 0.689519 0.568445
C100  C     C_R   0.971740 0.568396 0.691098 0.569547
C101  C     C_R   0.431613 0.028276 0.308903 0.569550
C102  C     C_R   0.007001 0.584609 0.309644 0.569317
C103  C     C_R   0.521801 0.939939 0.309079 0.568113
C104  C     C_R   0.918865 0.494247 0.310481 0.568470
C105  C     C_R   0.010006 0.582677 0.219508 -0.066787
C106  C     C_R   0.459364 0.060734 0.220503 -0.066019
C107  C     C_R   0.915828 0.489093 0.220330 -0.065365
C108  C     C_R   0.553133 0.966384 0.220435 -0.066943
C109  C     C_R   0.033609 0.446864 0.779565 -0.066943
C110  C     C_R   0.417307 0.989968 0.780491 -0.066785
C111  C     C_R   0.939277 0.540651 0.779497 -0.066017
C112  C     C_R   0.510852 0.084186 0.779670 -0.065369
C113  C     C_R   0.510015 0.082694 0.719509 -0.066785
C114  C     C_R   0.959357 0.560730 0.720503 -0.066018
C115  C     C_R   0.415812 0.989134 0.720330 -0.065372
C116  C     C_R   0.053141 0.466395 0.720435 -0.066943
C117  C     C_R   0.533597 0.946854 0.279565 -0.066944
C118  C     C_R   0.917326 0.489929 0.280492 -0.066787
C119  C     C_R   0.439281 0.040657 0.279498 -0.066020
C120  C     C_R   0.010841 0.584175 0.279669 -0.065366
C121  C     C_R   0.965673 0.533715 0.235001 -0.019141
C122  C     C_R   0.500582 0.007870 0.235224 -0.017590
C123  C     C_R   0.992132 0.499423 0.764776 -0.017590
C124  C     C_R   0.466251 0.034323 0.764998 -0.019141
C125  C     C_R   0.465668 0.033742 0.735002 -0.019140
C126  C     C_R   0.000583 0.507873 0.735224 -0.017589
C127  C     C_R   0.492130 0.999421 0.264777 -0.017588
C128  C     C_R   0.966256 0.534298 0.264998 -0.019142
C129  C     C_R   0.056168 0.631529 0.234271 -0.082442
C130  C     C_R   0.407344 0.103263 0.235346 -0.085082
C131  C     C_R   0.867684 0.443431 0.235845 -0.083027
C132  C     C_R   0.595691 0.914392 0.235312 -0.086074
C133  C     C_R   0.085592 0.404296 0.764688 -0.086074
C134  C     C_R   0.368475 0.943786 0.765728 -0.082444
C135  C     C_R   0.896757 0.592681 0.764655 -0.085082
C136  C     C_R   0.556492 0.132352 0.764156 -0.083025
C137  C     C_R   0.556190 0.131533 0.734272 -0.082446
C138  C     C_R   0.907329 0.603251 0.735345 -0.085082
C139  C     C_R   0.367654 0.943486 0.735844 -0.083028
C140  C     C_R   0.095707 0.414411 0.735312 -0.086076
C141  C     C_R   0.585573 0.904277 0.264688 -0.086076
C142  C     C_R   0.868508 0.443732 0.265729 -0.082442
C143  C     C_R   0.396771 0.092694 0.264656 -0.085082
C144  C     C_R   0.056468 0.632352 0.264154 -0.083028
Cu1   Cu    Cu3+1 0.000000 1.000000 0.028150 0.999982
Cu2   Cu    Cu3+1 0.000000 1.000000 0.971850 0.999981
Cu3   Cu    Cu3+1 0.500000 0.500000 0.528150 0.999984
Cu4   Cu    Cu3+1 0.500000 0.500000 0.471850 0.999981
Cu5   Cu    Cu3+1 0.500000 0.072590 0.000000 0.980143
Cu6   Cu    Cu3+1 0.927410 0.500000 0.000000 0.980140
Cu7   Cu    Cu3+1 0.500000 0.927410 0.000000 1.035253
Cu8   Cu    Cu3+1 0.072590 0.500000 0.000000 1.035260
Cu9   Cu    Cu3+1 1.000000 0.572590 0.500000 0.980154
Cu10  Cu    Cu3+1 0.427410 1.000000 0.500000 0.980132
Cu11  Cu    Cu3+1 1.000000 0.427410 0.500000 1.035251
Cu12  Cu    Cu3+1 0.572590 1.000000 0.500000 1.035243
N1    N     N_R   0.972749 0.523862 0.175941 -0.423342
N2    N     N_R   0.506385 0.014188 0.176337 -0.422198
N3    N     N_R   0.985812 0.493622 0.823663 -0.422198
N4    N     N_R   0.476106 0.027245 0.824059 -0.423341
N5    N     N_R   0.472745 0.023892 0.675941 -0.423340
N6    N     N_R   0.006385 0.514191 0.676337 -0.422198
N7    N     N_R   0.485810 0.993618 0.323664 -0.422197
N8    N     N_R   0.976114 0.527229 0.324058 -0.423342
O1    O     O_R   0.999960 0.894270 0.023780 -0.585967
O2    O     O_R   0.105730 0.999960 0.023780 -0.573670
O3    O     O_R   0.000040 0.105730 0.023780 -0.572592
O4    O     O_R   0.894270 0.000040 0.023780 -0.584759
O5    O     O_R   0.999960 0.105730 0.976220 -0.584760
O6    O     O_R   0.105730 0.000040 0.976220 -0.585967
O7    O     O_R   0.000040 0.894270 0.976220 -0.573670
O8    O     O_R   0.894270 0.999960 0.976220 -0.572593
O9    O     O_R   0.499960 0.394270 0.523780 -0.585968
O10   O     O_R   0.605730 0.499960 0.523780 -0.573670
O11   O     O_R   0.500040 0.605730 0.523780 -0.572591
O12   O     O_R   0.394270 0.500040 0.523780 -0.584759
O13   O     O_R   0.499960 0.605730 0.476220 -0.584761
O14   O     O_R   0.605730 0.500040 0.476220 -0.585964
O15   O     O_R   0.500040 0.394270 0.476220 -0.573669
O16   O     O_R   0.394270 0.499960 0.476220 -0.572595
O17   O     O_R   0.500020 0.061320 0.958950 -0.580000
O18   O     O_R   0.938680 0.500020 0.958950 -0.578603
O19   O     O_R   0.499980 0.938680 0.958950 -0.542745
O20   O     O_R   0.061320 0.499980 0.958950 -0.542749
O21   O     O_R   0.500020 0.938680 0.041050 -0.542744
O22   O     O_R   0.938680 0.499980 0.041050 -0.580013
O23   O     O_R   0.499980 0.061320 0.041050 -0.578595
O24   O     O_R   0.061320 0.500020 0.041050 -0.542746
O25   O     O_R   0.000020 0.561320 0.458950 -0.579976
O26   O     O_R   0.438680 0.000020 0.458950 -0.578614
O27   O     O_R   0.999980 0.438680 0.458950 -0.542733
O28   O     O_R   0.561320 0.999980 0.458950 -0.542755
O29   O     O_R   0.000020 0.438680 0.541050 -0.542746
O30   O     O_R   0.438680 0.999980 0.541050 -0.580001
O31   O     O_R   0.999980 0.561320 0.541050 -0.578606
O32   O     O_R   0.561320 0.000020 0.541050 -0.542760
O33   O     O_R   0.605800 0.061300 0.000010 -0.581222
O34   O     O_R   0.938700 0.605800 0.000010 -0.579293
O35   O     O_R   0.394200 0.938700 0.000010 -0.582383
O36   O     O_R   0.061300 0.394200 0.000010 -0.581659
O37   O     O_R   0.605800 0.938700 0.999990 -0.581659
O38   O     O_R   0.938700 0.394200 0.999990 -0.581223
O39   O     O_R   0.394200 0.061300 0.999990 -0.579290
O40   O     O_R   0.061300 0.605800 0.999990 -0.582377
O41   O     O_R   0.105800 0.561300 0.500010 -0.581217
O42   O     O_R   0.438700 0.105800 0.500010 -0.579289
O43   O     O_R   0.894200 0.438700 0.500010 -0.582391
O44   O     O_R   0.561300 0.894200 0.500010 -0.581651
O45   O     O_R   0.105800 0.438700 0.499990 -0.581658
O46   O     O_R   0.438700 0.894200 0.499990 -0.581219
O47   O     O_R   0.894200 0.561300 0.499990 -0.579293
O48   O     O_R   0.561300 0.105800 0.499990 -0.582387
O49   O     O_2   0.854626 0.474118 0.176257 -0.533477
O50   O     O_2   0.622298 0.959886 0.177531 -0.530902
O51   O     O_2   0.027244 0.639660 0.174405 -0.533087
O52   O     O_2   0.456690 0.132214 0.178260 -0.531878
O53   O     O_2   0.867795 0.543337 0.821740 -0.531877
O54   O     O_2   0.525807 0.145385 0.823746 -0.533478
O55   O     O_2   0.040096 0.377700 0.822469 -0.530905
O56   O     O_2   0.360326 0.972710 0.825593 -0.533080
O57   O     O_2   0.354615 0.974170 0.676255 -0.533477
O58   O     O_2   0.122306 0.459906 0.677531 -0.530902
O59   O     O_2   0.527257 0.139683 0.674408 -0.533064
O60   O     O_2   0.956672 0.632210 0.678259 -0.531878
O61   O     O_2   0.367802 0.043357 0.321742 -0.531875
O62   O     O_2   0.025774 0.645386 0.323743 -0.533475
O63   O     O_2   0.540068 0.877684 0.322468 -0.530893
O64   O     O_2   0.860355 0.472650 0.325595 -0.533092
C145  C     C_1   0.106943 0.678426 0.219171 0.353781
N9    N     N_1   0.147528 0.715804 0.207239 -0.217603
C146  C     C_1   0.361022 0.154987 0.220565 0.351853
N10   N     N_1   0.323972 0.196200 0.208880 -0.217695
C147  C     C_1   0.820095 0.392321 0.221464 0.350301
N11   N     N_1   0.782177 0.351487 0.210099 -0.213191
C148  C     C_1   0.647231 0.867795 0.220564 0.355270
N12   N     N_1   0.688295 0.830511 0.208910 -0.210822
C149  C     C_1   0.132179 0.352747 0.779435 0.355272
N13   N     N_1   0.169455 0.311677 0.791089 -0.210823
C150  C     C_1   0.321598 0.892991 0.780826 0.353776
N14   N     N_1   0.284236 0.852390 0.792758 -0.217599
C151  C     C_1   0.845043 0.639013 0.779436 0.351850
N15   N     N_1   0.803838 0.676071 0.791122 -0.217693
C152  C     C_1   0.607583 0.179962 0.778538 0.350307
N16   N     N_1   0.648401 0.217897 0.789903 -0.213196
C153  C     C_1   0.606976 0.178419 0.719174 0.353773
N17   N     N_1   0.647572 0.215787 0.707242 -0.217583
C154  C     C_1   0.860999 0.654967 0.720565 0.351853
N18   N     N_1   0.823943 0.696174 0.708879 -0.217695
C155  C     C_1   0.320049 0.892390 0.721462 0.350308
N19   N     N_1   0.282119 0.851567 0.710097 -0.213195
C156  C     C_1   0.147254 0.367821 0.720564 0.355271
N20   N     N_1   0.188323 0.330543 0.708910 -0.210821
C157  C     C_1   0.632152 0.852721 0.279435 0.355268
N21   N     N_1   0.669421 0.811644 0.291089 -0.210817
C158  C     C_1   0.821648 0.392922 0.280828 0.353779
N22   N     N_1   0.784300 0.352309 0.292760 -0.217609
C159  C     C_1   0.345065 0.139035 0.279436 0.351853
N23   N     N_1   0.303866 0.176100 0.291123 -0.217694
C160  C     C_1   0.107544 0.679979 0.278536 0.350303
N24   N     N_1   0.148351 0.717926 0.289901 -0.213192
C161  C     C_1   0.446530 0.882329 0.854165 0.401277
N25   N     N_1   0.432925 0.828495 0.842642 -0.245477
C162  C     C_1   0.126089 0.457934 0.855366 0.401404
N26   N     N_1   0.181441 0.446225 0.844510 -0.244020
C163  C     C_1   0.615672 0.071107 0.856215 0.387803
N27   N     N_1   0.670081 0.088327 0.845731 -0.242746
C164  C     C_1   0.936162 0.626627 0.858465 0.388130
N28   N     N_1   0.919836 0.682636 0.849135 -0.243565
C165  C     C_1   0.373386 0.063855 0.141537 0.388125
N29   N     N_1   0.317380 0.080189 0.150867 -0.243568
C166  C     C_1   0.117656 0.553476 0.145836 0.401240
N30   N     N_1   0.171486 0.567094 0.157361 -0.245488
C167  C     C_1   0.542055 0.873906 0.144633 0.401408
N31   N     N_1   0.553757 0.818553 0.155489 -0.244020
C168  C     C_1   0.928921 0.384289 0.143779 0.387815
N32   N     N_1   0.911717 0.329873 0.154261 -0.242736
C169  C     C_1   0.946601 0.382301 0.354164 0.401212
N33   N     N_1   0.933023 0.328461 0.342640 -0.245487
C170  C     C_1   0.626077 0.957892 0.355367 0.401443
N34   N     N_1   0.681426 0.946167 0.344512 -0.244016
C171  C     C_1   0.115659 0.571149 0.356217 0.387805
N35   N     N_1   0.170063 0.588389 0.345734 -0.242741
C172  C     C_1   0.436193 0.126636 0.358464 0.388122
N36   N     N_1   0.419879 0.182648 0.349134 -0.243570
C173  C     C_1   0.873378 0.563838 0.641536 0.388128
N37   N     N_1   0.817370 0.580164 0.650867 -0.243565
C174  C     C_1   0.617655 0.053500 0.645834 0.401366
N38   N     N_1   0.671486 0.067120 0.657357 -0.245471
C175  C     C_1   0.042075 0.373914 0.644633 0.401409
N39   N     N_1   0.053785 0.318563 0.655489 -0.244018
C176  C     C_1   0.428908 0.884318 0.643784 0.387803
N40   N     N_1   0.411696 0.829906 0.654268 -0.242744
O65   O     O_3   0.427446 0.891648 0.912566 -0.552411
C177  C     C_3   0.353689 0.910993 0.916160 -0.228358
H1    H     H_    0.325644 0.866431 0.927743 0.192007
H2    H     H_    0.325920 0.917831 0.895402 0.180369
H3    H     H_    0.347973 0.961369 0.929050 0.127943
O66   O     O_3   0.109624 0.429380 0.912768 -0.552401
C178  C     C_3   0.089110 0.355578 0.914875 -0.233256
H4    H     H_    0.083449 0.330388 0.893583 0.181041
H5    H     H_    0.037746 0.349083 0.927215 0.129322
H6    H     H_    0.132463 0.325582 0.926326 0.190796
O67   O     O_3   0.594413 0.092750 0.914409 -0.568165
C179  C     C_3   0.573125 0.166443 0.912537 -0.207366
H7    H     H_    0.515999 0.174410 0.919894 0.159886
H8    H     H_    0.579766 0.187911 0.890653 0.177528
H9    H     H_    0.608829 0.199026 0.926541 0.180703
O68   O     O_3   0.908530 0.596599 0.915521 -0.567682
C180  C     C_3   0.835210 0.575099 0.912502 -0.206245
H10   H     H_    0.827052 0.517297 0.918981 0.157981
H11   H     H_    0.815691 0.583600 0.890477 0.176214
H12   H     H_    0.801112 0.609310 0.926604 0.183535
O69   O     O_3   0.403413 0.091482 0.084481 -0.567677
C181  C     C_3   0.424921 0.164799 0.087499 -0.206238
H13   H     H_    0.482723 0.172951 0.081020 0.157977
H14   H     H_    0.416422 0.184319 0.109524 0.176213
H15   H     H_    0.390713 0.198901 0.073398 0.183533
O70   O     O_3   0.108333 0.572570 0.087435 -0.552417
C182  C     C_3   0.088977 0.646327 0.083851 -0.228388
H16   H     H_    0.082177 0.674085 0.104613 0.180406
H17   H     H_    0.038578 0.652048 0.070975 0.127942
H18   H     H_    0.133517 0.674379 0.072258 0.192004
O71   O     O_3   0.570609 0.890369 0.087232 -0.552398
C183  C     C_3   0.644413 0.910875 0.085123 -0.233248
H19   H     H_    0.669606 0.916533 0.106414 0.181037
H20   H     H_    0.650912 0.962238 0.072782 0.129319
H21   H     H_    0.674403 0.867518 0.073671 0.190795
O72   O     O_3   0.907269 0.405561 0.085587 -0.568171
C184  C     C_3   0.833572 0.426833 0.087460 -0.207378
H22   H     H_    0.825592 0.483959 0.080105 0.159890
H23   H     H_    0.812107 0.420184 0.109345 0.177528
H24   H     H_    0.800995 0.391124 0.073456 0.180706
O73   O     O_3   0.927501 0.391616 0.412565 -0.552414
C185  C     C_3   0.853726 0.410910 0.416142 -0.228366
H25   H     H_    0.825967 0.417648 0.395377 0.180419
H26   H     H_    0.847953 0.461326 0.429005 0.127953
H27   H     H_    0.825712 0.366364 0.427746 0.191995
O74   O     O_3   0.609604 0.929347 0.412768 -0.552402
C186  C     C_3   0.589054 0.855557 0.414889 -0.233243
H28   H     H_    0.583341 0.830355 0.393601 0.181015
H29   H     H_    0.537708 0.849100 0.427243 0.129304
H30   H     H_    0.632410 0.825546 0.426331 0.190800
O75   O     O_3   0.094380 0.592789 0.414410 -0.568153
C187  C     C_3   0.073062 0.666473 0.412537 -0.207349
H31   H     H_    0.015930 0.674416 0.419890 0.159878
H32   H     H_    0.079703 0.687942 0.390652 0.177526
H33   H     H_    0.108747 0.699071 0.426543 0.180701
O76   O     O_3   0.408556 0.096620 0.415521 -0.567692
C188  C     C_3   0.335231 0.075140 0.412503 -0.206248
H34   H     H_    0.327057 0.017341 0.418981 0.157986
H35   H     H_    0.315712 0.083648 0.390478 0.176217
H36   H     H_    0.301143 0.109360 0.426606 0.183538
O77   O     O_3   0.903401 0.591468 0.584480 -0.567683
C189  C     C_3   0.924897 0.664789 0.587499 -0.206247
H37   H     H_    0.982697 0.672950 0.581018 0.157983
H38   H     H_    0.916400 0.684307 0.609524 0.176212
H39   H     H_    0.890681 0.698886 0.573398 0.183536
O78   O     O_3   0.608337 0.072579 0.587436 -0.552401
C190  C     C_3   0.588946 0.146315 0.583817 -0.228315
H40   H     H_    0.581967 0.174103 0.604564 0.180292
H41   H     H_    0.538636 0.151969 0.570886 0.127927
H42   H     H_    0.633544 0.174389 0.572264 0.192022
O79   O     O_3   0.070622 0.390378 0.587231 -0.552401
C191  C     C_3   0.144424 0.410894 0.585122 -0.233255
H43   H     H_    0.169618 0.416548 0.606413 0.181042
H44   H     H_    0.150917 0.462261 0.572784 0.129317
H45   H     H_    0.174418 0.367543 0.573668 0.190795
O80   O     O_3   0.407263 0.905575 0.585591 -0.568168
C192  C     C_3   0.333566 0.926850 0.587462 -0.207370
H46   H     H_    0.325589 0.983973 0.580104 0.159890
H47   H     H_    0.312099 0.920208 0.609347 0.177526
H48   H     H_    0.300989 0.891138 0.573459 0.180704

loop_
_geom_bond_atom_site_label_1
_geom_bond_atom_site_label_2
_ccdc_geom_bond_type
Cu4   O13   S    
C33   C45   A    
C176  N40   T    
C120  C144  A    
Cu1   Cu2   S    
O73   C185  S    
C112  C124  A    
Cu11  O43   S    
C103  O63   S    
C166  N30   T    
C22   C38   A    
C119  C143  A    
C7    O13   A    
C101  O61   S    
C93   N3    A    
C5    O15   A    
C91   O51   S    
C13   C51   A    
C179  H9    S    
C14   C52   A    
C168  N32   T    
C183  H19   S    
C95   O55   S    
C49   N4    S    
C15   C51   A    
C97   C115  A    
Cu5   O39   S    
C76   O24   A    
C192  H48   S    
C88   O46   A    
C153  N17   T    
C139  C155  S    
C140  C156  S    
C88   O44   A    
C16   C168  S    
O80   C192  S    
C98   N6    A    
C104  O64   S    
Cu1   O2    S    
C43   C75   S    
C80   O32   A    
C109  C133  A    
O71   C183  S    
Cu11  O45   S    
C121  C128  A    
C20   C54   A    
C95   C109  A    
C25   C41   A    
C21   C55   A    
Cu3   O12   S    
C3    O5    A    
C123  C126  A    
C22   C56   A    
C6    O10   A    
C181  H13   S    
C96   O56   S    
C1    O7    A    
C4    O4    A    
C6    C63   S    
C145  N9    T    
C11   C49   A    
C66   C82   S    
C73   O17   A    
C8    O16   A    
O67   C179  S    
C11   C27   A    
Cu3   O9    S    
C100  C114  A    
C32   O72   S    
C23   C55   A    
C92   C106  A    
C63   C71   T    
Cu4   O15   S    
C113  C137  A    
O66   C178  S    
C35   C45   A    
C90   O50   S    
C39   C47   A    
C40   C48   A    
C25   O65   S    
C86   O48   A    
C85   O45   A    
C104  N8    A    
C82   O34   A    
C24   C56   A    
C61   C69   T    
C135  C151  S    
Cu10  O46   S    
C19   C35   A    
C185  H27   S    
C183  H21   S    
O76   C188  S    
Cu12  O44   S    
C24   C176  S    
C18   C170  S    
C190  H40   S    
C85   O41   A    
Cu1   O4    S    
C182  H17   S    
C67   C83   S    
C188  H34   S    
C91   C105  A    
Cu3   Cu4   S    
Cu3   O10   S    
C3    O3    A    
C129  C144  A    
Cu9   O25   S    
C131  C147  S    
Cu8   O36   S    
C155  N19   T    
C31   C43   A    
C95   N3    A    
C92   N2    A    
C29   O69   S    
C30   O70   S    
C157  N21   T    
C73   O19   A    
C74   O20   A    
C79   O31   A    
C191  H43   S    
C93   O53   S    
C151  N15   T    
C122  C127  A    
C15   C167  S    
C59   C67   T    
C36   C46   A    
C34   C46   A    
C20   C172  S    
C54   N7    S    
C37   C47   A    
C147  N11   T    
C38   C48   A    
C179  H8    S    
C149  N13   T    
C28   O68   S    
C133  C149  S    
C112  C136  A    
C180  H11   S    
C11   C163  S    
C19   C171  S    
C99   O59   S    
C9    C49   A    
C40   O80   S    
C134  C139  A    
C106  C130  A    
C185  H25   S    
C109  C123  A    
O65   C177  S    
C13   C165  S    
C137  C153  S    
C148  N12   T    
C106  C122  A    
C37   O77   S    
C175  N39   T    
C39   O79   S    
Cu9   O41   S    
C188  H36   S    
C97   N5    A    
C110  C134  A    
C69   C85   S    
C26   C42   A    
C132  C141  A    
Cu4   O14   S    
C4    O8    A    
C136  C152  S    
C186  H29   S    
C87   O47   A    
C187  H32   S    
O72   C184  S    
C23   C175  S    
Cu6   O22   S    
C12   C50   A    
C164  N28   T    
C8    O12   A    
C15   C31   A    
C74   O18   A    
C16   C32   A    
C79   O29   A    
C191  H45   S    
C77   O25   A    
C90   C108  A    
C183  H20   S    
C18   C34   A    
C98   O58   S    
C94   C112  A    
C190  H42   S    
C114  C138  A    
C178  H6    S    
C108  C132  A    
C22   C174  S    
C41   C73   S    
C186  H30   S    
C187  H31   S    
C38   O78   S    
C189  H37   S    
Cu2   O5    S    
C172  N36   T    
C45   C77   S    
C17   C169  S    
C158  N22   T    
C14   C166  S    
C119  C127  A    
C134  C150  S    
C150  N14   T    
C143  C159  S    
Cu8   O24   S    
O77   C189  S    
C9    C25   A    
C156  N20   T    
Cu6   O18   S    
Cu1   O1    S    
C12   C28   A    
C13   C29   A    
Cu12  O32   S    
Cu7   O37   S    
C81   O33   A    
C177  H1    S    
C103  C117  A    
Cu3   O11   S    
C181  H14   S    
C152  N16   T    
C102  O62   S    
C10   C162  S    
C144  C160  S    
C138  C154  S    
C110  C124  A    
C99   N5    A    
C94   N4    A    
O79   C191  S    
Cu9   Cu11  S    
C2    O2    A    
Cu10  Cu12  S    
C3    C60   S    
C181  H15   S    
Cu10  O26   S    
Cu4   O16   S    
C165  N29   T    
C29   C43   A    
Cu5   O17   S    
C30   C44   A    
C17   C33   A    
C104  C118  A    
C42   C74   S    
C111  C123  A    
C77   O27   A    
C78   O28   A    
C177  H3    S    
C83   O39   A    
C108  C122  A    
C46   C78   S    
C136  C137  A    
C81   O37   A    
C96   C110  A    
C56   N5    S    
C68   C84   S    
C117  C141  A    
C178  H4    S    
C173  N37   T    
C65   C81   S    
C186  H28   S    
Cu9   O31   S    
C187  H33   S    
C101  N7    A    
C89   C107  A    
C89   N1    A    
Cu7   O19   S    
C117  C127  A    
C2    O6    A    
C71   C87   S    
Cu5   O23   S    
Cu6   O38   S    
C10   C50   A    
C17   C53   A    
C102  C120  A    
C89   O49   S    
Cu1   O3    S    
C52   N1    S    
Cu7   O21   S    
C2    C59   S    
C35   O75   S    
C75   O23   A    
C16   C52   A    
C57   C65   T    
C99   C113  A    
C120  C128  A    
C53   N8    S    
C50   N3    S    
C51   N2    S    
C141  C157  S    
Cu5   Cu7   S    
C170  N34   T    
C111  C135  A    
O69   C181  S    
C161  N25   T    
C114  C126  A    
C191  H44   S    
C92   O52   S    
C132  C148  S    
C91   N1    A    
C182  H16   S    
C20   C36   A    
C21   C37   A    
C60   C68   T    
C133  C140  A    
Cu8   O40   S    
C21   C173  S    
Cu6   O34   S    
C135  C138  A    
C177  H2    S    
O75   C187  S    
Cu2   O8    S    
Cu12  O48   S    
C184  H22   S    
C78   O26   A    
C47   C79   S    
C5    O9    A    
C86   O42   A    
C180  H10   S    
C84   O36   A    
C159  N23   T    
C185  H26   S    
C113  C125  A    
C100  O60   S    
C129  C145  S    
C94   O54   S    
C26   O66   S    
C44   C76   S    
C27   O67   S    
C58   C66   T    
C174  N38   T    
C7    O11   A    
C4    C57   S    
Cu8   O20   S    
C163  N27   T    
C8    C61   S    
C19   C53   A    
C182  H18   S    
C188  H35   S    
C116  C126  A    
C36   O76   S    
C62   C70   T    
C33   O73   S    
C75   O21   A    
C118  C128  A    
C14   C30   A    
C72   C88   S    
C101  C119  A    
Cu7   O35   S    
C107  C131  A    
Cu9   O47   S    
C105  C129  A    
C34   O74   S    
C171  N35   T    
C142  C158  S    
C9    C161  S    
C90   N2    A    
C31   O71   S    
O70   C182  S    
Cu11  O29   S    
C27   C41   A    
C98   C116  A    
C1    O1    A    
C167  N31   T    
C184  H23   S    
C105  C121  A    
C190  H41   S    
C130  C143  A    
C178  H5    S    
C87   O43   A    
Cu10  O42   S    
C131  C142  A    
Cu11  O27   S    
Cu12  O28   S    
C102  N8    A    
C179  H7    S    
C96   N4    A    
C93   C111  A    
C189  H38   S    
Cu2   O6    S    
C184  H24   S    
Cu6   Cu8   S    
C83   O35   A    
C160  N24   T    
C70   C86   S    
C76   O22   A    
O68   C180  S    
C192  H46   S    
C180  H12   S    
C84   O38   A    
C55   N6    S    
C115  C139  A    
C118  C142  A    
C100  N6    A    
C154  N18   T    
C189  H39   S    
C80   O30   A    
C103  N7    A    
C115  C125  A    
C48   C80   S    
C162  N26   T    
C12   C164  S    
C1    C58   S    
C82   O40   A    
C10   C26   A    
C130  C146  S    
C23   C39   A    
C28   C42   A    
C24   C40   A    
C97   O57   S    
C5    C62   S    
C64   C72   T    
O78   C190  S    
Cu2   O7    S    
C7    C64   S    
C18   C54   A    
Cu10  O30   S    
C32   C44   A    
O74   C186  S    
C146  N10   T    
C107  C121  A    
C192  H47   S    
C169  N33   T    
C6    O14   A    
Cu5   O33   S    
C124  C125  A    
C116  C140  A    
