data_mof_unit_61943.cif
_audit_creation_date              2012-12-10T16:51:49-0500
_audit_creation_method            fapswitch 2.2
_symmetry_space_group_name_H-M    P1
_symmetry_Int_Tables_number       1
_space_group_crystal_system       triclinic
_cell_length_a                    18.350442
_cell_length_b                    18.420475
_cell_length_c                    18.301826
_cell_angle_alpha                 91.089862
_cell_angle_beta                  119.316893
_cell_angle_gamma                 119.480873
_cell_volume                      4411.63907456

loop_
_atom_site_label
_atom_site_type_symbol
_atom_type_description
_atom_site_fract_x
_atom_site_fract_y
_atom_site_fract_z
_atom_type_partial_charge
Br1   Br    Br    0.475421 0.279761 0.844030 -0.514718
Br2   Br    Br    0.106067 0.742377 0.656936 -0.430551
Br3   Br    Br    0.894582 0.750061 0.550180 -0.410106
C1    C     C_R   0.777338 0.639468 0.638448 0.905749
C2    C     C_2   0.112320 0.307734 0.303043 -0.293072
C3    C     C_2   0.472538 0.170448 0.723609 0.030958
C4    C     C_R   0.223051 0.361598 0.361152 0.850970
C5    C     C_2   0.488083 0.191234 0.804085 0.115217
C6    C     C_2   0.452129 0.221306 0.664881 -0.132247
C7    C     C_2   0.515604 0.309565 0.695633 -0.277956
C8    C     C_2   0.054550 0.766425 0.717510 0.281410
C9    C     C_2   0.112165 0.811916 0.805312 -0.433676
C10   C     C_2   0.945688 0.730265 0.662871 0.283479
C11   C     C_2   0.888009 0.687862 0.693203 -0.436591
C12   C     C_3   0.594256 0.824039 0.803894 0.111463
C13   C     C_2   0.398727 0.168306 0.177312 0.117651
C14   C     C_2   0.480284 0.196707 0.174427 -0.334369
C15   C     C_2   0.406304 0.233811 0.232563 -0.171252
C16   C     C_R   0.500613 0.638788 0.361876 0.865029
C17   C     C_2   0.497195 0.302734 0.302325 -0.294328
C18   C     C_2   0.442123 0.781578 0.229067 0.124107
C19   C     C_2   0.494146 0.802048 0.190742 -0.328306
C20   C     C_2   0.437141 0.717073 0.276020 -0.211059
C21   C     C_2   0.506588 0.698581 0.311331 -0.315270
C22   C     C_R   0.499763 0.138124 0.861068 0.795773
C23   C     C_3   0.530659 0.793551 0.701069 -0.197931
C24   C     C_R   0.499662 0.861620 0.138986 0.844261
C25   C     C_R   0.777026 0.138567 0.138714 0.844439
C26   C     C_R   0.222790 0.860534 0.861186 0.914657
C27   C     C_R   0.495010 0.140817 0.136133 0.855658
C28   C     C_R   0.501940 0.361940 0.638770 0.862712
C29   C     C_R   0.500171 0.858644 0.858232 0.771848
C30   C     C_R   0.500025 0.359001 0.359026 0.856059
C31   C     C_R   0.500225 0.641705 0.641831 0.791423
C32   C     C_3   0.565819 0.729683 0.802131 -0.182609
C33   C     C_3   0.470764 0.707469 0.797955 0.111551
C34   C     C_3   0.435563 0.770723 0.698049 -0.164117
C35   C     C_3   0.500226 0.801593 0.800725 -0.027616
C36   C     C_3   0.436681 0.660052 0.854033 -0.433161
C37   C     C_3   0.412759 0.566844 0.835234 -0.335917
C38   C     C_3   0.379346 0.519860 0.891738 -0.827069
C39   C     C_3   0.475259 0.094854 0.692157 -0.396266
C40   C     C_3   0.487472 0.097160 0.614703 -0.351106
C41   C     C_3   0.499564 0.024770 0.593578 -0.874130
C42   C     C_3   0.303407 0.072636 0.127732 -0.335000
C43   C     C_3   0.209686 0.057133 0.121094 -0.401600
C44   C     C_3   0.117193 0.960976 0.066144 -0.871640
C45   C     C_3   0.405429 0.675341 0.695082 -0.167971
C46   C     C_3   0.383186 0.819086 0.225190 -0.354859
C47   C     C_3   0.274362 0.764601 0.139162 -0.297757
C48   C     C_3   0.222346 0.811872 0.125470 -0.863433
C49   C     C_3   0.701312 0.909435 0.866979 -0.424581
C50   C     C_3   0.778177 0.910019 0.854327 -0.336164
C51   C     C_3   0.885502 0.994321 0.919038 -0.873729
C52   C     C_3   0.500789 0.699138 0.699411 -0.001566
C53   C     C_2   0.943870 0.162691 0.218622 -0.161487
C54   C     C_2   0.887759 0.195409 0.196485 -0.288444
C55   C     C_2   0.056245 0.218853 0.277405 -0.159253
H1    H     H_    0.078351 0.343878 0.280680 0.152342
H2    H     H_    0.532155 0.770986 0.193855 0.142242
H3    H     H_    0.375395 0.686240 0.284882 0.181144
H4    H     H_    0.571438 0.729702 0.307008 0.165211
H5    H     H_    0.555711 0.828290 0.660567 0.136693
H6    H     H_    0.382353 0.788257 0.656139 0.172778
H7    H     H_    0.327758 0.613090 0.649632 0.144073
H8    H     H_    0.906561 0.091590 0.193917 0.176906
H9    H     H_    0.921703 0.265425 0.221446 0.154361
H10   H     H_    0.093576 0.184986 0.299244 0.177843
H11   H     H_    0.441035 0.557852 0.963816 0.261961
H12   H     H_    0.388529 0.185630 0.595055 0.173360
H13   H     H_    0.309242 0.512941 0.876438 0.255586
H14   H     H_    0.362587 0.452625 0.876815 0.266109
H15   H     H_    0.350570 0.526699 0.763586 0.223183
H16   H     H_    0.481725 0.571331 0.850549 0.234256
H17   H     H_    0.498708 0.700078 0.925711 0.216952
H18   H     H_    0.367615 0.655587 0.838304 0.203046
H19   H     H_    0.569128 0.034835 0.652268 0.256406
H20   H     H_    0.431692 0.958249 0.574888 0.266950
H21   H     H_    0.507012 0.027247 0.536857 0.251154
H22   H     H_    0.419043 0.086393 0.553793 0.226502
H23   H     H_    0.582162 0.344565 0.764468 0.186403
H24   H     H_    0.556016 0.162831 0.632616 0.230235
H25   H     H_    0.541051 0.098229 0.749034 0.188724
H26   H     H_    0.403623 0.030501 0.671174 0.240832
H27   H     H_    0.097397 0.943475 0.997558 0.262323
H28   H     H_    0.133350 0.915400 0.098310 0.267706
H29   H     H_    0.050568 0.952194 0.061603 0.256216
H30   H     H_    0.226741 0.072182 0.188900 0.232999
H31   H     H_    0.189775 0.100959 0.088498 0.227415
H32   H     H_    0.280917 0.052057 0.058433 0.213423
H33   H     H_    0.322809 0.029427 0.162042 0.215255
H34   H     H_    0.077558 0.819178 0.836450 0.131973
H35   H     H_    0.220664 0.825584 0.183796 0.252727
H36   H     H_    0.263813 0.875268 0.116132 0.278110
H37   H     H_    0.142659 0.769410 0.064889 0.247558
H38   H     H_    0.275197 0.752294 0.080014 0.240936
H39   H     H_    0.228585 0.698963 0.143128 0.203018
H40   H     H_    0.376920 0.816397 0.282700 0.172695
H41   H     H_    0.425651 0.890901 0.234715 0.220568
H42   H     H_    0.886666 0.053794 0.907668 0.262779
H43   H     H_    0.911282 0.999097 0.989045 0.259966
H44   H     H_    0.939519 0.992858 0.908518 0.255039
H45   H     H_    0.922658 0.682965 0.759231 0.135954
H46   H     H_    0.779779 0.851661 0.865994 0.226508
H47   H     H_    0.754925 0.905947 0.784910 0.221257
H48   H     H_    0.698411 0.966933 0.853842 0.190775
H49   H     H_    0.725472 0.914799 0.936761 0.218559
H50   H     H_    0.619078 0.712271 0.844261 0.146242
H51   H     H_    0.539235 0.267062 0.197851 0.157630
H52   H     H_    0.337219 0.224441 0.219380 0.154966
H53   H     H_    0.569984 0.316387 0.321749 0.140326
O1    O     O_3   0.500000 0.500000 0.500000 -0.500235
O2    O     O_R   0.270900 0.886160 0.946260 -0.663985
O3    O     O_R   0.560160 0.177420 0.117340 -0.624917
O4    O     O_R   0.729180 0.615300 0.675360 -0.654782
O5    O     O_R   0.440020 0.882760 0.822680 -0.630126
O6    O     O_R   0.439990 0.057240 0.117340 -0.668651
O7    O     O_R   0.560190 0.882760 0.942820 -0.656021
O8    O     O_R   0.729270 0.053840 0.113900 -0.643924
O9    O     O_R   0.270910 0.884750 0.824690 -0.581405
O10   O     O_R   0.560170 0.175430 0.946260 -0.605091
O11   O     O_R   0.440000 0.886160 0.115330 -0.646876
O12   O     O_R   0.439910 0.615300 0.386140 -0.648400
O13   O     O_R   0.270820 0.446200 0.386140 -0.644312
O14   O     O_R   0.560090 0.613880 0.384720 -0.624461
O15   O     O_R   0.439920 0.324620 0.553780 -0.646990
O16   O     O_R   0.560100 0.442800 0.382710 -0.628967
O17   O     O_R   0.560070 0.617290 0.677370 -0.648162
O18   O     O_R   0.439930 0.322630 0.382710 -0.649145
O19   O     O_R   0.439900 0.617290 0.557220 -0.637359
O20   O     O_R   0.560080 0.446200 0.675360 -0.636211
O21   O     O_R   0.729180 0.613880 0.553780 -0.587114
O22   O     O_R   0.270820 0.324620 0.384720 -0.644011
O23   O     O_3   0.500090 0.000040 0.000040 -0.493701
O24   O     O_R   0.440010 0.053840 0.824690 -0.657160
O25   O     O_R   0.560180 0.884750 0.113900 -0.637505
O26   O     O_R   0.729260 0.175430 0.115330 -0.641251
Zn1   Zn    Zn3+2 0.414150 0.543930 0.458110 0.964712
Zn2   Zn    Zn3+2 0.585850 0.541910 0.456060 1.015772
Zn3   Zn    Zn3+2 0.414160 0.370220 0.456060 0.956690
Zn4   Zn    Zn3+2 0.585840 0.543930 0.629770 0.968809
Zn5   Zn    Zn3+2 0.585940 0.956110 0.041940 0.954850
Zn6   Zn    Zn3+2 0.585930 0.129820 0.043980 0.999945
Zn7   Zn    Zn3+2 0.414240 0.958130 0.043980 0.936520
Zn8   Zn    Zn3+2 0.414250 0.956110 0.870280 1.001783

loop_
_geom_bond_atom_site_label_1
_geom_bond_atom_site_label_2
_ccdc_geom_bond_type
C45   C52   S    
O4    Zn4   S    
C5    C22   S    
C9    C26   S    
Br1   C5    S    
O10   Zn6   S    
C1    O4    A    
C32   C33   S    
O11   Zn7   S    
C4    O13   A    
C23   H5    S    
C23   C52   S    
C3    C6    S    
C18   C46   S    
C1    O21   A    
C43   H31   S    
C25   C54   S    
O14   Zn2   S    
O21   Zn2   S    
O12   Zn1   S    
O15   Zn3   S    
C2    C55   D    
C24   O25   A    
C44   H27   S    
O13   Zn1   S    
C41   H19   S    
C4    O22   A    
C19   H2    S    
O5    Zn8   S    
O23   Zn5   S    
C50   H46   S    
C30   O16   A    
C53   C54   D    
O1    Zn3   S    
C28   O20   A    
C32   H50   S    
C51   H43   S    
O23   Zn6   S    
C7    C28   S    
C49   H49   S    
C53   C55   S    
C13   C14   D    
O24   Zn8   S    
O25   Zn5   S    
C20   C21   D    
C36   H17   S    
C45   H7    S    
C6    C7    D    
Br3   C10   S    
C38   H13   S    
C46   H40   S    
C49   H48   S    
C31   C52   S    
C10   C11   D    
C14   C27   S    
O1    Zn2   S    
C51   H42   S    
O16   Zn2   S    
C54   H9    S    
C42   H33   S    
Br2   C8    S    
C12   C32   S    
C24   O11   A    
C9    H34   S    
C43   H30   S    
C41   H21   S    
C26   O9    A    
C2    H1    S    
C32   C52   S    
C44   H28   S    
O1    Zn1   S    
O6    Zn7   S    
C39   H26   S    
C6    H12   S    
C36   C37   S    
C2    C4    S    
C12   C23   S    
C3    C5    D    
C40   H22   S    
C42   C43   S    
C16   O14   A    
C44   H29   S    
O1    Zn4   S    
C40   C41   S    
C12   C35   S    
C34   C35   S    
O17   Zn4   S    
C46   H41   S    
C17   H53   S    
C20   H3    S    
C16   O12   A    
C47   C48   S    
C13   C15   S    
C12   C49   S    
C29   O5    A    
C34   C45   S    
C42   H32   S    
C48   H35   S    
C38   H14   S    
C17   C30   S    
C55   H10   S    
C37   C38   S    
C29   C35   S    
C19   C24   S    
C18   C20   S    
C3    C39   S    
C39   C40   S    
O19   Zn1   S    
O26   Zn6   S    
C34   H6    S    
C49   C50   S    
C38   H11   S    
C27   O3    A    
C30   O18   A    
C40   H24   S    
O23   Zn8   S    
C26   O2    A    
C43   C44   S    
C47   H39   S    
C21   H4    S    
C51   H44   S    
C33   C36   S    
C39   H25   S    
C15   H52   S    
C29   O7    A    
O7    Zn5   S    
C25   O8    A    
C14   H51   S    
C13   C42   S    
C8    C9    D    
C23   C34   S    
C50   C51   S    
C27   O6    A    
C7    H23   S    
O2    Zn7   S    
O3    Zn6   S    
C41   H20   S    
C16   C21   S    
C36   H18   S    
C8    C10   S    
C47   H38   S    
C11   H45   S    
O18   Zn3   S    
C53   H8    S    
C33   C35   S    
C37   H16   S    
C33   C45   S    
C15   C17   D    
C1    C11   S    
C22   O24   A    
O20   Zn4   S    
C48   H36   S    
O23   Zn7   S    
C50   H47   S    
O9    Zn8   S    
C31   O19   A    
O22   Zn3   S    
C31   O17   A    
C46   C47   S    
C25   O26   A    
O8    Zn5   S    
C28   O15   A    
C37   H15   S    
C18   C19   D    
C22   O10   A    
C48   H37   S    
