data_mof_unit_25976.cif
_audit_creation_date              2013-03-05T16:45:51-0500
_audit_creation_method            fapswitch 2.2
_symmetry_space_group_name_H-M    P1
_symmetry_Int_Tables_number       1
_space_group_crystal_system       triclinic
_cell_length_a                    18.371688
_cell_length_b                    18.41867
_cell_length_c                    18.365196
_cell_angle_alpha                 59.756624
_cell_angle_beta                  59.698953
_cell_angle_gamma                 59.817108
_cell_volume                      4370.08183054

loop_
_atom_site_label
_atom_site_type_symbol
_atom_site_description
_atom_site_fract_x
_atom_site_fract_y
_atom_site_fract_z
_atom_type_partial_charge
Zn1   Zn    Zn3+2 0.206620 0.206630 0.380140 1.016874
Zn2   Zn    Zn3+2 0.793380 0.793370 0.619860 1.043515
Zn3   Zn    Zn3+2 0.206630 0.380140 0.206620 1.000124
Zn4   Zn    Zn3+2 0.793370 0.619860 0.793380 1.003231
Zn5   Zn    Zn3+2 0.380140 0.206620 0.206630 1.074682
Zn6   Zn    Zn3+2 0.619860 0.793380 0.793370 1.052862
Zn7   Zn    Zn3+2 0.206620 0.206620 0.206620 1.075139
Zn8   Zn    Zn3+2 0.793380 0.793380 0.793380 1.075589
O1    O     O_3   0.250000 0.250000 0.250000 -0.509543
O2    O     O_3   0.750000 0.750000 0.750000 -0.510378
O3    O     O_R   0.305080 0.134200 0.134200 -0.595531
O4    O     O_R   0.694920 0.865800 0.865800 -0.584083
O5    O     O_R   0.134200 0.134200 0.305080 -0.618886
O6    O     O_R   0.865800 0.865800 0.694920 -0.632927
O7    O     O_R   0.134200 0.305080 0.134200 -0.616746
O8    O     O_R   0.865800 0.694920 0.865800 -0.620714
O9    O     O_R   0.134200 0.305090 0.426530 -0.655002
O10   O     O_R   0.865800 0.694910 0.573470 -0.652405
O11   O     O_R   0.305090 0.426530 0.134200 -0.621263
O12   O     O_R   0.694910 0.573470 0.865800 -0.618749
O13   O     O_R   0.426530 0.134200 0.305090 -0.619536
O14   O     O_R   0.573470 0.865800 0.694910 -0.630613
O15   O     O_R   0.134190 0.426530 0.134200 -0.632961
O16   O     O_R   0.865810 0.573470 0.865800 -0.628801
O17   O     O_R   0.426530 0.134200 0.134190 -0.590944
O18   O     O_R   0.573470 0.865800 0.865810 -0.621645
O19   O     O_R   0.134200 0.134190 0.426530 -0.623950
O20   O     O_R   0.865800 0.865810 0.573470 -0.588933
O21   O     O_R   0.426530 0.305080 0.134210 -0.642343
O22   O     O_R   0.573470 0.694920 0.865790 -0.645832
O23   O     O_R   0.305080 0.134210 0.426530 -0.612385
O24   O     O_R   0.694920 0.865790 0.573470 -0.599691
O25   O     O_R   0.134210 0.426530 0.305080 -0.642729
O26   O     O_R   0.865790 0.573470 0.694920 -0.643260
C1    C     C_R   0.390891 0.106608 0.113584 0.865998
C2    C     C_R   0.609632 0.890823 0.888887 0.891171
C3    C     C_R   0.111383 0.108943 0.390321 0.864982
C4    C     C_R   0.885977 0.893775 0.609238 0.855661
C5    C     C_R   0.109498 0.389622 0.110802 0.854663
C6    C     C_R   0.890224 0.610437 0.889484 0.855062
C7    C     C_R   0.110814 0.390333 0.389853 0.766299
C8    C     C_R   0.889062 0.609674 0.610146 0.762404
C9    C     C_R   0.390506 0.389667 0.110617 0.838236
C10   C     C_R   0.609516 0.610348 0.889072 0.840959
C11   C     C_R   0.389763 0.110660 0.390487 0.873495
C12   C     C_R   0.610217 0.888776 0.609568 0.871520
H1    H     H_    0.293625 0.785055 0.488273 0.164117
H2    H     H_    0.712232 0.211742 0.485180 0.169445
H3    H     H_    0.275310 0.561575 0.812407 0.169806
H4    H     H_    0.722117 0.442507 0.191553 0.169004
H5    H     H_    0.496516 0.786103 0.290961 0.175463
H6    H     H_    0.539417 0.215847 0.703573 0.166714
C13   C     C_R   0.922689 0.187557 0.443606 -0.163516
C14   C     C_R   0.074034 0.812011 0.570280 -0.152750
C15   C     C_R   0.935054 0.382687 0.173810 -0.158898
C16   C     C_R   0.062829 0.620932 0.829099 -0.160749
C17   C     C_R   0.450299 0.188475 0.923941 -0.099038
C18   C     C_R   0.541161 0.813984 0.078148 -0.106185
C19   C     C_R   0.831650 0.228285 0.457007 -0.233452
C20   C     C_R   0.165418 0.769605 0.553093 -0.234660
C21   C     C_R   0.849177 0.380490 0.208047 -0.211403
C22   C     C_R   0.147942 0.624494 0.796376 -0.218256
C23   C     C_R   0.473296 0.231201 0.832011 -0.171976
C24   C     C_R   0.523962 0.772762 0.169959 -0.174907
C25   C     C_R   0.780438 0.177785 0.485131 -0.172490
C26   C     C_R   0.222386 0.819146 0.501217 -0.175134
C27   C     C_R   0.790662 0.441387 0.160916 -0.191509
C28   C     C_R   0.206994 0.562130 0.842578 -0.194640
C29   C     C_R   0.521958 0.181662 0.775234 -0.196513
C30   C     C_R   0.499305 0.821284 0.221858 -0.181746
C31   C     C_R   0.818748 0.085126 0.505230 0.363054
C32   C     C_R   0.189066 0.911934 0.464813 0.327774
C33   C     C_R   0.817536 0.504708 0.077925 0.348601
C34   C     C_R   0.180951 0.496551 0.923572 0.350789
C35   C     C_R   0.549077 0.088592 0.809442 0.326094
C36   C     C_R   0.486051 0.912933 0.183282 0.352305
C37   C     C_R   0.908044 0.041230 0.507316 -0.034753
C38   C     C_R   0.094965 0.957603 0.481061 -0.051016
C39   C     C_R   0.909001 0.501740 0.036803 -0.037757
C40   C     C_R   0.089677 0.499298 0.964392 -0.035338
C41   C     C_R   0.526475 0.042758 0.904121 -0.046654
C42   C     C_R   0.487298 0.958206 0.092854 -0.034426
C43   C     C_R   0.962696 0.093703 0.466476 0.045808
C44   C     C_R   0.037253 0.905944 0.534648 0.056452
C45   C     C_R   0.967084 0.442249 0.087632 0.035212
C46   C     C_R   0.031445 0.559410 0.913950 0.035998
C47   C     C_R   0.474933 0.094530 0.961569 0.027008
C48   C     C_R   0.526349 0.906732 0.037752 0.019635
C49   C     C_R   0.944338 0.948002 0.549160 -0.126616
C50   C     C_R   0.056050 0.052095 0.447873 -0.140332
C51   C     C_R   0.943840 0.556556 0.948136 -0.128575
C52   C     C_R   0.055253 0.443912 0.052699 -0.126621
C53   C     C_R   0.551743 0.948167 0.943764 -0.147041
C54   C     C_R   0.451836 0.052100 0.055453 -0.128086
H7    H     H_    0.961039 0.230362 0.416102 0.114816
H8    H     H_    0.032884 0.769802 0.610525 0.112709
H9    H     H_    0.975546 0.336461 0.216271 0.139113
H10   H     H_    0.022374 0.668013 0.786772 0.141684
H11   H     H_    0.414972 0.229902 0.965218 0.186854
H12   H     H_    0.565393 0.772665 0.039356 0.175066
H13   H     H_    0.801971 0.300028 0.439838 0.153492
H14   H     H_    0.192329 0.697663 0.579693 0.153071
H15   H     H_    0.826701 0.333430 0.273238 0.166077
H16   H     H_    0.169615 0.673624 0.732841 0.165463
H17   H     H_    0.453723 0.303212 0.804651 0.180544
H18   H     H_    0.535628 0.701732 0.199887 0.174803
H19   H     H_    0.205304 0.698354 0.062873 0.129081
H20   H     H_    0.791138 0.299641 0.935223 0.129340
H21   H     H_    0.696781 0.062212 0.198201 0.129519
H22   H     H_    0.299579 0.934386 0.793975 0.128539
H23   H     H_    0.064295 0.204919 0.700436 0.129051
H24   H     H_    0.930592 0.782656 0.298525 0.131341
C55   C     C_R   0.218214 0.622450 0.193762 -0.129640
C56   C     C_R   0.777356 0.382842 0.805251 -0.129170
C57   C     C_R   0.621995 0.191505 0.214028 -0.143916
C58   C     C_R   0.380401 0.804738 0.779856 -0.134842
C59   C     C_R   0.194563 0.218912 0.620060 -0.119628
C60   C     C_R   0.801544 0.769850 0.390192 -0.117313
H25   H     H_    0.286422 0.619363 0.170901 0.124466
H26   H     H_    0.707710 0.390347 0.828112 0.124408
H27   H     H_    0.617893 0.167001 0.282852 0.132034
H28   H     H_    0.386524 0.827692 0.710592 0.129323
H29   H     H_    0.171579 0.287864 0.614141 0.124706
H30   H     H_    0.823770 0.699059 0.403419 0.126326
C61   C     C_R   0.175880 0.581620 0.284216 -0.132407
C62   C     C_R   0.820286 0.424535 0.715335 -0.127718
C63   C     C_R   0.582140 0.282243 0.172979 -0.128498
C64   C     C_R   0.421814 0.714947 0.822295 -0.130272
C65   C     C_R   0.284727 0.176639 0.578722 -0.129005
C66   C     C_R   0.712654 0.814273 0.432516 -0.115742
H31   H     H_    0.211811 0.546963 0.330872 0.111866
H32   H     H_    0.783392 0.464252 0.669065 0.106449
H33   H     H_    0.547160 0.327372 0.210547 0.116169
H34   H     H_    0.459961 0.668855 0.785397 0.111990
H35   H     H_    0.331065 0.213350 0.540808 0.116579
H36   H     H_    0.666455 0.777403 0.478461 0.107929
C67   C     C_R   0.087673 0.584903 0.313937 0.147511
C68   C     C_R   0.910465 0.415367 0.685619 0.150877
C69   C     C_R   0.586223 0.314125 0.084127 0.139170
C70   C     C_R   0.414555 0.685152 0.911916 0.145431
C71   C     C_R   0.314544 0.087447 0.585671 0.134155
C72   C     C_R   0.683878 0.906013 0.415797 0.130675
C73   C     C_R   0.042329 0.629264 0.252494 -0.137596
C74   C     C_R   0.957160 0.364142 0.746544 -0.143870
C75   C     C_R   0.630908 0.254655 0.036646 -0.149501
C76   C     C_R   0.365438 0.745839 0.958599 -0.140113
C77   C     C_R   0.253531 0.041016 0.634361 -0.107545
C78   C     C_R   0.744609 0.952711 0.356068 -0.069557
H37   H     H_    0.974506 0.631555 0.274511 0.120447
H38   H     H_    0.026536 0.357138 0.724621 0.119763
H39   H     H_    0.633669 0.278306 0.968362 0.124311
H40   H     H_    0.360053 0.723874 0.027480 0.121120
H41   H     H_    0.275553 0.972442 0.639476 0.136102
H42   H     H_    0.723488 0.023285 0.343077 0.143864
C79   C     C_R   0.084801 0.670157 0.162188 -0.116130
C80   C     C_R   0.914050 0.322491 0.836317 -0.119936
C81   C     C_R   0.670872 0.164056 0.077833 -0.084808
C82   C     C_R   0.324000 0.835472 0.916006 -0.117517
C83   C     C_R   0.163535 0.083432 0.675741 -0.126263
C84   C     C_R   0.833313 0.908144 0.313892 -0.090754
H43   H     H_    0.049742 0.704191 0.114908 0.136497
H44   H     H_    0.950175 0.283190 0.883196 0.136685
H45   H     H_    0.704860 0.118237 0.041250 0.144666
H46   H     H_    0.286369 0.882181 0.952095 0.136608
H47   H     H_    0.116578 0.047538 0.713054 0.135942
H48   H     H_    0.880065 0.944350 0.268210 0.142088
C85   C     C_R   0.172629 0.666804 0.132849 -0.108720
C86   C     C_R   0.824262 0.331807 0.865647 -0.108777
C87   C     C_R   0.666293 0.132473 0.166470 -0.082362
C88   C     C_R   0.331488 0.864906 0.826735 -0.107177
C89   C     C_R   0.134063 0.172284 0.668585 -0.115345
C90   C     C_R   0.861783 0.816817 0.331021 -0.126203
C91   C     C_R   0.988271 0.590820 0.464354 -0.272860
C92   C     C_R   0.011590 0.409158 0.535670 -0.272487
C93   C     C_R   0.591195 0.464768 0.987210 -0.224167
C94   C     C_R   0.408920 0.535216 0.011793 -0.224167
C95   C     C_R   0.464690 0.987771 0.591143 -0.220283
C96   C     C_R   0.534920 0.009809 0.409285 -0.207278
H49   H     H_    0.980758 0.660950 0.436515 0.177299
H50   H     H_    0.019251 0.338989 0.563508 0.173501
H51   H     H_    0.661618 0.437177 0.979134 0.184197
H52   H     H_    0.338503 0.562736 0.019866 0.181885
H53   H     H_    0.437259 0.980748 0.661372 0.182145
H54   H     H_    0.562206 0.016826 0.339066 0.198125
C97   C     C_R   0.944280 0.552586 0.554963 -0.042048
C98   C     C_R   0.055351 0.447454 0.445015 -0.040328
C99   C     C_R   0.552365 0.555229 0.944358 -0.052795
C100  C     C_R   0.447745 0.444764 0.054702 -0.050417
C101  C     C_R   0.554904 0.943231 0.552652 -0.045182
C102  C     C_R   0.444824 0.054658 0.447699 -0.050048
C103  C     C_R   0.955850 0.460513 0.591071 -0.010811
C104  C     C_R   0.043478 0.539587 0.408844 -0.012568
C105  C     C_R   0.460042 0.590875 0.956460 -0.030675
C106  C     C_R   0.540248 0.408988 0.041869 -0.028723
C107  C     C_R   0.590303 0.953507 0.460692 -0.019827
C108  C     C_R   0.409091 0.043065 0.540013 -0.022390
N1    N     N_R   0.774605 0.041467 0.502153 0.199962
O27   O     O_R   0.687980 0.063381 0.536667 -0.358787
O28   O     O_R   0.816197 0.003641 0.441626 -0.405023
N2    N     N_R   0.253003 0.957163 0.411053 0.180383
O29   O     O_R   0.291915 0.963610 0.449227 -0.382667
O30   O     O_R   0.285667 0.974134 0.324956 -0.414992
N3    N     N_R   0.748349 0.576935 0.043203 0.171446
O31   O     O_R   0.688300 0.560345 0.041570 -0.447337
O32   O     O_R   0.732207 0.657281 0.035747 -0.436520
N4    N     N_R   0.250628 0.421819 0.955634 0.170030
O33   O     O_R   0.262784 0.343048 0.962391 -0.442347
O34   O     O_R   0.313803 0.434550 0.956308 -0.452691
N5    N     N_R   0.598840 0.043147 0.745970 0.176738
O35   O     O_R   0.556719 0.035044 0.712397 -0.378052
O36   O     O_R   0.684692 0.027274 0.708509 -0.415879
N6    N     N_R   0.492965 0.952794 0.228600 0.202483
O37   O     O_R   0.461334 0.927762 0.315535 -0.356518
O38   O     O_R   0.553919 0.990230 0.186768 -0.399577

loop_
_geom_bond_atom_site_label_1
_geom_bond_atom_site_label_2
_geom_bond_distance
_ccdc_geom_bond_type
Zn7   O5    1.935523 S    
N3    O31   1.301109 A    
C95   H53   1.084334 S    
C15   C45   1.419490 A    
C57   H27   1.081861 S    
H3    C28   1.083224 S    
C13   H7    1.082321 S    
Zn3   O15   1.941156 S    
C68   C103  1.477651 S    
O26   C8    1.273002 A    
C16   H10   1.079126 S    
C57   C87   1.398916 A    
C77   C83   1.397454 A    
C14   C44   1.417158 A    
C13   C19   1.389130 A    
C14   C20   1.386861 A    
C38   C50   1.425354 A    
Zn7   O3    1.937385 S    
N3    O32   1.300865 A    
C4    C49   1.462010 S    
C91   C97   1.397460 A    
C58   H28   1.082201 S    
C3    C50   1.455385 S    
O14   C12   1.281700 A    
C42   C54   1.417427 A    
C55   C85   1.398940 A    
C21   H15   1.082061 S    
C41   C53   1.425135 A    
C56   H26   1.082158 S    
C46   C51   1.421079 A    
O10   C8    1.285157 A    
C56   C62   1.398567 A    
C42   C48   1.409804 A    
C55   C61   1.398557 A    
Zn3   O25   1.937932 S    
C28   C34   1.397694 A    
C17   H11   1.079977 S    
C47   C54   1.414727 A    
C6    C51   1.458174 S    
Zn1   O23   1.939404 S    
C57   C63   1.398184 A    
C61   H31   1.083282 S    
Zn2   O24   1.939406 S    
C78   C84   1.396839 A    
N1    O28   1.301005 A    
C59   C89   1.398736 A    
C40   C46   1.415771 A    
H6    C29   1.083396 S    
C81   C87   1.397309 A    
C65   H35   1.083116 S    
C16   C46   1.419974 A    
C2    C53   1.457239 S    
C26   C32   1.397325 A    
C23   C29   1.384404 A    
C79   C85   1.397747 A    
N2    O29   1.300617 A    
O11   C9    1.284571 A    
C32   C38   1.433652 A    
C72   C107  1.478014 S    
C20   C26   1.383485 A    
Zn3   O11   1.937189 S    
C27   C33   1.398579 A    
H5    C30   1.082810 S    
C84   H48   1.082364 S    
C94   C105  1.386130 A    
O4    C2    1.283593 A    
C59   C65   1.398599 A    
C70   C105  1.477369 S    
C81   H45   1.082321 S    
H1    C26   1.083409 S    
O5    C3    1.281845 A    
C69   C106  1.476532 S    
C82   H46   1.082289 S    
C92   C103  1.386601 A    
C93   H51   1.084121 S    
C36   N6    1.436591 S    
Zn7   O7    1.938467 S    
H20   C86   1.081359 S    
C80   H44   1.082314 S    
Zn8   O8    1.938469 S    
C34   C40   1.435535 A    
O21   C9    1.274996 A    
C98   C104  1.416700 A    
O22   C10   1.274885 A    
C78   H42   1.082135 S    
C20   H14   1.082492 S    
O12   C10   1.284363 A    
C45   C52   1.420499 A    
H21   C87   1.081159 S    
C97   C103  1.416966 A    
O13   C11   1.282351 A    
C18   C24   1.390445 A    
H19   C85   1.081479 S    
C95   C101  1.397991 A    
C58   C88   1.398561 A    
C39   C51   1.422172 A    
C19   H13   1.082641 S    
C72   C78   1.402665 A    
C37   C43   1.410802 A    
Zn1   O1    1.944326 S    
C21   C27   1.382555 A    
C95   C108  1.385937 A    
C36   C42   1.428169 A    
N4    O33   1.300412 A    
C35   C41   1.433093 A    
C65   C71   1.403437 A    
C60   H30   1.082375 S    
C61   C67   1.403486 A    
C25   C31   1.401442 A    
C74   H38   1.082778 S    
C93   C99   1.398142 A    
C22   H16   1.081072 S    
C79   H43   1.082502 S    
C17   C47   1.414240 A    
H4    C27   1.083245 S    
C71   C108  1.476971 S    
C35   N5    1.425927 S    
C74   C80   1.397564 A    
C94   H52   1.084114 S    
C91   H49   1.084259 S    
Zn5   O1    1.946210 S    
C60   C66   1.398835 A    
C64   H34   1.083089 S    
C32   N2    1.426080 S    
C67   C104  1.477083 S    
C75   C81   1.397416 A    
C101  C107  1.415805 A    
C73   C79   1.397675 A    
C60   C90   1.398608 A    
Zn8   O4    1.937387 S    
C37   C49   1.421348 A    
C15   H9    1.079859 S    
N5    O35   1.300600 A    
C84   C90   1.396556 A    
C18   H12   1.081831 S    
C55   H25   1.082254 S    
C96   H54   1.084405 S    
C56   C86   1.398633 A    
C40   C52   1.420549 A    
O7    C5    1.275733 A    
C75   H39   1.082903 S    
C83   C89   1.397446 A    
O8    C6    1.274733 A    
C96   C102  1.397738 A    
C76   H40   1.082657 S    
H22   C88   1.081334 S    
C8    C97   1.457840 S    
O18   C2    1.273658 A    
Zn3   O1    1.952337 S    
O17   C1    1.268271 A    
C24   C30   1.388434 A    
C30   C36   1.402425 A    
H2    C25   1.082915 S    
Zn5   O17   1.943158 S    
C23   H17   1.082758 S    
C44   C49   1.415720 A    
C58   C64   1.398627 A    
C12   C101  1.456746 S    
Zn4   O2    1.952340 S    
O6    C4    1.290632 A    
Zn2   O2    1.944323 S    
Zn5   O21   1.940275 S    
C92   H50   1.084267 S    
C5    C52   1.458720 S    
C31   C37   1.430031 A    
C34   N4    1.432628 S    
C1    C54   1.464428 S    
Zn7   O1    1.957160 S    
C43   C50   1.412926 A    
C48   C53   1.413488 A    
C62   C68   1.403678 A    
C94   C100  1.398266 A    
Zn8   O6    1.935525 S    
C93   C106  1.385351 A    
Zn6   O22   1.940274 S    
C19   C25   1.386663 A    
C66   C72   1.404244 A    
O24   C12   1.272622 A    
C66   H36   1.083139 S    
C70   C76   1.403276 A    
C63   H33   1.083106 S    
C17   C23   1.387211 A    
N6    O38   1.301672 A    
Zn2   O10   1.941962 S    
C33   C39   1.437223 A    
C18   C48   1.415032 A    
Zn6   O2    1.946211 S    
C24   H18   1.082674 S    
Zn6   O18   1.943156 S    
C76   C82   1.397586 A    
C102  C108  1.415642 A    
C96   C107  1.387119 A    
C91   C104  1.386266 A    
Zn1   O9    1.941963 S    
C22   C28   1.382180 A    
C13   C43   1.416846 A    
O25   C7    1.272948 A    
O3    C1    1.293396 A    
C59   H29   1.082158 S    
C68   C74   1.403337 A    
C92   C98   1.397255 A    
C82   C88   1.397421 A    
C41   C47   1.420019 A    
H24   C90   1.080414 S    
C9    C100  1.457329 S    
O19   C3    1.273939 A    
Zn4   O16   1.941154 S    
O15   C5    1.285930 A    
C15   C21   1.386969 A    
N5    O36   1.300177 A    
C39   C45   1.417656 A    
C7    C98   1.457915 S    
C29   C35   1.397740 A    
C16   C22   1.387701 A    
Zn4   O26   1.937930 S    
C67   C73   1.403675 A    
N1    O27   1.300500 A    
C77   H41   1.082952 S    
O9    C7    1.285224 A    
C38   C44   1.419938 A    
O16   C6    1.286951 A    
C62   H32   1.083099 S    
C71   C77   1.403411 A    
C10   C99   1.456621 S    
C100  C106  1.415656 A    
Zn4   O12   1.937187 S    
C83   H47   1.082339 S    
C11   C102  1.456975 S    
C73   H37   1.083390 S    
C31   N1    1.433623 S    
Zn5   O13   1.938455 S    
N6    O37   1.300391 A    
C33   N3    1.433573 S    
Zn8   O2    1.957159 S    
O23   C11   1.272095 A    
Zn1   O19   1.942246 S    
C80   C86   1.397333 A    
Zn2   O20   1.942247 S    
O20   C4    1.269937 A    
N4    O34   1.301243 A    
C14   H8    1.081893 S    
C63   C69   1.403101 A    
N2    O30   1.300467 A    
C99   C105  1.415689 A    
C69   C75   1.403484 A    
C64   C70   1.403629 A    
H23   C89   1.081327 S    
Zn6   O14   1.938458 S    
