data_mof_unit_63157.cif
_audit_creation_date              2012-12-10T18:53:53-0500
_audit_creation_method            fapswitch 2.2
_symmetry_space_group_name_H-M    P1
_symmetry_Int_Tables_number       1
_space_group_crystal_system       triclinic
_cell_length_a                    19.464202
_cell_length_b                    19.461021
_cell_length_c                    19.461537
_cell_angle_alpha                 85.050575
_cell_angle_beta                  95.199943
_cell_angle_gamma                 89.971462
_cell_volume                      7313.92769246

loop_
_atom_site_label
_atom_site_type_symbol
_atom_type_description
_atom_site_fract_x
_atom_site_fract_y
_atom_site_fract_z
_atom_type_partial_charge
C1    C     C_R   0.311856 0.492352 0.492012 0.502645
C2    C     C_2   0.465381 0.980130 0.500618 -0.137375
C3    C     C_2   0.521763 0.018593 0.511111 -0.136822
C4    C     C_R   0.688157 0.507157 0.508035 0.502192
C5    C     C_R   0.512317 0.236839 0.511505 0.039156
C6    C     C_R   0.763616 0.505885 0.514280 0.037472
C7    C     C_R   0.798249 0.464218 0.473023 -0.127786
C8    C     C_R   0.869619 0.460330 0.479980 -0.114667
C9    C     C_R   0.907671 0.498675 0.527805 0.040749
C10   C     C_R   0.873417 0.539267 0.570134 -0.118356
C11   C     C_R   0.801596 0.543274 0.563142 -0.125798
C12   C     C_R   0.471188 0.905237 0.499249 0.040706
C13   C     C_R   0.131893 0.457031 0.539715 -0.112733
C14   C     C_R   0.203501 0.456862 0.542620 -0.128576
C15   C     C_R   0.197448 0.521623 0.429836 -0.124168
C16   C     C_R   0.508440 0.492170 0.688753 0.501315
C17   C     C_R   0.125878 0.521006 0.426592 -0.119259
C18   C     C_R   0.092873 0.490019 0.482010 0.040312
C19   C     C_2   0.983192 0.496748 0.533721 -0.137287
C20   C     C_2   0.017544 0.491803 0.477756 -0.136903
C21   C     C_R   0.236665 0.489954 0.488084 0.038635
C22   C     C_R   0.492730 0.514794 0.235733 0.037096
C23   C     C_R   0.425875 0.871047 0.453943 -0.118122
C24   C     C_R   0.538877 0.474278 0.204926 -0.127090
C25   C     C_R   0.542161 0.481560 0.133891 -0.114506
C26   C     C_R   0.498737 0.528940 0.092264 0.040713
C27   C     C_R   0.453598 0.570591 0.122790 -0.118307
C28   C     C_R   0.492045 0.508168 0.311117 0.503178
C29   C     C_R   0.450228 0.563299 0.194292 -0.126476
C30   C     C_R   0.538883 0.540829 0.871465 -0.112598
C31   C     C_R   0.538839 0.543378 0.799857 -0.128485
C32   C     C_R   0.485532 0.430558 0.801040 -0.123958
C33   C     C_R   0.486424 0.427667 0.872664 -0.119381
C34   C     C_R   0.432827 0.800175 0.450413 -0.125923
C35   C     C_R   0.511748 0.483256 0.907991 0.040310
C36   C     C_2   0.499986 0.534909 0.016854 -0.137467
C37   C     C_2   0.510483 0.479196 0.983198 -0.136805
C38   C     C_R   0.511323 0.488628 0.764187 0.039104
C39   C     C_R   0.508501 0.311965 0.508474 0.501082
C40   C     C_R   0.491216 0.688187 0.492087 0.503472
C41   C     C_R   0.484718 0.762992 0.492922 0.037060
C42   C     C_R   0.528985 0.797364 0.539246 -0.127730
C43   C     C_R   0.522036 0.867773 0.542689 -0.114699
C44   C     C_R   0.462763 0.125194 0.539571 -0.112707
C45   C     C_R   0.460160 0.196597 0.539346 -0.128531
C46   C     C_R   0.568001 0.204835 0.485590 -0.123882
C47   C     C_R   0.571015 0.133448 0.486664 -0.119313
C48   C     C_R   0.517826 0.093467 0.512292 0.040313
H1    H     H_    0.568786 0.769861 0.573392 0.134038
H2    H     H_    0.894903 0.426755 0.448335 0.106509
H3    H     H_    0.416970 0.220284 0.559981 0.130449
H4    H     H_    0.096243 0.545892 0.381425 0.104179
H5    H     H_    0.573005 0.437198 0.235679 0.134720
H6    H     H_    0.559359 0.588471 0.772403 0.129518
H7    H     H_    0.464752 0.387356 0.774562 0.131887
H8    H     H_    0.514087 0.428292 0.011111 0.118864
H9    H     H_    0.420273 0.607816 0.091209 0.104641
H10   H     H_    0.560613 0.583464 0.898164 0.106923
H11   H     H_    0.414793 0.595706 0.217049 0.131198
H12   H     H_    0.614193 0.109449 0.466254 0.104072
H13   H     H_    0.488309 0.584686 0.988420 0.118468
H14   H     H_    0.579161 0.450462 0.111700 0.106885
H15   H     H_    0.609247 0.234922 0.464575 0.130955
H16   H     H_    0.466130 0.382602 0.900423 0.104332
H17   H     H_    0.572760 0.995056 0.514670 0.118743
H18   H     H_    0.385994 0.899359 0.420602 0.104927
H19   H     H_    0.422162 0.094938 0.561537 0.107090
H20   H     H_    0.397544 0.774565 0.414848 0.131893
H21   H     H_    0.556148 0.892709 0.579824 0.106614
H22   H     H_    0.989779 0.493356 0.426598 0.118647
H23   H     H_    0.770287 0.434055 0.435612 0.133788
H24   H     H_    0.414836 0.004269 0.488947 0.118643
H25   H     H_    0.232826 0.431741 0.587824 0.130715
H26   H     H_    0.222037 0.546802 0.386784 0.131229
H27   H     H_    0.902265 0.568603 0.607704 0.104872
H28   H     H_    0.107181 0.430959 0.582195 0.107196
H29   H     H_    0.775926 0.575152 0.596113 0.132246
H30   H     H_    0.010814 0.503347 0.583765 0.118716
O1    O     O_3   0.500000 0.500000 0.500000 -0.438619
O2    O     O_R   0.467830 0.341070 0.546160 -0.548990
O3    O     O_R   0.450560 0.655630 0.450550 -0.548662
O4    O     O_R   0.545840 0.347670 0.467560 -0.549430
O5    O     O_R   0.535760 0.655640 0.535740 -0.550314
O6    O     O_R   0.545870 0.536170 0.656040 -0.549079
O7    O     O_R   0.450550 0.545430 0.340370 -0.550031
O8    O     O_R   0.347960 0.451240 0.536460 -0.547635
O9    O     O_R   0.655630 0.467150 0.467130 -0.551675
O10   O     O_R   0.340780 0.536140 0.450970 -0.549950
O11   O     O_R   0.655640 0.545460 0.545430 -0.548416
O12   O     O_R   0.467850 0.451260 0.656340 -0.549240
O13   O     O_R   0.535740 0.467130 0.347260 -0.549129
Zn1   Zn    Zn3+2 0.558310 0.558310 0.558290 0.929489
Zn2   Zn    Zn3+2 0.446830 0.436990 0.558720 0.930033
Zn3   Zn    Zn3+2 0.558290 0.446420 0.446420 0.928281
Zn4   Zn    Zn3+2 0.436570 0.558290 0.436570 0.930611

loop_
_geom_bond_atom_site_label_1
_geom_bond_atom_site_label_2
_ccdc_geom_bond_type
C1    C21   S    
O4    Zn3   S    
C22   C29   A    
C27   C29   A    
C41   C42   A    
C19   C20   D    
C2    C12   S    
C7    C8    A    
C4    O9    A    
C16   O12   A    
O5    Zn1   S    
C12   C23   A    
C26   C27   A    
C30   C35   A    
C23   H18   S    
C36   C37   D    
C35   C37   S    
O1    Zn2   S    
C12   C43   A    
C7    H23   S    
C30   C31   A    
O3    Zn4   S    
C45   H3    S    
O9    Zn3   S    
C3    C48   S    
C16   O6    A    
C11   H29   S    
C47   H12   S    
C37   H8    S    
C9    C19   S    
C29   H11   S    
C8    C9    A    
C32   C38   A    
C9    C10   A    
C32   H7    S    
C1    O10   A    
O10   Zn4   S    
C43   H21   S    
C22   C28   S    
C13   C14   A    
C40   O5    A    
C20   H22   S    
C3    H17   S    
C34   C41   A    
C2    H24   S    
C17   H4    S    
C14   H25   S    
C24   C25   A    
O1    Zn3   S    
C4    C6    S    
C27   H9    S    
C34   H20   S    
C6    C11   A    
C24   H5    S    
C5    C45   A    
C19   H30   S    
O1    Zn4   S    
O8    Zn2   S    
C10   H27   S    
C47   C48   A    
C13   H28   S    
C23   C34   A    
C17   C18   A    
O11   Zn1   S    
O1    Zn1   S    
C13   C18   A    
C26   C36   S    
C40   C41   S    
C5    C39   S    
C22   C24   A    
C42   C43   A    
C36   H13   S    
C8    H2    S    
C44   C45   A    
C14   C21   A    
O12   Zn2   S    
C4    O11   A    
C1    O8    A    
C15   C17   A    
C46   C47   A    
C40   O3    A    
C39   O4    A    
C6    C7    A    
C5    C46   A    
C31   C38   A    
C46   H15   S    
C39   O2    A    
C2    C3    D    
C25   C26   A    
C32   C33   A    
O13   Zn3   S    
O7    Zn4   S    
C33   H16   S    
C30   H10   S    
C33   C35   A    
C28   O13   A    
C18   C20   S    
C25   H14   S    
C31   H6    S    
C10   C11   A    
C42   H1    S    
C15   C21   A    
C15   H26   S    
C28   O7    A    
C44   H19   S    
O6    Zn1   S    
O2    Zn2   S    
C44   C48   A    
C16   C38   S    
