data_mof_unit_16283.cif
_audit_creation_date              2012-12-10T19:03:40-0500
_audit_creation_method            fapswitch 2.2
_symmetry_space_group_name_H-M    P1
_symmetry_Int_Tables_number       1
_space_group_crystal_system       triclinic
_cell_length_a                    15.90409
_cell_length_b                    10.784447
_cell_length_c                    9.733611
_cell_angle_alpha                 93.625646
_cell_angle_beta                  90.34353
_cell_angle_gamma                 94.273594
_cell_volume                      1661.40781225

loop_
_atom_site_label
_atom_site_type_symbol
_atom_type_description
_atom_site_fract_x
_atom_site_fract_y
_atom_site_fract_z
_atom_type_partial_charge
C1    C     C_R   0.498545 0.262659 0.496481 0.780938
C2    C     C_3   0.945434 0.384914 0.614467 -0.221461
C3    C     C_3   0.916288 0.471315 0.500328 0.112921
C4    C     C_3   0.963455 0.604316 0.523191 -0.190484
C5    C     C_3   0.059393 0.595264 0.505134 -0.508952
C6    C     C_1   0.823717 0.481528 0.502582 -0.061937
C7    C     C_1   0.175104 0.465721 0.498366 -0.061773
C8    C     C_1   0.250792 0.479597 0.497939 -0.222139
C9    C     C_R   0.559380 0.074626 0.568497 0.099564
C10   C     C_R   0.500694 0.128921 0.489235 -0.068377
C11   C     C_R   0.442210 0.051725 0.408343 -0.251083
C12   C     C_R   0.340591 0.495120 0.499387 0.817950
C13   C     C_R   0.440403 0.922516 0.412492 -0.194588
C14   C     C_R   0.494346 0.869895 0.503127 -0.076065
C15   C     C_R   0.554391 0.946821 0.577003 0.039014
C16   C     C_3   0.568651 0.957563 0.727575 -0.243198
C17   C     C_3   0.578868 0.097657 0.718754 -0.468709
C18   C     C_R   0.567627 0.552459 0.076182 0.169979
C19   C     C_R   0.433544 0.444526 0.064068 0.183938
C20   C     C_R   0.435219 0.445771 0.917720 -0.082560
C21   C     C_R   0.569767 0.542708 0.931137 0.202260
C22   C     C_3   0.621363 0.661888 0.922773 -0.535901
C23   C     C_R   0.497179 0.736617 0.502529 0.767527
C24   C     C_3   0.614986 0.683141 0.081203 0.114146
C25   C     C_R   0.659262 0.497097 0.500420 0.807945
C26   C     C_3   0.043530 0.401660 0.633474 -0.087993
C27   C     C_3   0.042109 0.390028 0.361965 -0.132919
C28   C     C_3   0.943769 0.411526 0.355985 -0.056822
C29   C     C_1   0.748608 0.489261 0.501912 -0.143590
C30   C     C_3   0.082476 0.457145 0.499715 0.240898
Cu1   Cu    Cu3+1 0.500000 0.499980 0.640670 0.947329
Cu2   Cu    Cu3+1 0.500000 0.500020 0.359330 0.927317
H1    H     H_    0.927209 0.286256 0.580211 0.137070
H2    H     H_    0.057111 0.473536 0.720018 0.170816
H3    H     H_    0.943501 0.666309 0.445054 0.147735
H4    H     H_    0.395504 0.089848 0.347421 0.145784
H5    H     H_    0.395009 0.864166 0.349247 0.152905
H6    H     H_    0.627163 0.913394 0.752135 0.130048
H7    H     H_    0.530802 0.149417 0.776357 0.213668
H8    H     H_    0.644864 0.136900 0.737494 0.191425
H9    H     H_    0.383268 0.403221 0.854981 0.146156
H10   H     H_    0.685575 0.645281 0.884517 0.193620
H11   H     H_    0.588153 0.725892 0.860760 0.206490
H12   H     H_    0.074071 0.438450 0.276326 0.148914
H13   H     H_    0.095269 0.651508 0.589408 0.183619
H14   H     H_    0.079356 0.637938 0.408028 0.177157
N1    N     N_R   0.500530 0.500930 0.147930 -0.206737
N2    N     N_R   0.500530 0.500890 0.852020 -0.193865
O1    O     O_R   0.500000 0.319640 0.618810 -0.578093
O2    O     O_R   0.500010 0.319680 0.381230 -0.593445
O3    O     O_R   0.379430 0.499990 0.618840 -0.572507
O4    O     O_R   0.379440 0.500030 0.381260 -0.588129
O5    O     O_R   0.499990 0.680320 0.618770 -0.564854
O6    O     O_R   0.500000 0.680360 0.381190 -0.603703
O7    O     O_R   0.620560 0.499970 0.618740 -0.565386
O8    O     O_R   0.620570 0.500010 0.381160 -0.576646
C31   C     C_1   0.903085 0.405607 0.748039 0.251249
N3    N     N_1   0.869806 0.421441 0.852403 -0.253997
C32   C     C_1   0.491425 0.917319 0.801903 0.317431
N4    N     N_1   0.430249 0.886139 0.858063 -0.314592
C33   C     C_3   0.352801 0.379340 0.114447 -0.361671
C34   C     C_3   0.366416 0.250548 0.164210 -0.322883
C35   C     C_3   0.332895 0.144225 0.062633 -0.904693
H15   H     H_    0.340966 0.053371 0.106694 0.249834
H16   H     H_    0.264807 0.150530 0.041018 0.272030
H17   H     H_    0.368943 0.147201 0.965399 0.266700
H18   H     H_    0.434395 0.238815 0.177674 0.257159
H19   H     H_    0.333826 0.242503 0.263941 0.204725
H20   H     H_    0.318018 0.438488 0.185856 0.194990
H21   H     H_    0.304276 0.366879 0.030891 0.156815
C36   C     C_3   0.080567 0.281774 0.681431 -0.408878
C37   C     C_3   0.160978 0.308696 0.771206 -0.360256
C38   C     C_3   0.221068 0.205414 0.749339 -0.831881
H22   H     H_    0.191483 0.116122 0.783426 0.260290
H23   H     H_    0.238518 0.193371 0.639326 0.249641
H24   H     H_    0.279760 0.231036 0.809119 0.237225
H25   H     H_    0.195384 0.398253 0.749173 0.231041
H26   H     H_    0.143290 0.316877 0.881596 0.208242
H27   H     H_    0.033184 0.230241 0.744281 0.193189
H28   H     H_    0.092852 0.217318 0.593249 0.225526
C39   C     C_3   0.703460 0.691124 0.152868 -0.308471
C40   C     C_3   0.708949 0.757235 0.299484 -0.351971
C41   C     C_3   0.798893 0.767613 0.353622 -0.866564
H29   H     H_    0.823603 0.675087 0.341179 0.269804
H30   H     H_    0.838815 0.834094 0.294748 0.267543
H31   H     H_    0.800711 0.800045 0.464280 0.244090
H32   H     H_    0.688521 0.852777 0.305256 0.217899
H33   H     H_    0.667830 0.707855 0.371326 0.234821
H34   H     H_    0.725227 0.595755 0.157268 0.207471
H35   H     H_    0.749291 0.743254 0.087804 0.203429
C42   C     C_3   0.564067 0.799140 0.115940 -0.323293
C43   C     C_3   0.611295 0.922836 0.077265 -0.378023
C44   C     C_3   0.563853 0.036456 0.120158 -0.814136
H36   H     H_    0.495699 0.019664 0.095171 0.268576
H37   H     H_    0.572591 0.058537 0.232184 0.264840
H38   H     H_    0.589751 0.118129 0.065744 0.246322
H39   H     H_    0.675722 0.938186 0.120852 0.226885
H40   H     H_    0.622065 0.920135 0.967382 0.219926
H41   H     H_    0.501464 0.786202 0.063915 0.202614
H42   H     H_    0.552408 0.810308 0.226219 0.230489
C45   C     C_3   0.058905 0.250020 0.329527 -0.389525
C46   C     C_3   0.151463 0.219825 0.318049 -0.376106
C47   C     C_3   0.157546 0.081838 0.276291 -0.856924
H43   H     H_    0.224358 0.059047 0.279362 0.247134
H44   H     H_    0.121841 0.022984 0.349028 0.256410
H45   H     H_    0.131980 0.059490 0.170447 0.261043
H46   H     H_    0.183369 0.277318 0.240194 0.225123
H47   H     H_    0.185008 0.238618 0.417595 0.231934
H48   H     H_    0.025205 0.189881 0.402792 0.202655
H49   H     H_    0.030234 0.221798 0.226626 0.215305
C48   C     C_1   0.889255 0.295643 0.319735 0.206507
N5    N     N_1   0.846648 0.205711 0.291710 -0.298192
C49   C     C_1   0.928723 0.493571 0.243208 0.184577
N6    N     N_1   0.917511 0.557209 0.154481 -0.273366
C50   C     C_1   0.944568 0.667850 0.657280 0.259362
N7    N     N_1   0.929749 0.717903 0.762070 -0.280637

loop_
_geom_bond_atom_site_label_1
_geom_bond_atom_site_label_2
_ccdc_geom_bond_type
C33   H21   S    
C35   H16   S    
C45   C46   S    
C18   C21   A    
C38   H22   S    
C4    C50   S    
C48   N5    T    
C25   O8    A    
C3    C6    S    
C18   N1    A    
C36   H27   S    
C39   C40   S    
C2    C31   S    
C43   H40   S    
C7    C8    T    
C44   H36   S    
C34   H18   S    
C18   C24   S    
C3    C28   S    
C49   N6    T    
C19   N1    A    
C45   H48   S    
C40   H32   S    
C17   H7    S    
Cu2   O4    S    
C37   H26   S    
C37   H25   S    
C27   H12   S    
C26   H2    S    
C22   H11   S    
C16   C17   S    
C46   H47   S    
C42   H42   S    
C1    O2    A    
C13   H5    S    
C21   N2    A    
C39   H34   S    
C4    H3    S    
C32   N4    T    
C44   H37   S    
C7    C30   S    
C21   C22   S    
C27   C30   S    
C26   C36   S    
C38   H23   S    
C33   C34   S    
Cu1   O1    S    
C20   H9    S    
Cu2   O6    S    
C36   H28   S    
C12   O4    A    
C43   H39   S    
C23   O5    A    
C28   C48   S    
C25   C29   S    
C47   H44   S    
C10   C11   A    
C42   C43   S    
C37   C38   S    
C45   H49   S    
C5    H13   S    
C27   C45   S    
C17   H8    S    
C14   C23   S    
C24   C39   S    
C34   C35   S    
C41   H29   S    
C50   N7    T    
C8    C12   S    
C41   H31   S    
C46   H46   S    
C2    C26   S    
Cu1   O5    S    
Cu2   O2    S    
C20   N2    A    
C39   H35   S    
C2    H1    S    
C9    C17   S    
C41   H30   S    
C26   C30   S    
C44   H38   S    
Cu1   N2    S    
Cu2   N1    S    
C22   C24   S    
C3    C4    S    
C24   C42   S    
C47   H43   S    
C12   O3    A    
C23   O6    A    
C5    C30   S    
C9    C10   A    
C33   H20   S    
C11   H4    S    
Cu1   Cu2   S    
C1    C10   S    
C25   O7    A    
Cu1   O3    S    
C4    C5    S    
C5    H14   S    
C34   H19   S    
Cu1   O7    S    
C19   C20   A    
C2    C3    S    
C9    C15   A    
C36   C37   S    
C11   C13   A    
C31   N3    T    
C22   H10   S    
C19   C33   S    
C40   H33   S    
C43   C44   S    
C38   H24   S    
Cu2   O8    S    
C47   H45   S    
C46   C47   S    
C35   H17   S    
C28   C49   S    
C35   H15   S    
C6    C29   T    
C40   C41   S    
C27   C28   S    
C14   C15   A    
C42   H41   S    
C13   C14   A    
C1    O1    A    
C16   C32   S    
C15   C16   S    
C16   H6    S    
