data_mof_unit_51066.cif
_audit_creation_date              2013-03-05T15:54:52-0500
_audit_creation_method            fapswitch 2.2
_symmetry_space_group_name_H-M    P1
_symmetry_Int_Tables_number       1
_space_group_crystal_system       triclinic
_cell_length_a                    12.352002
_cell_length_b                    13.238956
_cell_length_c                    14.263642
_cell_angle_alpha                 93.313287
_cell_angle_beta                  107.629818
_cell_angle_gamma                 116.958858
_cell_volume                      1928.41979697

loop_
_atom_site_label
_atom_site_type_symbol
_atom_site_description
_atom_site_fract_x
_atom_site_fract_y
_atom_site_fract_z
_atom_type_partial_charge
O1    O     O_R   0.545970 0.684450 0.528810 -0.581293
O2    O     O_R   0.687130 0.639470 0.490120 -0.603873
C1    C     C_R   0.650018 0.713916 0.507393 0.782922
O3    O     O_R   0.519670 0.535100 0.660030 -0.583381
O4    O     O_R   0.660830 0.490120 0.621340 -0.599947
C2    C     C_R   0.619773 0.518676 0.686888 0.797961
Cu1   Cu    Cu3+1 0.416420 0.526630 0.522910 0.926377
Cu2   Cu    Cu3+1 0.583580 0.473370 0.477090 0.919523
O5    O     O_R   0.312870 0.360530 0.509880 -0.585240
O6    O     O_R   0.454030 0.315550 0.471190 -0.585193
O7    O     O_R   0.339170 0.509880 0.378660 -0.588374
O8    O     O_R   0.480330 0.464900 0.339970 -0.595627
C3    C     C_R   0.345684 0.285121 0.485660 0.837520
C4    C     C_R   0.382652 0.484777 0.313463 0.793703
C5    C     C_R   0.691941 0.536258 0.794622 -0.051656
C6    C     C_R   0.324552 0.487577 0.208180 -0.048821
C7    C     C_R   0.720294 0.577998 0.970470 -0.196524
C8    C     C_R   0.649752 0.562087 0.868831 -0.193704
C9    C     C_R   0.806453 0.529122 0.823110 -0.260218
C10   C     C_R   0.881575 0.548490 0.925113 0.089244
C11   C     C_R   0.834616 0.569773 0.999023 0.160198
C12   C     C_R   0.998891 0.542431 0.955111 0.065108
C13   C     C_R   0.058009 0.542465 0.057447 0.059378
C14   C     C_R   0.009834 0.566309 0.129337 -0.200136
C15   C     C_R   0.901258 0.581283 0.100481 -0.194943
C16   C     C_R   0.059841 0.537784 0.886585 -0.223485
C17   C     C_R   0.169825 0.524834 0.915756 -0.229671
C18   C     C_R   0.221353 0.513625 0.013296 0.166764
C19   C     C_R   0.164811 0.520619 0.084675 0.091494
C20   C     C_R   0.329237 0.495548 0.040392 -0.198220
C21   C     C_R   0.381419 0.483710 0.137683 -0.197903
C22   C     C_R   0.215266 0.502746 0.180428 -0.252489
H1    H     H_    0.867466 0.599290 0.157861 0.139775
H2    H     H_    0.169685 0.498378 0.234667 0.145516
H3    H     H_    0.466661 0.472698 0.157906 0.150893
H4    H     H_    0.213680 0.521927 0.861019 0.147515
H5    H     H_    0.684772 0.595590 0.026741 0.130462
H6    H     H_    0.561591 0.568546 0.848378 0.150274
H7    H     H_    0.833043 0.504522 0.764006 0.156717
H8    H     H_    0.055996 0.577230 0.209331 0.140639
H9    H     H_    0.027310 0.547599 0.810322 0.154222
H10   H     H_    0.373863 0.491528 0.986532 0.130499
C23   C     C_R   0.154177 0.961145 0.378604 0.494461
H11   H     H_    0.337294 0.099026 0.383197 0.170000
H12   H     H_    0.931330 0.755925 0.313671 0.178363
C24   C     C_R   0.251244 0.161635 0.466376 -0.127338
C25   C     C_R   0.722172 0.921789 0.562876 -0.192761
C26   C     C_R   0.809707 0.038937 0.578087 -0.147202
C27   C     C_R   0.913344 0.072863 0.545097 -0.179654
C28   C     C_R   0.928751 0.989215 0.492206 0.109581
C29   C     C_R   0.829279 0.871125 0.465179 0.088717
C30   C     C_R   0.039113 0.018860 0.464778 0.014578
C31   C     C_R   0.042802 0.932994 0.403105 0.057343
C32   C     C_R   0.934527 0.821242 0.365504 -0.212277
C33   C     C_R   0.828555 0.791401 0.394479 -0.217732
C34   C     C_R   0.147115 0.131289 0.498507 -0.263685
C35   C     C_R   0.256258 0.076293 0.408132 -0.273960
C36   C     C_R   0.732625 0.836702 0.508917 -0.105603
H13   H     H_    0.152555 0.198103 0.549492 0.162181
H14   H     H_    0.647486 0.897821 0.595203 0.151923
H15   H     H_    0.977671 0.165343 0.560338 0.129540
H16   H     H_    0.799704 0.103929 0.618658 0.145366
H17   H     H_    0.745182 0.705588 0.358598 0.174966
C37   C     C_R   0.253979 0.686978 0.660253 -0.316323
H18   H     H_    0.442352 0.707266 0.678952 0.122975
H19   H     H_    0.075338 0.725810 0.692489 0.158822
H20   H     H_    0.293951 0.759777 0.722993 0.142418
N1    N     N_R   0.290690 0.566960 0.557640 -0.176353
C38   C     C_R   0.654854 0.341777 0.363965 0.066236
C39   C     C_R   0.732651 0.307356 0.333743 -0.250837
C40   C     C_R   0.867976 0.367093 0.384528 -0.199464
C41   C     C_R   0.927946 0.462857 0.466860 -0.007389
C42   C     C_R   0.843853 0.495228 0.495040 0.289718
C43   C     C_R   0.067545 0.527387 0.522339 -0.040746
C44   C     C_R   0.119160 0.622545 0.604115 0.170194
C45   C     C_R   0.036186 0.653037 0.629873 -0.303203
C46   C     C_R   0.902136 0.590916 0.576921 -0.195795
C47   C     C_R   0.159358 0.502164 0.501082 0.005834
C48   C     C_R   0.338345 0.657592 0.635727 0.055715
N2    N     N_R   0.709100 0.433710 0.442970 -0.206052
H21   H     H_    0.128569 0.431433 0.440126 0.123564
H22   H     H_    0.550059 0.294683 0.323886 0.128839
H23   H     H_    0.923213 0.336574 0.357877 0.137087
H24   H     H_    0.687773 0.233904 0.270588 0.149912
H25   H     H_    0.847833 0.621185 0.603497 0.208711
O9    O     O_3   0.159780 0.878549 0.319359 -0.585519
C49   C     C_3   0.223029 0.828885 0.383904 -0.330383
H26   H     H_    0.165646 0.781571 0.429499 0.168595
H27   H     H_    0.324157 0.895761 0.434408 0.165554
H28   H     H_    0.230945 0.764674 0.336920 0.195080

loop_
_geom_bond_atom_site_label_1
_geom_bond_atom_site_label_2
_geom_bond_distance
_ccdc_geom_bond_type
C5    C8    1.400979 A    
C49   H26   1.114220 S    
H18   C48   1.081832 S    
C9    C10   1.402485 A    
Cu1   Cu2   2.696617 S    
C31   C32   1.394601 A    
C6    C21   1.400575 A    
Cu1   O7    1.938886 S    
C16   C17   1.387488 A    
C13   C19   1.422454 A    
C18   C19   1.418232 A    
C19   C22   1.401880 A    
C20   C21   1.393101 A    
O7    C4    1.300911 A    
O5    C3    1.300825 A    
C38   H22   1.081616 S    
C2    C5    1.466620 S    
C23   C31   1.412447 A    
C33   H17   1.079754 S    
C28   C30   1.421652 A    
C13   C14   1.416945 A    
C39   C40   1.394970 A    
C4    C6    1.466055 S    
C39   H24   1.082535 S    
N1    C48   1.354530 A    
Cu1   N1    2.032143 S    
C46   H25   1.065063 S    
O3    Cu1   1.948953 S    
C7    C8    1.392289 A    
C40   H23   1.078215 S    
C12   C13   1.420516 A    
N1    C47   1.372512 A    
C27   H15   1.077105 S    
C43   C44   1.416168 A    
C37   H20   1.083842 S    
C14   C15   1.386899 A    
O3    C2    1.299763 A    
O9    C49   1.410773 S    
C37   C44   1.402610 A    
C7    C11   1.402841 A    
O1    C1    1.301629 A    
C22   H2    1.076254 S    
C5    C9    1.397202 A    
C44   C45   1.390846 A    
C26   H16   1.082881 S    
C25   C26   1.385654 A    
H11   C35   1.083446 S    
Cu2   O8    1.948953 S    
H19   C45   1.084536 S    
C28   C29   1.415697 A    
C29   C36   1.418773 A    
C7    H5    1.084124 S    
C45   C46   1.387242 A    
C9    H7    1.075932 S    
C41   C43   1.445344 A    
C26   C27   1.389195 A    
C10   C12   1.422367 A    
H12   C32   1.083215 S    
C49   H27   1.114269 S    
C24   C35   1.398804 A    
C12   C16   1.416599 A    
C37   C48   1.390093 A    
C21   H3    1.083119 S    
C25   H14   1.083290 S    
C30   C31   1.422606 A    
Cu1   O5    1.940264 S    
C11   C15   1.390781 A    
C32   C33   1.384905 A    
O1    Cu1   1.949315 S    
C23   O9    1.382690 S    
O2    Cu2   1.940265 S    
O8    C4    1.300363 A    
C41   C42   1.435539 A    
O6    C3    1.297694 A    
O4    Cu2   1.938886 S    
C17   H4    1.084489 S    
C6    C22   1.396632 A    
C34   H13   1.076085 S    
C18   C20   1.403675 A    
O2    C1    1.300857 A    
C8    H6    1.083119 S    
C40   C41   1.408768 A    
C25   C36   1.403497 A    
C47   H21   1.077093 S    
O4    C2    1.301698 A    
C14   H8    1.077041 S    
C42   N2    1.391952 A    
C29   C33   1.412086 A    
C38   C39   1.393613 A    
C23   C35   1.397302 A    
C1    C36   1.470587 S    
C10   C11   1.418278 A    
Cu2   O6    1.949314 S    
C27   C28   1.418863 A    
C43   C47   1.424607 A    
C49   H28   1.109283 S    
C24   C34   1.391256 A    
C17   C18   1.391358 A    
Cu2   N2    2.020390 S    
C42   C46   1.407089 A    
C3    C24   1.460689 S    
C20   H10   1.084089 S    
C38   N2    1.358259 A    
C30   C34   1.398088 A    
C16   H9    1.077286 S    
C15   H1    1.084212 S    
