data_mof_unit_31559.cif
_audit_creation_date              2012-12-10T17:24:28-0500
_audit_creation_method            fapswitch 2.2
_symmetry_space_group_name_H-M    P1
_symmetry_Int_Tables_number       1
_space_group_crystal_system       triclinic
_cell_length_a                    31.64601
_cell_length_b                    18.241367
_cell_length_c                    25.745561
_cell_angle_alpha                 89.94676
_cell_angle_beta                  144.529641
_cell_angle_gamma                 89.994277
_cell_volume                      8624.16232891

loop_
_atom_site_label
_atom_site_type_symbol
_atom_type_description
_atom_site_fract_x
_atom_site_fract_y
_atom_site_fract_z
_atom_type_partial_charge
C1    C     C_R   0.860256 0.860088 0.110282 0.783891
C2    C     C_R   0.317861 0.128917 0.674882 -0.161853
C3    C     C_R   0.733686 0.178290 0.001807 0.072798
C4    C     C_R   0.323033 0.230377 0.060489 0.072555
C5    C     C_R   0.745176 0.699958 0.953094 0.075189
C6    C     C_R   0.766301 0.321681 0.998166 0.072752
C7    C     C_R   0.305960 0.752574 0.018537 0.077594
C8    C     C_R   0.195688 0.196272 0.945273 -0.158291
C9    C     C_R   0.804225 0.803888 0.054302 -0.153043
C10   C     C_R   0.804246 0.196093 0.054392 -0.153747
C11   C     C_R   0.195212 0.803415 0.945480 -0.149854
C12   C     C_R   0.695782 0.696107 0.945684 -0.152951
C13   C     C_R   0.342276 0.898091 0.668231 -0.151677
C14   C     C_R   0.304652 0.303492 0.055119 -0.157842
C15   C     C_R   0.303938 0.695790 0.053841 -0.150784
C16   C     C_R   0.695744 0.303887 0.945604 -0.153964
C17   C     C_R   0.957489 0.129000 0.011648 -0.136628
C18   C     C_R   0.042692 0.871179 0.989234 -0.138109
C19   C     C_R   0.450147 0.626462 0.003136 -0.139703
C20   C     C_R   0.547326 0.372266 0.993511 -0.135576
C21   C     C_R   0.935306 0.191304 0.962450 -0.143590
C22   C     C_R   0.062732 0.808328 0.036658 -0.131821
C23   C     C_R   0.426688 0.687877 0.952026 -0.134724
C24   C     C_R   0.671532 0.114510 0.327840 -0.173867
C25   C     C_R   0.572053 0.311075 0.045454 -0.142241
C26   C     C_R   0.934187 0.190976 0.907408 -0.142026
C27   C     C_R   0.061556 0.808120 0.089403 -0.146985
C28   C     C_R   0.428847 0.688218 0.900324 -0.147716
C29   C     C_R   0.573617 0.312000 0.100936 -0.149285
C30   C     C_R   0.955862 0.128592 0.901928 -0.142256
C31   C     C_R   0.040769 0.870979 0.095399 -0.145678
C32   C     C_R   0.453565 0.626674 0.898524 -0.144418
C33   C     C_R   0.549421 0.373565 0.103665 -0.140743
C34   C     C_R   0.977756 0.064201 0.950598 0.070082
C35   C     C_R   0.182130 0.371448 0.325216 -0.160466
C36   C     C_R   0.021122 0.935880 0.048684 0.072875
C37   C     C_R   0.475918 0.562806 0.948149 0.073487
C38   C     C_R   0.524874 0.436832 0.052165 0.071575
C39   C     C_R   0.978121 0.064333 0.005454 0.069439
C40   C     C_R   0.021725 0.935939 0.994804 0.068090
C41   C     C_R   0.474888 0.562860 0.001592 0.067150
C42   C     C_R   0.524422 0.436342 0.997227 0.068012
C43   C     C_R   0.000065 0.000135 0.946543 -0.143743
C44   C     C_R   0.999790 0.000191 0.053574 -0.141907
C45   C     C_R   0.500218 0.499450 0.946409 -0.143622
C46   C     C_R   0.859328 0.581680 0.639996 -0.156736
C47   C     C_R   0.499781 0.499981 0.053276 -0.145953
C48   C     C_R   0.999907 0.000227 0.109050 0.788348
C49   C     C_R   0.000073 0.000054 0.891032 0.790012
C50   C     C_R   0.499898 0.500291 0.108928 0.789315
C51   C     C_R   0.500107 0.499302 0.890954 0.787647
C52   C     C_R   0.000032 0.999914 0.391813 0.772446
C53   C     C_R   0.999990 0.000082 0.608207 0.776084
C54   C     C_R   0.500026 0.500036 0.391810 0.775905
C55   C     C_R   0.499983 0.499967 0.608202 0.772884
C56   C     C_3   0.000023 0.930364 0.483117 -0.123103
C57   C     C_R   0.826527 0.383791 0.672036 -0.171548
C58   C     C_3   0.000044 0.069613 0.516942 -0.121892
C59   C     C_3   0.940242 0.965472 0.457573 -0.179834
C60   C     C_3   0.059827 0.034504 0.542487 -0.178832
C61   C     C_3   0.559813 0.465289 0.542554 -0.178832
C62   C     C_3   0.440224 0.534735 0.457493 -0.178949
C63   C     C_3   0.500024 0.430421 0.517073 -0.121873
C64   C     C_3   0.500011 0.569603 0.482972 -0.121109
C65   C     C_3   0.059802 0.965269 0.577279 -0.179214
C66   C     C_3   0.940267 0.034706 0.422785 -0.179883
C67   C     C_3   0.559792 0.534578 0.577209 -0.179754
C68   C     C_R   0.157690 0.601893 0.331773 -0.151865
C69   C     C_3   0.440245 0.465447 0.422843 -0.179757
C70   C     C_3   0.000017 0.000320 0.550898 0.050481
C71   C     C_3   0.000045 0.999660 0.449160 0.051116
C72   C     C_3   0.500002 0.499773 0.550890 0.050786
C73   C     C_3   0.500031 0.500247 0.449152 0.049541
C74   C     C_R   0.132768 0.259425 0.311104 -0.229282
C75   C     C_R   0.896560 0.707204 0.665400 -0.234161
C76   C     C_R   0.874378 0.268782 0.688448 -0.243331
C77   C     C_R   0.115863 0.722408 0.314669 -0.232406
C78   C     C_R   0.604300 0.792483 0.331879 -0.238319
C79   C     C_R   0.713651 0.897617 0.440444 -0.211922
C80   C     C_R   0.367356 0.240636 0.688786 -0.229232
C81   C     C_R   0.384108 0.777574 0.685345 -0.233374
C82   C     C_R   0.625016 0.230776 0.311385 -0.242601
C83   C     C_R   0.128662 0.316961 0.270998 0.279023
C84   C     C_R   0.914875 0.633431 0.691544 0.268660
C85   C     C_R   0.881896 0.330727 0.727841 0.277466
C86   C     C_R   0.103052 0.655275 0.277047 0.279671
C87   C     C_R   0.586831 0.865988 0.303722 0.286226
C88   C     C_R   0.371491 0.183247 0.728990 0.279132
C89   C     C_R   0.396907 0.844703 0.722965 0.279015
C90   C     C_R   0.260066 0.132748 0.581985 -0.213476
C91   C     C_R   0.616917 0.168331 0.271978 0.275057
C92   C     C_3   0.088570 0.319466 0.140941 -0.779466
C93   C     C_3   0.013218 0.557006 0.757809 -0.764885
C94   C     C_3   0.965497 0.407662 0.864427 -0.831831
C95   C     C_3   0.992662 0.583009 0.159117 -0.777920
C96   C     C_3   0.500996 0.934617 0.163794 -0.829345
C97   C     C_3   0.411823 0.182619 0.859152 -0.783484
C98   C     C_3   0.507306 0.916946 0.840943 -0.777584
C99   C     C_3   0.554279 0.114295 0.132852 -0.837655
C100  C     C_R   0.276263 0.885168 0.577164 -0.209011
C101  C     C_R   0.139547 0.140153 0.889636 0.782692
C102  C     C_R   0.733130 0.123621 0.420364 -0.217122
C103  C     C_R   0.239848 0.367538 0.418058 -0.212178
C104  C     C_R   0.787098 0.602510 0.560725 -0.202973
C105  C     C_R   0.765747 0.375414 0.579449 -0.220809
C106  C     C_R   0.223718 0.614825 0.422834 -0.210078
C107  C     C_R   0.732068 0.824179 0.471149 0.075689
C108  C     C_R   0.254425 0.191231 0.540401 0.073994
C109  C     C_R   0.262876 0.817999 0.538003 0.072321
C110  C     C_R   0.742017 0.186642 0.460543 0.077883
C111  C     C_R   0.245531 0.308901 0.459535 0.073224
C112  C     C_R   0.139212 0.859641 0.889680 0.783498
C113  C     C_R   0.768250 0.675786 0.529061 0.073630
C114  C     C_R   0.757649 0.313115 0.539243 0.078269
C115  C     C_R   0.237113 0.681996 0.461999 0.072587
C116  C     C_R   0.191120 0.254343 0.405369 0.045879
C117  C     C_R   0.823570 0.729248 0.583151 0.041844
C118  C     C_R   0.812632 0.259129 0.594335 0.047228
C119  C     C_R   0.182447 0.736386 0.407306 0.043537
C120  C     C_R   0.676760 0.770647 0.416164 0.043130
C121  C     C_R   0.308890 0.245725 0.594528 0.045939
C122  C     C_R   0.317539 0.763606 0.592700 0.043659
C123  C     C_R   0.860337 0.139945 0.110305 0.781169
C124  C     C_R   0.687160 0.240759 0.405452 0.047853
C125  C     C_R   0.804772 0.803330 0.554459 -0.128568
C126  C     C_R   0.195930 0.196006 0.446236 -0.116854
C127  C     C_R   0.195748 0.803865 0.445868 -0.117679
C128  C     C_R   0.804426 0.196370 0.554422 -0.118597
C129  C     C_R   0.304039 0.304071 0.553668 -0.116932
C130  C     C_R   0.695378 0.696647 0.445673 -0.129344
C131  C     C_R   0.695468 0.303586 0.445369 -0.117863
C132  C     C_R   0.304247 0.696134 0.554134 -0.117362
C133  C     C_R   0.757950 0.850339 0.091862 -0.149321
C134  C     C_R   0.360620 0.359719 0.110432 0.782425
C135  C     C_R   0.105269 0.290018 0.881161 -0.151830
C136  C     C_R   0.135272 0.740655 0.958946 -0.176823
C137  C     C_R   0.716811 0.107438 0.004142 -0.143095
C138  C     C_R   0.395224 0.209771 0.119510 -0.154679
C139  C     C_R   0.741992 0.649723 0.908020 -0.149991
C140  C     C_R   0.783166 0.392516 0.995785 -0.141884
C141  C     C_R   0.361910 0.756633 0.036865 -0.165368
C142  C     C_R   0.708747 0.845976 0.083687 -0.152409
C143  C     C_R   0.088733 0.361882 0.878517 -0.146455
C144  C     C_R   0.131707 0.681742 0.989840 -0.147978
C145  C     C_R   0.639754 0.639902 0.889716 0.783705
C146  C     C_R   0.647102 0.090780 0.952098 -0.138602
C147  C     C_R   0.412425 0.137259 0.124935 -0.126301
C148  C     C_R   0.791174 0.654112 0.916160 -0.153371
C149  C     C_R   0.852836 0.409123 0.047685 -0.138056
C150  C     C_R   0.363239 0.813355 0.001930 -0.154533
C151  C     C_R   0.358146 0.084477 0.069564 -0.135767
C152  C     C_R   0.844612 0.707958 0.969472 -0.139892
C153  C     C_R   0.906818 0.355725 0.102023 -0.144792
C154  C     C_R   0.309144 0.866645 0.947910 -0.156238
C155  C     C_R   0.655338 0.792104 0.030420 -0.141542
C156  C     C_R   0.639653 0.360040 0.889695 0.781683
C157  C     C_R   0.143612 0.413811 0.936983 -0.151265
C158  C     C_R   0.185239 0.627862 0.042775 -0.139115
C159  C     C_R   0.593097 0.144151 0.897688 -0.144902
C160  C     C_R   0.286571 0.103656 0.009212 -0.145486
C161  C     C_R   0.849497 0.757374 0.015451 -0.141886
C162  C     C_R   0.891322 0.285344 0.104447 -0.153427
C163  C     C_R   0.253633 0.863882 0.929067 -0.143659
C164  C     C_R   0.650489 0.742648 0.984499 -0.141766
C165  C     C_R   0.214846 0.395000 0.995584 -0.138563
C166  C     C_R   0.242645 0.632478 0.065049 -0.153583
C167  C     C_R   0.360403 0.640001 0.110225 0.784241
C168  C     C_R   0.608619 0.214572 0.895374 -0.154408
C169  C     C_R   0.268016 0.176391 0.004948 0.074336
C170  C     C_R   0.799794 0.754391 0.007754 0.075890
C171  C     C_R   0.821079 0.267324 0.053129 0.075965
C172  C     C_R   0.251110 0.806888 0.963904 0.078946
C173  C     C_R   0.700203 0.745617 0.992215 0.075911
C174  C     C_R   0.232662 0.323051 0.996804 0.076352
C175  C     C_R   0.246965 0.691237 0.033499 0.077663
C176  C     C_R   0.678899 0.232638 0.946816 0.075794
C177  C     C_R   0.140007 0.139619 0.390345 0.788184
C178  C     C_R   0.642215 0.918249 0.359570 -0.153256
C179  C     C_R   0.860912 0.859457 0.611336 0.783257
C180  C     C_R   0.860587 0.140206 0.610811 0.788537
C181  C     C_R   0.139661 0.860061 0.389675 0.787041
C182  C     C_R   0.639210 0.640488 0.388859 0.784953
C183  C     C_R   0.359961 0.360434 0.609579 0.788635
C184  C     C_R   0.360338 0.639939 0.610325 0.786281
C185  C     C_R   0.639340 0.359746 0.389045 0.787924
C186  C     C_R   0.754809 0.800060 0.046856 0.074299
C187  C     C_R   0.177423 0.269342 0.940215 0.074856
C188  C     C_R   0.192348 0.745816 0.979312 0.079961
H1    H     H_    0.108850 0.936789 0.641580 0.136638
H2    H     H_    0.255585 0.437363 0.040376 0.128651
H3    H     H_    0.023375 0.530575 0.188563 0.242292
H4    H     H_    0.475645 0.845502 0.186149 0.234984
H5    H     H_    0.441836 0.942204 0.098375 0.242525
H6    H     H_    0.524913 0.910152 0.152076 0.236065
H7    H     H_    0.524267 0.989767 0.194067 0.249830
H8    H     H_    0.474214 0.213048 0.858167 0.208988
H9    H     H_    0.461887 0.178182 0.933253 0.237245
H10   H     H_    0.375211 0.136698 0.833275 0.239444
H11   H     H_    0.384806 0.235764 0.840845 0.251789
H12   H     H_    0.493719 0.810302 0.853760 0.210944
H13   H     H_    0.282917 0.589110 0.106173 0.112660
H14   H     H_    0.556513 0.923260 0.914838 0.235798
H15   H     H_    0.476592 0.969382 0.811452 0.242188
H16   H     H_    0.524822 0.905502 0.817962 0.251553
H17   H     H_    0.520015 0.206132 0.141109 0.215780
H18   H     H_    0.501897 0.119245 0.059145 0.244842
H19   H     H_    0.561059 0.055853 0.150504 0.246310
H20   H     H_    0.599193 0.131613 0.151667 0.240907
H21   H     H_    0.565013 0.254450 0.853189 0.123348
H22   H     H_    0.076549 0.759037 0.125573 0.139683
H23   H     H_    0.916523 0.239302 0.868960 0.165965
H24   H     H_    0.593522 0.264848 0.141930 0.154831
H25   H     H_    0.411460 0.736364 0.861602 0.140313
H26   H     H_    0.958208 0.132228 0.054329 0.119343
H27   H     H_    0.043433 0.868162 0.948014 0.121034
H28   H     H_    0.448808 0.629659 0.043730 0.125014
H29   H     H_    0.891212 0.063181 0.358490 0.136259
H30   H     H_    0.546379 0.368620 0.950625 0.120642
H31   H     H_    0.919067 0.240043 0.967208 0.139612
H32   H     H_    0.078865 0.759439 0.032193 0.131541
H33   H     H_    0.407035 0.735594 0.952641 0.133082
H34   H     H_    0.589956 0.262779 0.042529 0.137394
H35   H     H_    0.955187 0.131554 0.859280 0.123230
H36   H     H_    0.039918 0.867841 0.136516 0.118619
H37   H     H_    0.455099 0.630036 0.858116 0.121726
H38   H     H_    0.550193 0.370731 0.146402 0.125145
H39   H     H_    0.000008 0.873123 0.468497 0.154156
H40   H     H_    0.608833 0.562944 0.641452 0.134859
H41   H     H_    0.000048 0.126857 0.531546 0.153816
H42   H     H_    0.891166 0.937158 0.423611 0.136380
H43   H     H_    0.108899 0.062811 0.576424 0.136571
H44   H     H_    0.608875 0.436792 0.576548 0.137985
H45   H     H_    0.391157 0.563226 0.423491 0.137394
H46   H     H_    0.500024 0.373198 0.531791 0.154827
H47   H     H_    0.500001 0.626826 0.468245 0.154825
H48   H     H_    0.321033 0.083001 0.704631 0.133380
H49   H     H_    0.630671 0.975514 0.341000 0.151547
H50   H     H_    0.667175 0.064885 0.300798 0.141715
H51   H     H_    0.391194 0.437083 0.358617 0.136980
H52   H     H_    0.350264 0.949563 0.696314 0.138786
H53   H     H_    0.871792 0.524988 0.661233 0.147299
H54   H     H_    0.178917 0.417578 0.295621 0.133326
H55   H     H_    0.149692 0.550421 0.303686 0.138634
H56   H     H_    0.829399 0.431999 0.699202 0.143597
H57   H     H_    0.090121 0.218526 0.267707 0.110278
H58   H     H_    0.940556 0.746394 0.709849 0.140145
H59   H     H_    0.917146 0.227898 0.732422 0.103770
H60   H     H_    0.073138 0.763317 0.270624 0.115062
H61   H     H_    0.560585 0.752955 0.286494 0.135203
H62   H     H_    0.246350 0.060642 0.966105 0.135220
H63   H     H_    0.410081 0.281456 0.732145 0.110409
H64   H     H_    0.426828 0.736660 0.729394 0.115089
H65   H     H_    0.581985 0.271394 0.267514 0.102767
H66   H     H_    0.753891 0.940530 0.477778 0.152956
H67   H     H_    0.220043 0.089282 0.543252 0.125834
H68   H     H_    0.235709 0.928217 0.538140 0.132601
H69   H     H_    0.773593 0.080439 0.459993 0.126711
H70   H     H_    0.279770 0.411106 0.456836 0.126191
H71   H     H_    0.746593 0.560131 0.524980 0.148675
H72   H     H_    0.724851 0.418159 0.539854 0.127075
H73   H     H_    0.892737 0.797552 0.057179 0.116116
H74   H     H_    0.264276 0.571780 0.461851 0.132360
H75   H     H_    0.882844 0.711109 0.975814 0.136650
H76   H     H_    0.371281 0.028400 0.072957 0.148795
H77   H     H_    0.310741 0.910867 0.921460 0.129094
H78   H     H_    0.960836 0.368830 0.142139 0.146018
H79   H     H_    0.131127 0.468815 0.937413 0.143804
H80   H     H_    0.617097 0.788970 0.024063 0.136360
H81   H     H_    0.539035 0.130982 0.857417 0.145788
H82   H     H_    0.182070 0.582056 0.066269 0.129626
H83   H     H_    0.798116 0.893631 0.133471 0.120272
H84   H     H_    0.934905 0.245445 0.146583 0.123296
H85   H     H_    0.060801 0.251291 0.836768 0.134883
H86   H     H_    0.092038 0.780975 0.917362 0.106947
H87   H     H_    0.757144 0.064245 0.046405 0.127380
H88   H     H_    0.439267 0.248961 0.162246 0.134918
H89   H     H_    0.701804 0.606453 0.866372 0.119365
H90   H     H_    0.742843 0.435722 0.953560 0.127589
H91   H     H_    0.405588 0.716788 0.079170 0.107132
H92   H     H_    0.711930 0.884749 0.118596 0.131214
H93   H     H_    0.033184 0.377118 0.831492 0.155685
H94   H     H_    0.086447 0.677055 0.971179 0.128592
H95   H     H_    0.213075 0.906959 0.887326 0.112931
H96   H     H_    0.635091 0.036299 0.954396 0.138301
H97   H     H_    0.468020 0.121933 0.172012 0.163539
H98   H     H_    0.787949 0.615379 0.881186 0.130258
H99   H     H_    0.864825 0.463575 0.045309 0.138253
H100  H     H_    0.407557 0.817233 0.018839 0.132732
H101  H     H_    0.026333 0.286680 0.141640 0.208359
H102  H     H_    0.038621 0.324953 0.066919 0.241017
H103  H     H_    0.115458 0.266543 0.158297 0.251709
H104  H     H_    0.125332 0.365594 0.167723 0.238318
H105  H     H_    0.025039 0.655372 0.808442 0.233296
H106  H     H_    0.607261 0.702459 0.942789 0.116323
H107  H     H_    0.073063 0.549798 0.820821 0.241262
H108  H     H_    0.000385 0.574487 0.704608 0.253406
H109  H     H_    0.986972 0.503503 0.739858 0.238296
H110  H     H_    0.986414 0.300929 0.858171 0.214592
H111  H     H_    0.018332 0.402830 0.938061 0.245117
H112  H     H_    0.924630 0.428175 0.851762 0.247087
H113  H     H_    0.971884 0.447307 0.838348 0.244847
H114  H     H_    0.006199 0.689662 0.146263 0.210358
H115  H     H_    0.943418 0.576714 0.085221 0.235993
H116  H     H_    0.975205 0.594423 0.182174 0.251304
N1    N     N_2   0.069144 0.321238 0.175967 -0.324901
N2    N     N_2   0.989280 0.612058 0.770558 -0.322626
N3    N     N_2   0.943990 0.336468 0.823336 -0.328566
N4    N     N_2   0.036426 0.642947 0.183402 -0.320152
N5    N     N_2   0.513240 0.887069 0.220342 -0.296936
N6    N     N_2   0.431109 0.179098 0.824025 -0.324008
N7    N     N_2   0.463511 0.857022 0.816618 -0.319834
N8    N     N_2   0.552240 0.159990 0.176785 -0.326494
O1    O     O_3   0.999990 0.000000 0.249990 -0.491830
O2    O     O_R   0.585440 0.646160 0.804690 -0.636330
O3    O     O_R   0.585440 0.353840 0.804690 -0.636695
O4    O     O_R   0.414560 0.646160 0.195310 -0.638863
O5    O     O_R   0.085440 0.146150 0.366190 -0.637754
O6    O     O_R   0.914560 0.853850 0.633810 -0.642802
O7    O     O_R   0.914560 0.146150 0.633810 -0.638897
O8    O     O_R   0.085440 0.853850 0.366190 -0.635562
O9    O     O_R   0.585440 0.646150 0.366190 -0.640887
O10   O     O_R   0.414560 0.353850 0.633810 -0.637876
O11   O     O_R   0.414560 0.646150 0.633810 -0.634939
O12   O     O_3   0.000010 0.000000 0.750010 -0.489918
O13   O     O_R   0.585440 0.353850 0.366190 -0.637459
O14   O     O_R   0.853820 0.085430 0.073070 -0.636060
O15   O     O_R   0.146180 0.914570 0.926930 -0.634382
O16   O     O_R   0.146180 0.085430 0.926930 -0.634630
O17   O     O_R   0.853820 0.914570 0.073070 -0.634957
O18   O     O_R   0.353820 0.585430 0.073070 -0.636680
O19   O     O_R   0.646180 0.414570 0.926930 -0.636794
O20   O     O_R   0.646180 0.585430 0.926930 -0.635179
O21   O     O_R   0.353820 0.414570 0.073070 -0.634525
O22   O     O_R   0.146150 0.914540 0.365390 -0.634722
O23   O     O_3   0.499990 0.500000 0.249990 -0.490038
O24   O     O_R   0.853850 0.085460 0.634610 -0.636575
O25   O     O_R   0.853850 0.914540 0.634610 -0.636170
O26   O     O_R   0.146150 0.085460 0.365390 -0.631912
O27   O     O_R   0.646150 0.414540 0.365390 -0.637787
O28   O     O_R   0.353850 0.585460 0.634610 -0.635349
O29   O     O_R   0.353850 0.414540 0.634610 -0.632070
O30   O     O_R   0.646150 0.585460 0.365390 -0.635655
O31   O     O_R   0.939240 0.000000 0.071950 -0.639155
O32   O     O_R   0.060760 1.000000 0.928050 -0.637184
O33   O     O_R   0.439240 0.500000 0.071950 -0.638425
O34   O     O_3   0.500010 0.500000 0.750010 -0.491727
O35   O     O_R   0.560760 0.500000 0.928050 -0.639654
O36   O     O_R   0.000020 0.939290 0.367320 -0.645754
O37   O     O_R   0.999980 0.060710 0.632680 -0.643680
O38   O     O_R   0.999980 0.939290 0.632680 -0.636437
O39   O     O_R   0.000020 0.060710 0.367320 -0.636595
O40   O     O_R   0.500020 0.439290 0.367320 -0.636118
O41   O     O_R   0.499980 0.560710 0.632680 -0.638128
O42   O     O_R   0.499980 0.439290 0.632680 -0.643923
O43   O     O_R   0.500020 0.560710 0.367320 -0.643610
O44   O     O_R   0.060680 0.000000 0.193390 -0.636695
O45   O     O_R   0.914560 0.853840 0.195310 -0.636954
O46   O     O_R   0.939320 0.000000 0.806610 -0.636642
O47   O     O_R   0.560680 0.500000 0.193390 -0.637524
O48   O     O_R   0.439320 0.500000 0.806610 -0.637348
O49   O     O_R   0.085440 0.146160 0.804690 -0.641669
O50   O     O_R   0.085440 0.853840 0.804690 -0.641056
O51   O     O_R   0.914560 0.146160 0.195310 -0.637008
O52   O     O_R   0.414560 0.353840 0.195310 -0.640521
Zn1   Zn    Zn3+2 1.000000 0.086750 0.293940 0.960111
Zn2   Zn    Zn3+2 0.086780 0.000000 0.880710 0.961936
Zn3   Zn    Zn3+2 0.413220 0.500000 0.119290 0.959525
Zn4   Zn    Zn3+2 0.586780 0.500000 0.880710 0.958136
Zn5   Zn    Zn3+2 0.086730 1.000000 0.292800 0.963321
Zn6   Zn    Zn3+2 0.913270 0.000000 0.707200 0.960845
Zn7   Zn    Zn3+2 0.586730 0.500000 0.292800 0.959577
Zn8   Zn    Zn3+2 0.413270 0.500000 0.707200 0.962329
Zn9   Zn    Zn3+2 1.000000 0.913250 0.706060 0.956153
Zn10  Zn    Zn3+2 1.000000 0.086750 0.706060 0.956617
Zn11  Zn    Zn3+2 1.000000 0.913250 0.293940 0.958195
Zn12  Zn    Zn3+2 0.500000 0.586750 0.293940 0.956336
Zn13  Zn    Zn3+2 0.500000 0.413250 0.706060 0.958138
Zn14  Zn    Zn3+2 0.500000 0.586750 0.706060 0.961454
Zn15  Zn    Zn3+2 0.500000 0.413250 0.293940 0.960455
Zn16  Zn    Zn3+2 0.913220 0.000000 0.119290 0.959010

loop_
_geom_bond_atom_site_label_1
_geom_bond_atom_site_label_2
_ccdc_geom_bond_type
C21   C26   A    
C184  O11   A    
C50   O33   A    
C75   C117  A    
O34   Zn4   S    
C74   C83   A    
C181  O22   A    
O8    Zn11  S    
C118  C128  A    
C59   C66   S    
C54   O43   A    
C133  H83   S    
C92   N1    S    
C83   N1    S    
C58   C60   S    
C29   C33   A    
C17   C39   A    
C2    C90   A    
C134  O52   A    
C62   C64   S    
C185  O13   A    
C175  C188  A    
C156  O19   A    
C109  C127  A    
C40   C43   A    
C162  C171  A    
O26   Zn5   S    
C80   H63   S    
C125  C179  S    
C128  C180  S    
O40   Zn15  S    
C96   N5    S    
C85   N3    S    
C1    O17   A    
C86   N4    S    
C129  C183  S    
C100  C109  A    
C148  H98   S    
C7    C172  A    
C149  H99   S    
C93   H109  S    
C123  O51   A    
C89   N7    S    
C82   C124  A    
C80   C121  A    
C8    C187  A    
C25   C29   A    
O16   Zn2   S    
C27   C31   A    
C140  H90   S    
C137  C146  A    
C28   C32   A    
C141  H91   S    
C64   H47   S    
C167  O18   A    
C74   H57   S    
C19   C23   A    
C58   C70   S    
C10   C171  A    
O23   Zn15  S    
C137  H87   S    
C76   C118  A    
C82   C91   A    
C34   C39   A    
C93   H108  S    
C99   H19   S    
C104  H71   S    
C145  O20   A    
O47   Zn7   S    
C185  O27   A    
O41   Zn14  S    
C154  C163  A    
O17   Zn16  S    
C165  H2    S    
C164  C173  A    
C163  C172  A    
C69   H51   S    
C151  H76   S    
C46   C84   A    
C152  H75   S    
C96   H5    S    
O24   Zn6   S    
C60   C65   S    
C22   C27   A    
C36   C44   A    
C157  C165  A    
C107  C120  A    
C8    C169  A    
C29   H24   S    
C182  O30   A    
C11   C112  S    
C168  H21   S    
C139  H89   S    
C177  O26   A    
C20   C42   A    
O33   Zn3   S    
C33   C38   A    
C56   C59   S    
O23   Zn3   S    
C106  C115  A    
C153  H78   S    
C80   C88   A    
C49   O32   A    
C57   C85   A    
O4    Zn12  S    
C4    C14   A    
C52   O36   A    
C53   O37   A    
C161  H73   S    
C3    C176  A    
C14   C174  A    
C92   H102  S    
C95   H115  S    
C31   C36   A    
C46   H53   S    
C108  C126  A    
C100  H68   S    
H101  N1    S    
C76   C85   A    
C178  H49   S    
C44   C48   S    
C110  C128  A    
C78   C87   A    
C87   N5    S    
O42   Zn13  S    
H114  N4    S    
C60   H43   S    
O5    Zn1   S    
C55   O41   A    
H8    N6    S    
C133  C142  A    
C112  O50   A    
C167  O4    A    
C57   H56   S    
O31   Zn16  S    
O12   Zn9   S    
C75   C84   A    
C65   C70   S    
C106  H74   S    
C61   H44   S    
O21   Zn3   S    
C67   C72   S    
C61   C67   S    
C149  C153  A    
O48   Zn8   S    
C96   H7    S    
O1    Zn1   S    
C63   C69   S    
C5    C170  A    
C82   H65   S    
O34   Zn8   S    
C152  C161  A    
H110  N3    S    
C135  C143  A    
O43   Zn12  S    
C97   N6    S    
C136  C188  A    
C101  O49   A    
C15   C167  S    
C99   N8    S    
C150  H100  S    
C135  C187  A    
C141  C150  A    
C5    C139  A    
C47   C50   S    
C115  C132  A    
C139  C148  A    
C143  H93   S    
C113  C130  A    
C30   C34   A    
C11   C188  A    
O45   Zn11  S    
C97   H9    S    
C98   H15   S    
C107  C125  A    
C9    C186  A    
C142  H92   S    
O7    Zn10  S    
C165  C174  A    
C23   C28   A    
C6    C16   A    
C135  H85   S    
C12   C145  S    
C147  C151  A    
C174  C187  A    
C179  O25   A    
C145  O2    A    
O20   Zn4   S    
O23   Zn12  S    
C92   H104  S    
C41   C47   A    
C25   H34   S    
C32   C37   A    
C75   H58   S    
C179  O6    A    
C113  C117  A    
C131  C185  S    
C2    H48   S    
C26   C30   A    
C105  H72   S    
C115  C119  A    
C103  H70   S    
O49   Zn10  S    
O37   Zn10  S    
C17   H26   S    
O11   Zn14  S    
C7    C141  A    
H17   N8    S    
C146  H96   S    
C28   H25   S    
C168  C176  A    
C18   C22   A    
C34   C43   A    
C148  C152  A    
C79   C178  A    
C183  O29   A    
C39   C44   A    
C123  O14   A    
C54   O40   A    
O1    Zn11  S    
C94   H112  S    
C90   C108  A    
C50   O47   A    
C63   H46   S    
C84   N2    S    
H105  N2    S    
C127  C181  S    
C7    C15   A    
O9    Zn12  S    
C51   O35   A    
C37   C41   A    
C31   H36   S    
C147  H97   S    
C183  O10   A    
C21   H31   S    
C98   N7    S    
C51   O48   A    
C117  C125  A    
C140  C149  A    
O12   Zn6   S    
C119  C127  A    
C93   N2    S    
O3    Zn13  S    
O23   Zn7   S    
O34   Zn14  S    
C114  C131  A    
C97   H11   S    
C108  C121  A    
C154  H77   S    
C164  H106  S    
C91   N8    S    
C166  C175  A    
O36   Zn11  S    
C35   C103  A    
O38   Zn9   S    
C20   C25   A    
O13   Zn15  S    
C68   H55   S    
C1    O45   A    
C93   H107  S    
C103  C111  A    
O6    Zn9   S    
C110  C124  A    
C180  O24   A    
C111  C129  A    
C23   H33   S    
O25   Zn6   S    
C16   C156  S    
C160  C169  A    
C69   C73   S    
C111  C116  A    
C3    C137  A    
C8    C101  S    
C155  H80   S    
C81   C89   A    
C16   C176  A    
C96   H6    S    
C101  O16   A    
C11   C172  A    
C62   H45   S    
C9    C170  A    
C53   C70   S    
O2    Zn14  S    
O44   Zn5   S    
O27   Zn7   S    
C1    C9    S    
C33   H38   S    
O39   Zn1   S    
C35   C83   A    
O1    Zn5   S    
C60   C71   S    
C61   C73   S    
C46   C104  A    
C27   H22   S    
C62   C69   S    
C166  H13   S    
O35   Zn4   S    
O46   Zn6   S    
C54   C73   S    
C112  O15   A    
C66   C71   S    
C56   C71   S    
C79   C107  A    
O12   Zn2   S    
C30   H35   S    
C5    C12   A    
C184  O28   A    
C94   N3    S    
C144  H94   S    
O34   Zn13  S    
C102  C110  A    
C76   H59   S    
C177  O5    A    
C94   H113  S    
C95   N4    S    
C158  C166  A    
C22   H32   S    
C56   H39   S    
C20   H30   S    
O29   Zn8   S    
C136  H86   S    
H12   N7    S    
C121  C129  A    
C66   H29   S    
C158  H82   S    
C153  C162  A    
C77   H60   S    
C136  C144  A    
C52   C71   S    
C132  C184  S    
C87   C178  A    
C79   H66   S    
C24   C102  A    
C6    C140  A    
C48   O44   A    
C17   C21   A    
C59   C70   S    
C4    C138  A    
O14   Zn16  S    
C63   C72   S    
C156  O3    A    
C49   O46   A    
C3    C10   A    
C78   H61   S    
C42   C45   A    
C19   C41   A    
C12   C173  A    
C57   C105  A    
C90   H67   S    
C68   C86   A    
C78   C120  A    
C18   H27   S    
C48   O31   A    
C162  H84   S    
O19   Zn4   S    
C120  C130  A    
H4    N5    S    
C98   H16   S    
C38   C42   A    
C99   H20   S    
C109  C122  A    
C45   C51   S    
C56   C65   S    
O15   Zn2   S    
C159  C168  A    
C126  C177  S    
C19   H28   S    
O12   Zn10  S    
C53   O38   A    
C58   C66   S    
C95   H116  S    
C2    C88   A    
C26   H23   S    
C142  C155  A    
C55   C72   S    
C95   H3    S    
O32   Zn2   S    
O28   Zn8   S    
C182  O9    A    
C116  C126  A    
O51   Zn1   S    
C68   C106  A    
C55   O42   A    
C122  C132  A    
C143  C157  A    
C13   H52   S    
C6    C171  A    
C157  H79   S    
C181  O8    A    
C173  C186  A    
C4    C169  A    
C99   H18   S    
C64   C67   S    
C160  H62   S    
C105  C114  A    
C36   C40   A    
C130  C182  S    
O18   Zn3   S    
C43   C49   S    
C146  C159  A    
C14   C134  S    
C159  H81   S    
C104  C113  A    
C124  C131  A    
C138  H88   S    
O30   Zn7   S    
C10   C123  S    
C138  C147  A    
C64   C73   S    
C74   C116  A    
C61   C63   S    
O10   Zn13  S    
C62   C72   S    
C38   C47   A    
C114  C118  A    
C133  C186  A    
C161  C170  A    
C163  H95   S    
C77   C86   A    
C81   C122  A    
O50   Zn9   S    
C94   H111  S    
O52   Zn15  S    
C144  C158  A    
C24   C91   A    
C24   H50   S    
C52   O39   A    
C134  O21   A    
C13   C89   A    
C97   H10   S    
C98   H14   S    
C65   H1    S    
C77   C119  A    
C155  C164  A    
C88   N6    S    
C102  H69   S    
C15   C175  A    
C151  C160  A    
C13   C100  A    
C58   H41   S    
O1    Zn16  S    
C67   H40   S    
C92   H103  S    
O22   Zn5   S    
C18   C40   A    
C32   H37   S    
C35   H54   S    
C150  C154  A    
C81   H64   S    
C59   H42   S    
C37   C45   A    
C180  O7    A    
