data_mof_unit_18681.cif
_audit_creation_date              2012-12-11T16:35:21-0500
_audit_creation_method            fapswitch 2.2
_symmetry_space_group_name_H-M    P1
_symmetry_Int_Tables_number       1
_space_group_crystal_system       triclinic
_cell_length_a                    6.927581
_cell_length_b                    17.593825
_cell_length_c                    19.606004
_cell_angle_alpha                 109.107098
_cell_angle_beta                  90.499604
_cell_angle_gamma                 90.537811
_cell_volume                      2257.70765298

loop_
_atom_site_label
_atom_site_type_symbol
_atom_type_description
_atom_site_fract_x
_atom_site_fract_y
_atom_site_fract_z
_atom_type_partial_charge
O1    O     O_R   0.505700 0.440210 0.561730 -0.539861
O2    O     O_R   0.169350 0.406300 0.412660 -0.539113
O3    O     O_R   0.005650 0.559790 0.438270 -0.540041
C1    C     C_R   0.337859 0.383028 0.385031 0.695327
O4    O     O_R   0.175560 0.430650 0.559600 -0.547991
O5    O     O_R   0.011900 0.584320 0.586250 -0.535057
C2    C     C_R   0.344935 0.415547 0.581114 0.689540
O6    O     O_R   0.499450 0.415680 0.413750 -0.533317
O7    O     O_3   0.341370 0.550390 0.508570 -0.367479
V1    V     V_3+5 0.063940 0.490650 0.498410 1.412779
O8    O     O_R   0.682570 0.593700 0.587340 -0.538761
C3    C     C_R   0.852768 0.617025 0.614551 0.699955
O9    O     O_R   0.676370 0.569350 0.440400 -0.547199
C4    C     C_R   0.845083 0.584328 0.418749 0.685347
V2    V     V_3+5 0.564750 0.509350 0.501590 1.416542
O10   O     O_3   0.837190 0.449610 0.491430 -0.367645
C5    C     C_R   0.038785 0.681500 0.285636 -0.146813
H1    H     H_    0.171589 0.680206 0.256635 0.101104
C6    C     C_R   0.027305 0.636036 0.332262 -0.152070
H2    H     H_    0.152295 0.602113 0.338253 0.116847
C7    C     C_R   0.856309 0.633286 0.369652 -0.051527
C8    C     C_R   0.697132 0.677444 0.359292 -0.177297
H3    H     H_    0.563438 0.677019 0.387405 0.122190
C9    C     C_R   0.709390 0.723845 0.313367 -0.145259
H4    H     H_    0.585072 0.758544 0.308407 0.101531
C10   C     C_R   0.880354 0.726491 0.275601 0.088242
C11   C     C_R   0.729693 0.786197 0.186923 -0.144716
H5    H     H_    0.592601 0.758190 0.191175 0.099811
C12   C     C_R   0.741109 0.832155 0.140723 -0.169505
H6    H     H_    0.612028 0.838930 0.111782 0.121721
C13   C     C_R   0.916970 0.867731 0.131074 -0.056592
C14   C     C_R   0.080985 0.856621 0.169289 -0.171985
H7    H     H_    0.218323 0.883772 0.163675 0.112525
C15   C     C_R   0.068991 0.811662 0.216432 -0.145248
H8    H     H_    0.197523 0.806444 0.246274 0.097878
C16   C     C_R   0.893182 0.775420 0.225842 0.092688
H9    H     H_    0.060940 0.615486 0.920119 0.119731
C17   C     C_R   0.816198 0.907637 0.753419 -0.142073
C18   C     C_R   0.762617 0.922880 0.690529 -0.116820
C19   C     C_R   0.742614 0.859869 0.625902 -0.113685
C20   C     C_R   0.776511 0.781206 0.623686 -0.136272
C21   C     C_R   0.829847 0.763802 0.686839 0.071781
C22   C     C_R   0.849505 0.828122 0.753215 0.049904
C23   C     C_R   0.867179 0.684039 0.684180 -0.170755
C24   C     C_R   0.922572 0.667941 0.747838 0.027835
C25   C     C_R   0.939097 0.731699 0.815396 0.069937
C26   C     C_R   0.903916 0.812633 0.817524 -0.186120
C27   C     C_R   0.958354 0.587864 0.745147 -0.144196
C28   C     C_R   0.010177 0.570017 0.806548 -0.158011
C29   C     C_R   0.023773 0.630743 0.872436 -0.156158
C30   C     C_R   0.987024 0.710783 0.878205 0.193772
H10   H     H_    0.832227 0.959138 0.801895 0.089797
H11   H     H_    0.737431 0.984012 0.691923 0.114786
H12   H     H_    0.701798 0.872011 0.577082 0.116519
H13   H     H_    0.761328 0.734434 0.571835 0.097627
H14   H     H_    0.945502 0.537555 0.695576 0.111513
H15   H     H_    0.037388 0.508369 0.803128 0.128651
H16   H     H_    0.546929 0.494719 0.201816 0.130215
C31   C     C_R   0.249654 0.217239 0.371620 -0.146982
C32   C     C_R   0.216645 0.137872 0.368951 0.258396
C33   C     C_R   0.253248 0.075106 0.305250 -0.156158
C34   C     C_R   0.320849 0.091443 0.244751 -0.183145
C35   C     C_R   0.352479 0.171486 0.245648 0.054653
C36   C     C_R   0.316603 0.235586 0.310731 0.020731
C37   C     C_R   0.421467 0.187502 0.183323 -0.174871
C38   C     C_R   0.457042 0.269191 0.186819 0.065509
C39   C     C_R   0.421211 0.332918 0.252994 0.035006
C40   C     C_R   0.351481 0.316237 0.314622 -0.160395
C41   C     C_R   0.525060 0.290943 0.126747 0.183863
C42   C     C_R   0.558188 0.371832 0.133634 -0.152508
C43   C     C_R   0.522440 0.432480 0.197715 -0.160573
C44   C     C_R   0.453403 0.413710 0.256420 -0.142735
H17   H     H_    0.222160 0.264170 0.422172 0.116145
H18   H     H_    0.230460 0.013127 0.302352 0.116036
H19   H     H_    0.349902 0.040177 0.197580 0.107569
H20   H     H_    0.610645 0.387746 0.088128 0.123318
H21   H     H_    0.424110 0.463866 0.304490 0.109398
C45   C     C_R   0.547398 0.312545 0.708836 -0.139760
H22   H     H_    0.685822 0.308836 0.733541 0.100857
C46   C     C_R   0.534851 0.357745 0.662037 -0.153710
H23   H     H_    0.664722 0.386693 0.651619 0.117369
C47   C     C_R   0.357147 0.366466 0.630083 -0.048954
C48   C     C_R   0.192489 0.328321 0.645909 -0.158989
H24   H     H_    0.053533 0.333346 0.622108 0.120067
C49   C     C_R   0.205318 0.282619 0.692357 -0.138372
H25   H     H_    0.075921 0.253037 0.702227 0.099332
C50   C     C_R   0.382818 0.274387 0.724821 0.102086
C51   C     C_R   0.242829 0.228225 0.822842 -0.118007
H26   H     H_    0.117494 0.264861 0.823676 0.122764
C52   C     C_R   0.249194 0.183308 0.870074 0.182312
C53   C     C_R   0.413775 0.135988 0.871760 -0.109395
C54   C     C_R   0.568196 0.136884 0.825878 -0.181305
H27   H     H_    0.695563 0.101586 0.825549 0.122017
C55   C     C_R   0.558782 0.181366 0.778347 -0.138205
H28   H     H_    0.678659 0.178510 0.742573 0.111221
C56   C     C_R   0.395273 0.227244 0.775828 0.027948
O11   O     O_R   0.273230 0.084330 0.086440 -0.543329
O12   O     O_R   0.596660 0.069390 0.940470 -0.536652
O13   O     O_R   0.760270 0.915710 0.913690 -0.539550
C57   C     C_R   0.426672 0.085278 0.919603 0.718712
O14   O     O_R   0.603330 0.093680 0.087390 -0.523259
O15   O     O_R   0.766990 0.940160 0.061660 -0.541619
C58   C     C_R   0.434701 0.118504 0.114182 0.777929
O16   O     O_R   0.266510 0.059870 0.938470 -0.546123
O17   O     O_3   0.431050 0.949630 0.991510 -0.370574
V3    V     V_3+5 0.708490 0.009340 0.001580 1.428136
O18   O     O_R   0.096270 0.930570 0.059390 -0.540824
C59   C     C_R   0.927819 0.916733 0.082031 0.723311
O19   O     O_R   0.089600 0.906290 0.912460 -0.529027
C60   C     C_R   0.919105 0.881848 0.885898 0.788493
V4    V     V_3+5 0.207670 0.990600 0.998190 1.417790
O20   O     O_3   0.935250 0.050360 0.008480 -0.373460
N1    N     N_3   0.994002 0.769027 0.948876 -0.678490
H29   H     H_    0.893661 0.751729 0.980721 0.213025
H30   H     H_    0.131481 0.767878 0.970975 0.228436
N2    N     N_3   0.148860 0.122210 0.432091 -0.667930
H31   H     H_    0.135375 0.060246 0.422126 0.225427
H32   H     H_    0.010021 0.145710 0.442478 0.225951
N3    N     N_3   0.560725 0.232508 0.057881 -0.671163
H33   H     H_    0.705956 0.237106 0.045431 0.239999
H34   H     H_    0.477041 0.246946 0.019339 0.208157
N4    N     N_3   0.087620 0.189091 0.916615 -0.677425
H35   H     H_    0.015157 0.133628 0.901719 0.244390
H36   H     H_    0.136983 0.204483 0.970014 0.232607

loop_
_geom_bond_atom_site_label_1
_geom_bond_atom_site_label_2
_ccdc_geom_bond_type
C45   C50   A    
C35   C37   A    
C11   C12   A    
C13   C59   S    
V4    O20   S    
C1    O6    A    
C51   C56   A    
V3    O20   S    
C49   H25   S    
C31   C36   A    
C34   C35   A    
C5    C10   A    
C36   C40   A    
C4    C7    S    
C6    C7    A    
C9    C10   A    
C39   C44   A    
C41   C42   A    
O19   V4    S    
O5    C3    A    
C17   C18   A    
O11   V4    S    
C45   C46   A    
H16   C43   S    
C38   C41   A    
C17   H10   S    
V2    O10   S    
C57   O16   A    
C28   H15   S    
N2    H31   S    
C15   H8    S    
C20   C21   A    
C28   C29   A    
C20   H13   S    
C44   H21   S    
O8    V2    S    
C48   H24   S    
O18   C59   A    
O15   C59   A    
C42   C43   A    
O1    V2    S    
C53   C57   S    
O7    V1    S    
C31   H17   S    
C49   C50   A    
C38   C39   A    
O17   V4    S    
C31   C32   A    
O14   C58   A    
O9    C4    A    
C52   N4    S    
C55   H28   S    
C21   C23   A    
C29   C30   A    
N3    H34   S    
C39   C40   A    
C9    H4    S    
C46   C47   A    
C53   C54   A    
C1    C40   S    
C45   H22   S    
C24   C25   A    
O13   C60   A    
C25   C30   A    
C41   N3    S    
C32   C33   A    
C14   C15   A    
O2    C1    A    
C12   H6    S    
C13   C14   A    
N3    H33   S    
C50   C56   S    
C54   C55   A    
C5    H1    S    
C30   N1    S    
C55   C56   A    
O11   C58   A    
O3    C4    A    
C10   C16   S    
C19   C20   A    
C48   C49   A    
C51   C52   A    
C37   C38   A    
O6    V2    S    
C19   H12   S    
O9    V2    S    
C42   H20   S    
C11   C16   A    
C8    C9    A    
C34   H19   S    
C32   N2    S    
C21   C22   A    
C37   C58   S    
N4    H36   S    
O2    V1    S    
C18   C19   A    
C23   C24   A    
O4    C2    A    
N1    H29   S    
C24   C27   A    
O14   V3    S    
C27   H14   S    
O13   V3    S    
C25   C26   A    
C27   C28   A    
O1    C2    A    
O18   V4    S    
C46   H23   S    
O5    V1    S    
O16   V4    S    
O8    C3    A    
C33   H18   S    
C26   C60   S    
O17   V3    S    
O12   C57   A    
O12   V3    S    
C14   H7    S    
C6    H2    S    
O7    V2    S    
O4    V1    S    
C12   C13   A    
O3    V1    S    
V1    O10   S    
O19   C60   A    
H9    C29   S    
C52   C53   A    
C18   H11   S    
C54   H27   S    
C5    C6    A    
N2    H32   S    
O15   V3    S    
C15   C16   A    
C33   C34   A    
C35   C36   A    
C17   C22   A    
C2    C47   S    
C43   C44   A    
C51   H26   S    
C3    C23   S    
C47   C48   A    
C11   H5    S    
C8    H3    S    
N4    H35   S    
C7    C8    A    
C22   C26   A    
N1    H30   S    
