data_mof_unit_12770.cif
_audit_creation_date              2012-12-10T18:55:27-0500
_audit_creation_method            fapswitch 2.2
_symmetry_space_group_name_H-M    P1
_symmetry_Int_Tables_number       1
_space_group_crystal_system       triclinic
_cell_length_a                    19.440619
_cell_length_b                    18.086583
_cell_length_c                    17.761144
_cell_angle_alpha                 90.177167
_cell_angle_beta                  90.051882
_cell_angle_gamma                 89.989697
_cell_volume                      6245.04092843

loop_
_atom_site_label
_atom_site_type_symbol
_atom_type_description
_atom_site_fract_x
_atom_site_fract_y
_atom_site_fract_z
_atom_type_partial_charge
C1    C     C_R   0.367443 0.500005 0.499758 0.866695
C2    C     C_R   0.632557 0.499995 0.500242 0.866696
C3    C     C_R   0.852436 0.499956 0.500926 -0.163130
C4    C     C_R   0.147564 0.500044 0.499074 -0.163131
C5    C     C_R   0.708111 0.499983 0.500694 -0.216342
C6    C     C_R   0.291889 0.500017 0.499306 -0.216342
C7    C     C_R   0.964504 0.539687 0.555416 -0.106353
C8    C     C_R   0.035495 0.460313 0.444584 -0.106353
C9    C     C_R   0.036142 0.539749 0.554913 -0.104260
C10   C     C_R   0.963858 0.460251 0.445087 -0.104259
C11   C     C_R   0.071999 0.500065 0.499494 0.177363
C12   C     C_R   0.928001 0.499935 0.500506 0.177363
C13   C     C_R   0.459286 0.720450 0.450419 0.052012
C14   C     C_R   0.540712 0.279551 0.549584 0.052012
C15   C     C_R   0.540846 0.720928 0.549287 0.052435
C16   C     C_R   0.459156 0.279071 0.450712 0.052427
C17   C     C_R   0.458271 0.798666 0.448044 -0.005077
C18   C     C_R   0.541726 0.201336 0.551961 -0.005079
C19   C     C_R   0.542063 0.799183 0.551090 -0.005036
C20   C     C_R   0.457939 0.200815 0.448911 -0.005033
C21   C     C_R   0.500144 0.838576 0.499506 0.003468
C22   C     C_R   0.499856 0.161424 0.500498 0.003469
C23   C     C_R   0.548713 0.961192 0.457511 -0.188034
C24   C     C_R   0.451288 0.038808 0.542494 -0.188035
C25   C     C_R   0.451268 0.961098 0.542090 -0.188065
C26   C     C_R   0.548734 0.038902 0.457915 -0.188064
C27   C     C_R   0.500029 0.078458 0.500418 0.100139
C28   C     C_R   0.499972 0.921542 0.499587 0.100139
C29   C     C_R   0.499470 0.499928 0.355331 0.813031
C30   C     C_R   0.500529 0.500072 0.644669 0.813029
C31   C     C_R   0.510158 0.567510 0.846491 0.106675
C32   C     C_R   0.489861 0.432482 0.153511 0.106675
C33   C     C_R   0.503860 0.568034 0.154093 0.105882
C34   C     C_R   0.496107 0.431963 0.845903 0.105880
C35   C     C_R   0.509382 0.566477 0.767380 -0.203357
C36   C     C_R   0.490639 0.433517 0.232622 -0.203362
C37   C     C_R   0.504119 0.566649 0.233143 -0.205041
C38   C     C_R   0.495851 0.433350 0.766854 -0.205045
C39   C     C_R   0.501785 0.500045 0.727591 -0.104857
C40   C     C_R   0.498212 0.499953 0.272408 -0.104860
C41   C     C_R   0.502296 0.499787 0.885299 0.062266
C42   C     C_R   0.497699 0.500205 0.114701 0.062268
C43   C     C_1   0.500693 0.499906 0.966260 -0.088802
C44   C     C_1   0.499302 0.500085 0.033739 -0.088804
C45   C     C_R   0.744492 0.432936 0.501114 -0.265234
C46   C     C_R   0.255508 0.567064 0.498886 -0.265234
C47   C     C_R   0.255508 0.432981 0.499279 -0.266589
C48   C     C_R   0.744492 0.567019 0.500721 -0.266590
C49   C     C_R   0.816138 0.432813 0.501178 0.565488
C50   C     C_R   0.183862 0.567187 0.498822 0.565488
C51   C     C_R   0.183861 0.432883 0.499161 0.565929
C52   C     C_R   0.816139 0.567117 0.500839 0.565930
Cu1   Cu    Cu3+1 0.500000 0.573360 0.500000 0.932079
Cu2   Cu    Cu3+1 0.500000 0.426640 0.500000 0.932076
H1    H     H_    0.514666 0.617116 0.735845 0.145594
H2    H     H_    0.485376 0.382877 0.264158 0.145606
H3    H     H_    0.509434 0.617243 0.265058 0.150119
H4    H     H_    0.490517 0.382760 0.734937 0.150125
H5    H     H_    0.717592 0.380494 0.501561 0.189329
H6    H     H_    0.282408 0.619506 0.498439 0.189328
H7    H     H_    0.282407 0.380528 0.499686 0.189432
H8    H     H_    0.717593 0.619472 0.500314 0.189432
H9    H     H_    0.937516 0.570000 0.599011 0.163080
H10   H     H_    0.062484 0.430000 0.400989 0.163080
H11   H     H_    0.063644 0.570088 0.598149 0.164068
H12   H     H_    0.936356 0.429912 0.401851 0.164068
H13   H     H_    0.427859 0.687852 0.412814 0.126495
H14   H     H_    0.572137 0.312150 0.587190 0.126501
H15   H     H_    0.572282 0.688684 0.587012 0.123648
H16   H     H_    0.427721 0.311314 0.412985 0.123649
H17   H     H_    0.586729 0.931855 0.424389 0.139641
H18   H     H_    0.413272 0.068144 0.575616 0.139640
H19   H     H_    0.413287 0.931679 0.574989 0.140021
H20   H     H_    0.586714 0.068321 0.425017 0.140021
N1    N     N_R   0.500000 0.683620 0.500000 -0.199141
N2    N     N_R   0.500000 0.316380 0.500000 -0.199142
O1    O     O_R   0.400190 0.561980 0.499990 -0.585883
O2    O     O_R   0.599810 0.438020 0.500010 -0.585881
O3    O     O_R   0.599810 0.561980 0.500010 -0.586851
O4    O     O_R   0.400190 0.438020 0.499990 -0.586850
O5    O     O_R   0.500000 0.561980 0.391260 -0.591202
O6    O     O_R   0.500000 0.438020 0.608740 -0.591206
O7    O     O_R   0.500000 0.561980 0.608740 -0.589449
O8    O     O_R   0.500000 0.438020 0.391260 -0.589452
C53   C     C_3   0.518874 0.639214 0.891189 -0.396127
C54   C     C_3   0.535210 0.708541 0.844758 -0.369534
C55   C     C_3   0.546198 0.775814 0.895358 -0.836584
H21   H     H_    0.499175 0.787148 0.928910 0.254551
H22   H     H_    0.590337 0.766388 0.933893 0.252356
H23   H     H_    0.557488 0.824948 0.860155 0.244501
H24   H     H_    0.583015 0.698981 0.811918 0.220460
H25   H     H_    0.491962 0.720785 0.805755 0.220907
H26   H     H_    0.471004 0.649231 0.923873 0.199724
H27   H     H_    0.561740 0.631271 0.931873 0.201876
C56   C     C_3   0.481168 0.360772 0.108816 -0.396129
C57   C     C_3   0.464849 0.291444 0.155250 -0.369541
C58   C     C_3   0.453873 0.224165 0.104654 -0.836565
H28   H     H_    0.409728 0.233576 0.066125 0.252356
H29   H     H_    0.500896 0.212845 0.071096 0.254543
H30   H     H_    0.442601 0.175029 0.139861 0.244494
H31   H     H_    0.508101 0.279212 0.194253 0.220910
H32   H     H_    0.417042 0.300993 0.188090 0.220458
H33   H     H_    0.438302 0.368700 0.068129 0.201878
H34   H     H_    0.529042 0.350769 0.076135 0.199722
C59   C     C_3   0.510190 0.640195 0.110133 -0.397466
C60   C     C_3   0.511350 0.711487 0.157481 -0.363882
C61   C     C_3   0.514705 0.779898 0.107603 -0.837891
H35   H     H_    0.562417 0.779128 0.073295 0.255425
H36   H     H_    0.469225 0.782131 0.069783 0.251582
H37   H     H_    0.514975 0.830344 0.143401 0.243262
H38   H     H_    0.463850 0.714853 0.192016 0.217651
H39   H     H_    0.557082 0.711624 0.195102 0.223221
H40   H     H_    0.558080 0.637775 0.076047 0.200092
H41   H     H_    0.465823 0.643721 0.070732 0.201522
C62   C     C_3   0.489746 0.359802 0.889861 -0.397465
C63   C     C_3   0.488535 0.288513 0.842508 -0.363875
C64   C     C_3   0.485142 0.220102 0.892383 -0.837859
H42   H     H_    0.530628 0.217830 0.930192 0.251581
H43   H     H_    0.437436 0.220906 0.926701 0.255412
H44   H     H_    0.484831 0.169657 0.856581 0.243257
H45   H     H_    0.442798 0.288413 0.804894 0.223227
H46   H     H_    0.536029 0.285112 0.807966 0.217639
H47   H     H_    0.534118 0.356245 0.929252 0.201518
H48   H     H_    0.441863 0.362251 0.923957 0.200091
F1    F     F_    0.850011 0.367182 0.502946 -0.652490
F2    F     F_    0.149989 0.632818 0.497053 -0.652490
F3    F     F_    0.149997 0.367260 0.500850 -0.652411
F4    F     F_    0.850003 0.632740 0.499150 -0.652411
C65   C     C_3   0.414161 0.841011 0.391753 -0.403404
C66   C     C_3   0.371515 0.793496 0.337113 -0.378508
C67   C     C_3   0.331776 0.841671 0.281675 -0.804364
H49   H     H_    0.296087 0.879094 0.312323 0.258759
H50   H     H_    0.367890 0.875211 0.247416 0.247216
H51   H     H_    0.301252 0.805937 0.243221 0.246504
H52   H     H_    0.406055 0.756453 0.304516 0.206605
H53   H     H_    0.334124 0.759447 0.369238 0.230145
H54   H     H_    0.378343 0.877329 0.423678 0.214339
H55   H     H_    0.448699 0.876965 0.357977 0.209486
C68   C     C_3   0.585834 0.158992 0.608256 -0.403407
C69   C     C_3   0.628476 0.206508 0.662898 -0.378502
C70   C     C_3   0.668215 0.158335 0.718337 -0.804364
H56   H     H_    0.632101 0.124791 0.752594 0.247217
H57   H     H_    0.703908 0.120914 0.687690 0.258758
H58   H     H_    0.698736 0.194069 0.756795 0.246502
H59   H     H_    0.665868 0.240559 0.630776 0.230143
H60   H     H_    0.593934 0.243550 0.695495 0.206608
H61   H     H_    0.551295 0.123037 0.642030 0.209485
H62   H     H_    0.621655 0.122674 0.576333 0.214341
C71   C     C_3   0.586675 0.842151 0.606673 -0.399953
C72   C     C_3   0.628237 0.795200 0.662425 -0.383169
C73   C     C_3   0.668314 0.843852 0.717424 -0.808180
H63   H     H_    0.705473 0.879171 0.686536 0.259657
H64   H     H_    0.632608 0.879604 0.750040 0.245628
H65   H     H_    0.697207 0.808407 0.757420 0.246132
H66   H     H_    0.592698 0.759661 0.695129 0.207725
H67   H     H_    0.665335 0.759718 0.631288 0.228353
H68   H     H_    0.623144 0.877015 0.574200 0.213927
H69   H     H_    0.552614 0.879533 0.639656 0.210166
C74   C     C_3   0.413331 0.157846 0.393327 -0.399953
C75   C     C_3   0.371769 0.204796 0.337572 -0.383161
C76   C     C_3   0.331698 0.156143 0.282569 -0.808174
H70   H     H_    0.367409 0.120394 0.249954 0.245630
H71   H     H_    0.294540 0.120820 0.313453 0.259654
H72   H     H_    0.302806 0.191587 0.242571 0.246129
H73   H     H_    0.334668 0.240276 0.368706 0.228352
H74   H     H_    0.407309 0.240337 0.304871 0.207722
H75   H     H_    0.447394 0.120464 0.360345 0.210165
H76   H     H_    0.376860 0.122982 0.425798 0.213925

loop_
_geom_bond_atom_site_label_1
_geom_bond_atom_site_label_2
_ccdc_geom_bond_type
C15   N1    A    
C55   H21   S    
C31   C53   S    
C57   H32   S    
C1    O1    A    
C14   C18   A    
Cu1   O1    S    
C56   C57   S    
C24   C27   A    
C67   H51   S    
C58   H30   S    
Cu2   O8    S    
C76   H70   S    
C52   F4    S    
C60   H39   S    
C53   C54   S    
C74   H76   S    
C25   C28   A    
C15   C19   A    
C68   H61   S    
C26   C27   A    
C63   H46   S    
C36   H2    S    
C33   C42   A    
C32   C36   A    
C59   H40   S    
Cu1   O3    S    
C37   C40   A    
C54   H24   S    
C70   H57   S    
C38   C39   A    
C73   H65   S    
C60   C61   S    
C62   C63   S    
C63   C64   S    
Cu1   O5    S    
C23   C26   A    
C30   O7    A    
C26   H20   S    
C2    O3    A    
C58   H29   S    
C38   H4    S    
C53   H26   S    
C65   H55   S    
C13   N1    A    
C20   C74   S    
C73   H63   S    
C50   F2    S    
C75   H74   S    
C6    C46   A    
C71   H69   S    
C46   H6    S    
C3    C12   S    
C16   N2    A    
C57   H31   S    
C41   C43   S    
Cu1   N1    S    
C34   C41   A    
C42   C44   S    
C76   H71   S    
C56   H33   S    
C58   H28   S    
Cu2   O4    S    
C60   H38   S    
C10   H12   S    
C3    C49   A    
C7    C12   A    
C15   H15   S    
C5    C48   A    
C68   H62   S    
C62   H47   S    
C6    C47   A    
C4    C51   A    
C35   H1    S    
C1    C6    S    
C23   H17   S    
C59   H41   S    
C36   C40   A    
C16   H16   S    
C24   C25   A    
C29   O8    A    
C63   H45   S    
C64   H44   S    
C69   H60   S    
C54   C55   S    
C34   C38   A    
C47   C51   A    
C34   C62   S    
Cu1   Cu2   S    
C5    C45   A    
C33   C37   A    
C4    C50   A    
C14   N2    A    
C30   O6    A    
C35   C39   A    
C43   C44   T    
C29   O5    A    
C2    O2    A    
C53   H27   S    
C48   H8    S    
C74   C75   S    
C45   C49   A    
C16   C20   A    
C57   C58   S    
C33   C59   S    
C75   H73   S    
C69   C70   S    
C4    C11   S    
C9    C11   A    
C7    H9    S    
C10   C12   A    
C8    H10   S    
Cu2   N2    S    
C66   H52   S    
C20   C22   A    
C72   H66   S    
C55   H22   S    
C22   C27   S    
C61   H37   S    
C31   C35   A    
C70   H58   S    
C2    C5    S    
C23   C28   A    
C61   H35   S    
C67   H49   S    
Cu2   O6    S    
C76   H72   S    
C56   H34   S    
C24   H18   S    
C65   C66   S    
C13   H13   S    
C7    C9    A    
C45   H5    S    
C32   C42   A    
C62   H48   S    
C31   C41   A    
C19   C21   A    
C18   C22   A    
C21   C28   S    
C66   H53   S    
C67   H50   S    
C69   H59   S    
C47   H7    S    
C3    C52   A    
C49   F1    S    
C59   C60   S    
C46   C50   A    
C64   H42   S    
C13   C17   A    
Cu1   O7    S    
C51   F3    S    
C75   C76   S    
C64   H43   S    
C66   C67   S    
C54   H25   S    
C71   C72   S    
C68   C69   S    
C61   H36   S    
C8    C11   A    
C29   C40   S    
C19   C71   S    
C74   H75   S    
C30   C39   S    
C25   H19   S    
C73   H64   S    
C18   C68   S    
C9    H11   S    
C48   C52   A    
C32   C56   S    
C65   H54   S    
C8    C10   A    
C55   H23   S    
C1    O4    A    
C14   H14   S    
C72   C73   S    
C72   H67   S    
C70   H56   S    
C71   H68   S    
C17   C65   S    
C37   H3    S    
Cu2   O2    S    
C17   C21   A    
