data_mof_unit_21940.cif
_audit_creation_date              2012-10-26T20:16:40-0400
_audit_creation_method            fapswitch 2.2
_symmetry_space_group_name_H-M    P1
_symmetry_Int_Tables_number       1
_space_group_crystal_system       triclinic
_cell_length_a                    10.933984
_cell_length_b                    10.889376
_cell_length_c                    9.79529
_cell_angle_alpha                 99.288925
_cell_angle_beta                  98.523369
_cell_angle_gamma                 92.861547
_cell_volume                      1135.00077247

loop_
_atom_site_label
_atom_site_type_symbol
_atom_type_description
_atom_site_fract_x
_atom_site_fract_y
_atom_site_fract_z
_atom_type_partial_charge
C1    C     C_R   0.498322 0.261753 0.498711 0.540364
C2    C     C_R   0.714291 0.969681 0.831239 -0.108735
C3    C     C_R   0.407482 0.069613 0.232195 0.056994
C4    C     C_R   0.591604 0.930384 0.767988 0.057051
C5    C     C_R   0.487491 0.121873 0.153494 -0.039850
C6    C     C_R   0.511363 0.877913 0.846282 -0.039860
C7    C     C_R   0.444897 0.137517 0.016185 -0.115466
C8    C     C_R   0.553613 0.862137 0.983630 -0.115299
C9    C     C_R   0.323184 0.097219 0.954373 -0.134557
C10   C     C_R   0.675192 0.902553 0.045897 -0.134613
C11   C     C_R   0.457750 0.912899 0.379499 -0.164938
C12   C     C_R   0.501524 0.738245 0.501293 0.540485
C13   C     C_R   0.541777 0.087088 0.620558 -0.164895
C14   C     C_R   0.501132 0.872500 0.504970 -0.012162
C15   C     C_R   0.498480 0.127490 0.495066 -0.012185
C16   C     C_R   0.262365 0.508481 0.499814 0.548495
C17   C     C_R   0.737660 0.491656 0.500189 0.548466
C18   C     C_R   0.543591 0.961128 0.628344 -0.032981
C19   C     C_R   0.455856 0.038868 0.371735 -0.033001
C20   C     C_2   0.508539 0.512354 0.079179 -0.042482
C21   C     C_2   0.491473 0.487638 0.920823 -0.042545
C22   C     C_R   0.154742 0.575605 0.067664 -0.078486
C23   C     C_R   0.872649 0.485387 0.503229 -0.012055
C24   C     C_R   0.845372 0.425891 0.932931 -0.078363
C25   C     C_R   0.109592 0.571786 0.193056 -0.051044
C26   C     C_R   0.890410 0.429282 0.807397 -0.050784
C27   C     C_R   0.082045 0.456710 0.233975 0.063811
C28   C     C_R   0.917963 0.544149 0.766022 0.063877
C29   C     C_R   0.103398 0.345766 0.148246 -0.075949
C30   C     C_R   0.896756 0.655318 0.851444 -0.076079
C31   C     C_R   0.140286 0.350098 0.018333 -0.131013
C32   C     C_R   0.860008 0.651415 0.981512 -0.131032
C33   C     C_R   0.167743 0.464742 0.978982 -0.107221
C34   C     C_R   0.127399 0.514908 0.496764 -0.012008
C35   C     C_R   0.832542 0.536979 0.021322 -0.107550
C36   C     C_R   0.919415 0.430396 0.382763 -0.017380
C37   C     C_R   0.080650 0.569963 0.617200 -0.017257
C38   C     C_3   0.844080 0.323708 0.278678 -0.267657
C39   C     C_3   0.826313 0.210228 0.349482 -0.444167
C40   C     C_3   0.155896 0.676910 0.720981 -0.268035
C41   C     C_3   0.172406 0.790540 0.650071 -0.444692
C42   C     C_R   0.955351 0.542556 0.625569 -0.034123
C43   C     C_R   0.044698 0.457870 0.374392 -0.034144
C44   C     C_R   0.242989 0.043855 0.030955 -0.137300
C45   C     C_R   0.755576 0.956215 0.969748 -0.137377
C46   C     C_R   0.284642 0.030471 0.169413 -0.108811
Cu1   Cu    Cu3+1 0.521120 0.521140 0.639640 0.929258
Cu2   Cu    Cu3+1 0.478880 0.478860 0.360360 0.929291
H1    H     H_    0.199331 0.467258 0.879919 0.109042
H2    H     H_    0.574783 0.587566 0.135607 0.143739
H3    H     H_    0.612702 0.625340 0.905539 0.225733
H4    H     H_    0.387297 0.374670 0.094456 0.225567
H5    H     H_    0.178084 0.664619 0.038898 0.086089
H6    H     H_    0.822010 0.337037 0.962043 0.086084
H7    H     H_    0.098262 0.658600 0.259925 0.083698
H8    H     H_    0.901648 0.342301 0.740776 0.083738
H9    H     H_    0.090505 0.256338 0.181102 0.101330
H10   H     H_    0.909768 0.744595 0.818283 0.101259
H11   H     H_    0.149283 0.264856 0.948565 0.102084
H12   H     H_    0.801104 0.534799 0.120529 0.108796
H13   H     H_    0.851213 0.736829 0.051087 0.102258
H14   H     H_    0.291117 0.107248 0.847053 0.100622
H15   H     H_    0.707005 0.892411 0.153238 0.100808
H16   H     H_    0.148669 0.012376 0.982801 0.093773
H17   H     H_    0.849780 0.987808 0.018252 0.093682
H18   H     H_    0.222116 0.987073 0.226756 0.093623
H19   H     H_    0.776979 0.013246 0.774217 0.093574
H20   H     H_    0.916502 0.188586 0.405643 0.145042
H21   H     H_    0.760344 0.227709 0.425131 0.153830
H22   H     H_    0.789692 0.127397 0.269565 0.125158
H23   H     H_    0.583034 0.149336 0.197921 0.117588
H24   H     H_    0.753876 0.349958 0.229613 0.173361
H25   H     H_    0.889844 0.292150 0.188245 0.125460
H26   H     H_    0.237617 0.773359 0.573518 0.153347
H27   H     H_    0.081693 0.811931 0.594940 0.145235
H28   H     H_    0.209357 0.873389 0.729783 0.125360
H29   H     H_    0.110613 0.707987 0.811943 0.125660
H30   H     H_    0.246570 0.651210 0.769408 0.173408
H31   H     H_    0.415914 0.850341 0.801486 0.117389
H32   H     H_    0.507134 0.178503 0.956821 0.104018
H33   H     H_    0.491211 0.820960 0.042667 0.104050
H34   H     H_    0.424660 0.845508 0.285287 0.130298
H35   H     H_    0.574827 0.154474 0.714786 0.130294
H36   H     H_    0.425230 0.412421 0.864397 0.143734
N1    N     N_2   0.447120 0.447110 0.150550 -0.350105
N2    N     N_2   0.552880 0.552890 0.849450 -0.350149
O1    O     O_R   0.517830 0.337490 0.617920 -0.508566
O2    O     O_R   0.482170 0.662510 0.382080 -0.508577
O3    O     O_R   0.482150 0.301790 0.382070 -0.494033
O4    O     O_R   0.517850 0.698210 0.617930 -0.493957
O5    O     O_R   0.337480 0.517860 0.617920 -0.514539
O6    O     O_R   0.662520 0.482140 0.382080 -0.514344
O7    O     O_R   0.301810 0.482160 0.382070 -0.478203
O8    O     O_R   0.698190 0.517840 0.617930 -0.478254

loop_
_geom_bond_atom_site_label_1
_geom_bond_atom_site_label_2
_ccdc_geom_bond_type
C1    O1    A    
C5    H23   S    
C27   C29   A    
C34   C37   A    
C39   H20   S    
C14   C18   A    
C10   H15   S    
C44   H16   S    
C15   C19   A    
C11   C19   A    
C16   O7    A    
C17   C23   S    
C23   C42   A    
C13   C18   A    
C12   O4    A    
H4    N1    S    
C24   C26   A    
C32   H13   S    
C46   H18   S    
C37   C40   S    
C38   C39   S    
C11   C14   A    
C33   H1    S    
C31   H11   S    
C37   C42   A    
C20   H2    S    
C16   C34   S    
C41   H26   S    
C39   H22   S    
C22   C25   A    
Cu2   O2    S    
C3    C19   S    
C1    C15   S    
C4    C18   S    
C2    C45   A    
C17   O6    A    
H3    N2    S    
C44   C46   A    
C22   H5    S    
C11   H34   S    
C38   H24   S    
C24   C35   A    
Cu2   O7    S    
C12   O2    A    
C9    H14   S    
Cu1   N2    S    
C4    C6    A    
C2    H19   S    
C5    C7    A    
C6    C8    A    
C8    H33   S    
C35   H12   S    
Cu1   O1    S    
C2    C4    A    
C32   C35   A    
C41   H27   S    
Cu1   Cu2   S    
C21   H36   S    
C20   N1    D    
C10   C45   A    
C31   C33   A    
C39   H21   S    
C40   C41   S    
C12   C14   S    
Cu2   O3    S    
C13   C15   A    
C45   H17   S    
Cu1   O4    S    
C40   H30   S    
C7    C9    A    
C22   C33   A    
C21   N2    D    
C9    C44   A    
C1    O3    A    
C28   C42   S    
Cu2   N1    S    
Cu1   O5    S    
C34   C43   A    
C25   H7    S    
C29   H9    S    
C3    C5    A    
C26   H8    S    
C25   C27   A    
C13   H35   S    
C3    C46   A    
C26   C28   A    
C36   C38   S    
C29   C31   A    
C41   H28   S    
C30   C32   A    
C6    H31   S    
C30   H10   S    
C28   C30   A    
Cu1   O8    S    
C27   C43   S    
C20   C21   S    
C16   O5    A    
C8    C10   A    
C23   C36   A    
Cu2   O6    S    
C40   H29   S    
C36   C43   A    
C17   O8    A    
C24   H6    S    
C7    H32   S    
C38   H25   S    
