data_mof_unit_24904.cif
_audit_creation_date              2013-03-05T15:59:45-0500
_audit_creation_method            fapswitch 2.2
_symmetry_space_group_name_H-M    P1
_symmetry_Int_Tables_number       1
_space_group_crystal_system       triclinic
_cell_length_a                    18.323467
_cell_length_b                    26.067326
_cell_length_c                    18.240072
_cell_angle_alpha                 90.103441
_cell_angle_beta                  90.105582
_cell_angle_gamma                 89.841532
_cell_volume                      8712.19484547

loop_
_atom_site_label
_atom_site_type_symbol
_atom_site_description
_atom_site_fract_x
_atom_site_fract_y
_atom_site_fract_z
_atom_type_partial_charge
Zn1   Zn    Zn3+2 0.500000 0.706650 0.586810 1.110851
Zn2   Zn    Zn3+2 0.500000 0.293350 0.413190 1.067605
Zn3   Zn    Zn3+2 0.500000 0.706650 0.413190 1.115844
Zn4   Zn    Zn3+2 0.500000 0.293350 0.586810 1.085960
Zn5   Zn    Zn3+2 0.000000 0.206650 0.086810 1.085659
Zn6   Zn    Zn3+2 0.000000 0.793350 0.913190 1.079908
Zn7   Zn    Zn3+2 0.000000 0.206650 0.913190 1.110997
Zn8   Zn    Zn3+2 0.000000 0.793350 0.086810 1.125130
Zn9   Zn    Zn3+2 0.586710 0.793420 0.500000 1.074721
Zn10  Zn    Zn3+2 0.413290 0.206580 0.500000 1.135228
Zn11  Zn    Zn3+2 0.413290 0.793420 0.500000 1.051211
Zn12  Zn    Zn3+2 0.586710 0.206580 0.500000 1.003026
Zn13  Zn    Zn3+2 0.086710 0.293420 0.000000 1.059316
Zn14  Zn    Zn3+2 0.913290 0.706580 0.000000 1.070860
Zn15  Zn    Zn3+2 0.913290 0.293420 0.000000 1.029716
Zn16  Zn    Zn3+2 0.086710 0.706580 0.000000 1.079431
O1    O     O_3   0.500000 0.750040 0.500000 -0.543677
O2    O     O_3   0.500000 0.249960 0.500000 -0.554372
O3    O     O_3   0.000000 0.250040 0.000000 -0.562923
O4    O     O_3   0.000000 0.749960 0.000000 -0.542161
O5    O     O_R   0.585420 0.719700 0.353880 -0.630218
O6    O     O_R   0.414580 0.280300 0.646120 -0.601461
O7    O     O_R   0.414580 0.719700 0.646120 -0.653668
O8    O     O_R   0.585420 0.280300 0.353880 -0.566827
O9    O     O_R   0.585420 0.280300 0.646120 -0.624042
O10   O     O_R   0.414580 0.719700 0.353880 -0.544984
O11   O     O_R   0.414580 0.280300 0.353880 -0.642685
O12   O     O_R   0.585420 0.719700 0.646120 -0.557652
O13   O     O_R   0.085420 0.219700 0.853880 -0.567736
O14   O     O_R   0.914580 0.780300 0.146120 -0.550314
O15   O     O_R   0.914580 0.219700 0.146120 -0.630913
O16   O     O_R   0.085420 0.780300 0.853880 -0.571162
O17   O     O_R   0.085420 0.780300 0.146120 -0.646738
O18   O     O_R   0.914580 0.219700 0.853880 -0.569238
O19   O     O_R   0.914580 0.780300 0.853880 -0.681090
O20   O     O_R   0.085420 0.219700 0.146120 -0.567208
O21   O     O_R   0.646120 0.780390 0.585510 -0.684404
O22   O     O_R   0.353880 0.219610 0.414490 -0.582365
O23   O     O_R   0.353880 0.780390 0.414490 -0.692898
O24   O     O_R   0.646120 0.219610 0.585510 -0.630371
O25   O     O_R   0.646120 0.219610 0.414490 -0.663719
O26   O     O_R   0.353880 0.780390 0.585510 -0.615734
O27   O     O_R   0.353880 0.219610 0.585510 -0.584196
O28   O     O_R   0.646120 0.780390 0.414490 -0.605872
O29   O     O_R   0.146120 0.280390 0.085510 -0.595034
O30   O     O_R   0.853880 0.719610 0.914490 -0.618919
O31   O     O_R   0.853880 0.280390 0.914490 -0.675488
O32   O     O_R   0.146120 0.719610 0.085510 -0.605969
O33   O     O_R   0.146120 0.719610 0.914490 -0.684794
O34   O     O_R   0.853880 0.280390 0.085510 -0.607023
O35   O     O_R   0.853880 0.719610 0.085510 -0.678342
O36   O     O_R   0.146120 0.280390 0.914490 -0.631705
O37   O     O_R   0.560660 0.865840 0.500000 -0.626351
O38   O     O_R   0.439340 0.134160 0.500000 -0.597789
O39   O     O_R   0.439340 0.865840 0.500000 -0.632967
O40   O     O_R   0.560660 0.134160 0.500000 -0.680113
O41   O     O_R   0.060660 0.365840 0.000000 -0.596871
O42   O     O_R   0.939340 0.634160 0.000000 -0.596192
O43   O     O_R   0.939340 0.365840 0.000000 -0.596183
O44   O     O_R   0.060660 0.634160 0.000000 -0.605271
O45   O     O_R   0.500000 0.634240 0.439310 -0.623053
O46   O     O_R   0.500000 0.365760 0.560690 -0.593600
O47   O     O_R   0.500000 0.634240 0.560690 -0.637532
O48   O     O_R   0.500000 0.365760 0.439310 -0.636812
O49   O     O_R   0.000000 0.134240 0.939310 -0.591807
O50   O     O_R   1.000000 0.865760 0.060690 -0.617965
O51   O     O_R   0.000000 0.134240 0.060690 -0.643188
O52   O     O_R   0.000000 0.865760 0.939310 -0.634752
C1    C     C_R   0.640086 0.749726 0.360126 1.011646
C2    C     C_R   0.359661 0.250503 0.639568 1.020851
C3    C     C_R   0.359971 0.749907 0.639876 1.001804
C4    C     C_R   0.639758 0.249648 0.359783 0.985030
C5    C     C_R   0.639482 0.249650 0.640389 1.003260
C6    C     C_R   0.360415 0.750362 0.359538 0.993418
C7    C     C_R   0.359693 0.250332 0.360354 1.004762
C8    C     C_R   0.639599 0.750601 0.640386 1.047464
C9    C     C_R   0.139802 0.250081 0.859706 0.979453
C10   C     C_R   0.860123 0.749647 0.140211 1.027171
C11   C     C_R   0.860185 0.250291 0.140261 1.017259
C12   C     C_R   0.140082 0.749817 0.860000 1.041777
C13   C     C_R   0.139489 0.749595 0.140442 0.998806
C14   C     C_R   0.859737 0.249711 0.860168 0.951920
C15   C     C_R   0.860243 0.749961 0.859951 0.974707
C16   C     C_R   0.139551 0.250300 0.140338 0.996284
C17   C     C_R   0.500034 0.890103 0.501084 1.041109
C18   C     C_R   0.500244 0.109838 0.499770 0.967372
C19   C     C_R   0.999864 0.390128 0.996379 0.887318
C20   C     C_R   0.000015 0.609694 0.999467 1.007651
C21   C     C_R   0.499457 0.610037 0.499933 0.934872
C22   C     C_R   0.500830 0.390410 0.500033 0.796443
C23   C     C_R   0.001339 0.109668 0.999884 0.809946
C24   C     C_R   0.000167 0.890050 0.999999 0.945526
C25   C     C_R   0.417963 0.546591 0.391842 0.208720
C26   C     C_R   0.523296 0.456132 0.636952 0.315762
C27   C     C_R   0.594405 0.547472 0.599328 0.278445
C28   C     C_R   0.501561 0.458852 0.361292 0.240765
C29   C     C_R   0.024459 0.044391 0.862583 0.285184
C30   C     C_R   0.922061 0.955027 0.108580 0.289135
C31   C     C_R   0.005805 0.042199 0.138559 0.234858
C32   C     C_R   0.094533 0.952206 0.899752 0.235777
C33   C     C_R   0.418033 0.527112 0.319327 0.235157
C34   C     C_R   0.574191 0.477792 0.686759 0.157579
C35   C     C_R   0.609258 0.524790 0.668369 0.216078
C36   C     C_R   0.461815 0.482942 0.303244 0.173243
C37   C     C_R   0.075633 0.022636 0.813216 0.207597
C38   C     C_R   0.923039 0.974353 0.181089 0.219204
C39   C     C_R   0.966657 0.018398 0.196921 0.178765
C40   C     C_R   0.109973 0.975174 0.831263 0.242492
C41   C     C_R   0.489170 0.475377 0.434132 -0.110309
C42   C     C_R   0.538134 0.526936 0.555528 -0.123349
C43   C     C_R   0.519773 0.475619 0.564911 -0.125677
C44   C     C_R   0.467673 0.526064 0.442639 -0.143550
C45   C     C_R   0.038418 0.972986 0.943417 -0.157639
C46   C     C_R   0.993476 0.025057 0.065929 -0.127526
C47   C     C_R   0.971847 0.974552 0.057991 -0.105248
C48   C     C_R   0.020457 0.024553 0.934421 -0.096308
C49   C     C_R   0.503020 0.447076 0.499920 0.037353
C50   C     C_R   0.500895 0.554110 0.499820 0.048250
C51   C     C_R   0.002474 0.946116 0.999924 0.049412
C52   C     C_R   0.005037 0.053155 0.999791 0.044557
C53   C     C_R   0.309125 0.784153 0.756007 0.209082
C54   C     C_R   0.709228 0.204522 0.261681 0.304892
C55   C     C_R   0.709509 0.794468 0.262853 0.230115
C56   C     C_R   0.229705 0.262132 0.675656 0.200196
C57   C     C_R   0.287647 0.204348 0.265595 0.282988
C58   C     C_R   0.694213 0.788634 0.753518 0.187642
C59   C     C_R   0.684572 0.220800 0.762292 0.293332
C60   C     C_R   0.318847 0.771698 0.233332 0.268935
C61   C     C_R   0.788546 0.296085 0.236384 0.283067
C62   C     C_R   0.192777 0.713175 0.745197 0.204969
C63   C     C_R   0.268671 0.236769 0.821489 0.337525
C64   C     C_R   0.791643 0.703759 0.238384 0.182599
C65   C     C_R   0.807768 0.714725 0.745043 0.193616
C66   C     C_R   0.207470 0.295630 0.239033 0.298374
C67   C     C_R   0.182096 0.726219 0.265289 0.178694
C68   C     C_R   0.815872 0.274950 0.736417 0.285136
C69   C     C_R   0.737591 0.293787 0.293554 0.381993
C70   C     C_R   0.247814 0.713754 0.691929 0.349513
C71   C     C_R   0.322907 0.242047 0.768026 0.348092
C72   C     C_R   0.732841 0.703467 0.287886 0.358180
C73   C     C_R   0.755188 0.717855 0.689343 0.421780
C74   C     C_R   0.265482 0.295868 0.289492 0.352617
C75   C     C_R   0.235703 0.729881 0.320196 0.411480
C76   C     C_R   0.758917 0.277177 0.684946 0.377834
C77   C     C_R   0.256405 0.781642 0.811567 0.406140
C78   C     C_R   0.766995 0.204706 0.211218 0.322024
C79   C     C_R   0.757877 0.791261 0.203856 0.407508
C80   C     C_R   0.177391 0.264650 0.731698 0.393716
C81   C     C_R   0.236188 0.206058 0.208965 0.379123
C82   C     C_R   0.749309 0.787636 0.806927 0.381136
C83   C     C_R   0.737722 0.224166 0.817589 0.359556
C84   C     C_R   0.262133 0.773321 0.181618 0.365095
C85   C     C_R   0.696022 0.249096 0.303739 -0.361295
C86   C     C_R   0.304277 0.749976 0.696403 -0.363305
C87   C     C_R   0.302848 0.251557 0.694936 -0.379936
C88   C     C_R   0.695617 0.749633 0.303413 -0.362096
C89   C     C_R   0.695994 0.751977 0.696355 -0.385429
C90   C     C_R   0.303591 0.250001 0.304006 -0.351063
C91   C     C_R   0.304486 0.750590 0.303053 -0.347383
C92   C     C_R   0.694659 0.249133 0.697225 -0.373350
C93   C     C_R   0.196239 0.748562 0.803859 -0.379504
C94   C     C_R   0.804408 0.250711 0.196926 -0.374057
C95   C     C_R   0.803781 0.748366 0.196350 -0.381097
C96   C     C_R   0.196171 0.249829 0.803493 -0.354481
C97   C     C_R   0.194977 0.250892 0.197305 -0.368930
C98   C     C_R   0.804568 0.750091 0.803477 -0.373154
C99   C     C_R   0.803639 0.249919 0.803744 -0.342923
C100  C     C_R   0.195308 0.749439 0.196941 -0.352048
C101  C     C_R   0.459102 0.972707 0.448690 0.345134
C102  C     C_R   0.541249 0.027115 0.553866 0.376420
C103  C     C_R   0.542997 0.973227 0.552898 0.383117
C104  C     C_R   0.464535 0.026391 0.444352 0.331720
C105  C     C_R   0.932839 0.473338 0.981857 0.390210
C106  C     C_R   0.066545 0.526333 0.987621 0.387339
C107  C     C_R   0.066226 0.473043 0.980993 0.391126
C108  C     C_R   0.932858 0.526746 0.987532 0.393594
C109  C     C_R   0.501311 0.053678 0.499779 -0.350010
C110  C     C_R   0.500406 0.946187 0.501302 -0.347544
C111  C     C_R   0.999825 0.553473 0.992775 -0.385179
C112  C     C_R   0.999575 0.446054 0.985802 -0.410977
S1    S     S_3+6 0.660310 0.560303 0.734474 0.132440
O53   O     O_2   0.738337 0.542365 0.734173 -0.235569
O54   O     O_2   0.657983 0.616506 0.716536 -0.225575
O55   O     O_3   0.625280 0.552696 0.818879 -0.462286
H1    H     H_    0.660100 0.570147 0.852142 0.370502
S2    S     S_3+6 0.465450 0.456360 0.212839 0.114422
O56   O     O_2   0.521194 0.485068 0.168768 -0.168438
O57   O     O_2   0.486460 0.400696 0.214810 -0.267555
O58   O     O_3   0.383928 0.460546 0.170820 -0.503565
H2    H     H_    0.392298 0.447182 0.120660 0.395624
S3    S     S_3+6 0.372331 0.562923 0.249386 0.157075
O59   O     O_2   0.300366 0.537900 0.232687 -0.175359
O60   O     O_2   0.358718 0.617148 0.274008 -0.226519
O61   O     O_3   0.422575 0.565577 0.172481 -0.472336
H3    H     H_    0.390387 0.581974 0.135603 0.388434
S4    S     S_3+6 0.597229 0.442441 0.767306 0.124731
O62   O     O_2   0.546774 0.457784 0.828409 -0.134059
O63   O     O_2   0.588896 0.385909 0.753503 -0.305616
O64   O     O_3   0.683734 0.452746 0.794214 -0.494147
H4    H     H_    0.714250 0.437391 0.755133 0.338778
S5    S     S_3+6 0.970314 0.045210 0.287197 0.120901
O65   O     O_2   0.028135 0.017788 0.330733 -0.169996
O66   O     O_2   0.988399 0.101284 0.284841 -0.257862
O67   O     O_3   0.889667 0.039396 0.330137 -0.508624
H5    H     H_    0.898179 0.052817 0.380254 0.393821
S6    S     S_3+6 0.160864 0.939478 0.765327 0.158968
O68   O     O_2   0.239253 0.956302 0.766803 -0.150683
O69   O     O_2   0.157247 0.883196 0.782540 -0.239252
O70   O     O_3   0.126539 0.948282 0.680709 -0.485936
H6    H     H_    0.160574 0.929922 0.647608 0.380175
S7    S     S_3+6 0.100940 0.058913 0.734548 0.165969
O71   O     O_2   0.050838 0.045752 0.671999 -0.176122
O72   O     O_2   0.094443 0.115224 0.751180 -0.222408
O73   O     O_3   0.187705 0.047319 0.709638 -0.462809
H7    H     H_    0.195004 0.067642 0.664420 0.392591
S8    S     S_3+6 0.881132 0.937227 0.251296 0.165800
O74   O     O_2   0.808276 0.960347 0.270049 -0.157611
O75   O     O_2   0.870302 0.883102 0.225296 -0.212521
O76   O     O_3   0.933395 0.934948 0.327056 -0.482517
H8    H     H_    0.903413 0.916800 0.363902 0.382071
S9    S     S_3+6 0.339886 0.578177 0.428745 0.105515
O77   O     O_2   0.349218 0.635319 0.426800 -0.241071
O78   O     O_2   0.272138 0.564175 0.386746 -0.150613
O79   O     O_3   0.329174 0.559944 0.516405 -0.588744
H9    H     H_    0.320350 0.522498 0.514111 0.382476
S10   S     S_3+6 0.440798 0.431191 0.673891 0.082695
O80   O     O_2   0.452436 0.378028 0.703086 -0.243250
O81   O     O_2   0.415774 0.465381 0.735409 -0.265898
O82   O     O_3   0.375374 0.429697 0.609077 -0.577247
H10   H     H_    0.330497 0.419394 0.635335 0.364694
S11   S     S_3+6 0.662724 0.583965 0.553633 0.097595
O83   O     O_2   0.646778 0.640220 0.560162 -0.291735
O84   O     O_2   0.736957 0.572876 0.585064 -0.163491
O85   O     O_3   0.663280 0.567981 0.464257 -0.548640
H11   H     H_    0.706536 0.585537 0.443781 0.411706
S12   S     S_3+6 0.589845 0.433247 0.342258 0.165235
O86   O     O_2   0.584249 0.379105 0.314986 -0.182356
O87   O     O_2   0.626082 0.464971 0.284133 -0.153467
O88   O     O_3   0.642943 0.434892 0.417700 -0.512866
H12   H     H_    0.642061 0.399665 0.437846 0.334509
S13   S     S_3+6 0.942380 0.069972 0.824597 0.120863
O89   O     O_2   0.954935 0.122567 0.793692 -0.178732
O90   O     O_2   0.916712 0.035212 0.764037 -0.252623
O91   O     O_3   0.876937 0.073201 0.889077 -0.531547
H13   H     H_    0.835757 0.091444 0.865287 0.401089
S14   S     S_3+6 0.842436 0.927053 0.070252 0.070473
O92   O     O_2   0.852988 0.870422 0.059971 -0.313594
O93   O     O_2   0.777237 0.936985 0.118088 -0.172991
O94   O     O_3   0.827344 0.953718 0.987638 -0.566899
H14   H     H_    0.774195 0.950249 0.979114 0.389536
S15   S     S_3+6 0.093363 0.068690 0.157244 0.149361
O95   O     O_2   0.086126 0.122231 0.186431 -0.170893
O96   O     O_2   0.131634 0.036543 0.213854 -0.164579
O97   O     O_3   0.145229 0.069114 0.081137 -0.556717
H15   H     H_    0.141820 0.104455 0.061661 0.356912
S16   S     S_3+6 0.163089 0.916113 0.946257 0.070751
O98   O     O_2   0.147672 0.859788 0.940747 -0.270059
O99   O     O_2   0.237624 0.926514 0.915558 -0.165198
O100  O     O_3   0.162806 0.932894 0.035339 -0.607174
H16   H     H_    0.178561 0.969199 0.036079 0.402399
S17   S     S_3+6 0.384569 0.826670 0.763533 0.140853
O101  O     O_2   0.393387 0.856135 0.693384 -0.220283
O102  O     O_2   0.376571 0.864302 0.825547 -0.143940
O103  O     O_3   0.459510 0.790683 0.777125 -0.487623
H17   H     H_    0.451611 0.773394 0.824706 0.344579
S18   S     S_3+6 0.652654 0.149329 0.269954 0.053552
O104  O     O_2   0.575247 0.165292 0.284695 -0.338871
O105  O     O_2   0.653613 0.117849 0.200847 -0.174382
O106  O     O_3   0.683466 0.112910 0.339639 -0.555972
H18   H     H_    0.648305 0.118043 0.380136 0.370908
S19   S     S_3+6 0.666068 0.853968 0.284471 0.108725
O107  O     O_2   0.695456 0.873290 0.356325 -0.233265
O108  O     O_2   0.679185 0.894291 0.227293 -0.156940
O109  O     O_3   0.575812 0.845124 0.292796 -0.553251
H19   H     H_    0.558148 0.842405 0.241631 0.402578
S20   S     S_3+6 0.204393 0.273789 0.582449 0.120934
O110  O     O_2   0.206924 0.223829 0.541301 -0.176191
O111  O     O_2   0.128839 0.295791 0.575214 -0.174157
O112  O     O_3   0.263931 0.314507 0.543682 -0.545972
H20   H     H_    0.260559 0.346205 0.573500 0.340890
S21   S     S_3+6 0.333942 0.145919 0.286589 0.106717
O113  O     O_2   0.308137 0.126852 0.359841 -0.212384
O114  O     O_2   0.320758 0.104460 0.230834 -0.184286
O115  O     O_3   0.423951 0.158012 0.290205 -0.555310
H21   H     H_    0.438131 0.153875 0.342270 0.364697
S22   S     S_3+6 0.627645 0.838570 0.758600 0.137407
O116  O     O_2   0.571781 0.836045 0.698349 -0.237173
O117  O     O_2   0.589803 0.835168 0.831426 -0.148952
O118  O     O_3   0.669596 0.895735 0.754112 -0.475623
H22   H     H_    0.710428 0.890614 0.719361 0.307446
S23   S     S_3+6 0.609272 0.178476 0.775453 0.086869
O119  O     O_2   0.563995 0.171564 0.707383 -0.301933
O120  O     O_2   0.638344 0.127016 0.798693 -0.203459
O121  O     O_3   0.555810 0.201618 0.842609 -0.555174
H23   H     H_    0.519544 0.174289 0.851868 0.428679
S24   S     S_3+6 0.405207 0.799626 0.212656 0.045031
O122  O     O_2   0.466135 0.763667 0.233068 -0.307673
O123  O     O_2   0.412489 0.811835 0.132523 -0.204310
O124  O     O_3   0.413384 0.854484 0.260688 -0.528175
H24   H     H_    0.423899 0.843792 0.311686 0.359984
S25   S     S_3+6 0.830539 0.355629 0.213268 0.133745
O125  O     O_2   0.796048 0.375131 0.143816 -0.209925
O126  O     O_2   0.821066 0.395455 0.272172 -0.158477
O127  O     O_3   0.920235 0.346634 0.198948 -0.534635
H25   H     H_    0.936304 0.377261 0.171306 0.391282
S26   S     S_3+6 0.124578 0.664784 0.738629 0.097649
O128  O     O_2   0.064440 0.671374 0.793681 -0.293674
O129  O     O_2   0.092601 0.665892 0.662740 -0.122251
O130  O     O_3   0.163660 0.607077 0.751433 -0.535738
H26   H     H_    0.201208 0.612730 0.789692 0.306969
S27   S     S_3+6 0.291163 0.212152 0.909341 0.027525
O131  O     O_2   0.231453 0.177154 0.935109 -0.345519
O132  O     O_2   0.361473 0.182272 0.907087 -0.245806
O133  O     O_3   0.299325 0.261887 0.967757 -0.573258
H27   H     H_    0.343814 0.254736 0.996966 0.362784
S28   S     S_3+6 0.848449 0.648362 0.229154 0.133584
O134  O     O_2   0.925366 0.663474 0.211147 -0.212004
O135  O     O_2   0.849167 0.618371 0.299449 -0.144793
O136  O     O_3   0.816754 0.610342 0.161621 -0.471764
H28   H     H_    0.789533 0.633310 0.128085 0.341851
S29   S     S_3+6 0.880033 0.669145 0.737296 0.114042
O137  O     O_2   0.906682 0.651485 0.810982 -0.318495
O138  O     O_2   0.855626 0.622977 0.694434 -0.109979
O139  O     O_3   0.949095 0.697144 0.692291 -0.466506
H29   H     H_    0.955893 0.730817 0.716756 0.345355
S30   S     S_3+6 0.148854 0.349988 0.230375 0.091712
O140  O     O_2   0.071257 0.332277 0.222953 -0.286502
O141  O     O_2   0.154329 0.384756 0.295979 -0.169893
O142  O     O_3   0.172337 0.382780 0.154711 -0.518245
H30   H     H_    0.132246 0.407785 0.147032 0.401562
S31   S     S_3+6 0.099952 0.691321 0.280307 0.136990
O143  O     O_2   0.087797 0.655506 0.216813 -0.206846
O144  O     O_2   0.102916 0.660229 0.349557 -0.140007
O145  O     O_3   0.029180 0.732450 0.284842 -0.497443
H31   H     H_    0.047894 0.762773 0.311599 0.328047
S32   S     S_3+6 0.903375 0.300603 0.715804 0.076215
O146  O     O_2   0.957027 0.256940 0.712460 -0.192716
O147  O     O_2   0.904973 0.328247 0.643627 -0.186186
O148  O     O_3   0.928301 0.341783 0.782372 -0.635962
H32   H     H_    0.964971 0.323319 0.812410 0.324606
O149  O     O_3   0.726636 0.335784 0.338688 -0.525276
C113  C     C_3   0.771297 0.330160 0.401401 -0.135185
H33   H     H_    0.829563 0.323554 0.386673 0.193268
H34   H     H_    0.751471 0.298640 0.437101 0.131589
H35   H     H_    0.768943 0.366178 0.433724 0.208361
O150  O     O_3   0.244104 0.680267 0.632973 -0.576492
C114  C     C_3   0.289968 0.637434 0.645583 -0.007541
H36   H     H_    0.259447 0.602166 0.631055 0.247717
H37   H     H_    0.309248 0.632980 0.703348 0.088351
H38   H     H_    0.338107 0.639699 0.608989 0.181683
O151  O     O_3   0.395858 0.235094 0.785368 -0.557793
C115  C     C_3   0.423218 0.280663 0.817380 -0.002894
H39   H     H_    0.421433 0.277772 0.877997 0.180296
H40   H     H_    0.394056 0.316234 0.799866 0.141621
H41   H     H_    0.481134 0.285152 0.801079 0.226756
O152  O     O_3   0.715361 0.659488 0.326469 -0.588114
C116  C     C_3   0.667894 0.629249 0.283261 -0.089492
H42   H     H_    0.698433 0.608694 0.239757 0.209608
H43   H     H_    0.622837 0.651980 0.258046 0.150608
H44   H     H_    0.642366 0.599891 0.318808 0.212510
O153  O     O_3   0.759598 0.685687 0.629143 -0.493247
C117  C     C_3   0.799372 0.710404 0.573254 -0.098486
H45   H     H_    0.855436 0.720448 0.591403 0.174553
H46   H     H_    0.770972 0.745389 0.553363 0.118602
H47   H     H_    0.804406 0.683708 0.526084 0.225746
O154  O     O_3   0.280440 0.339097 0.331034 -0.555661
C118  C     C_3   0.325685 0.371989 0.290026 -0.027617
H48   H     H_    0.295114 0.390185 0.244336 0.223045
H49   H     H_    0.374360 0.351709 0.267890 0.169383
H50   H     H_    0.345375 0.403056 0.326620 0.170336
O155  O     O_3   0.224160 0.709251 0.389086 -0.509372
C119  C     C_3   0.188275 0.746096 0.433092 -0.116902
H51   H     H_    0.130849 0.751568 0.415245 0.152041
H52   H     H_    0.216706 0.783751 0.433297 0.125963
H53   H     H_    0.187334 0.731949 0.490411 0.231333
O156  O     O_3   0.767745 0.303158 0.619450 -0.568562
C120  C     C_3   0.742714 0.354011 0.628833 -0.221112
H54   H     H_    0.773610 0.374225 0.672749 0.192193
H55   H     H_    0.683299 0.355306 0.640808 0.157490
H56   H     H_    0.751572 0.375256 0.576997 0.188633
O157  O     O_3   0.262263 0.812869 0.872594 -0.505990
C121  C     C_3   0.301243 0.786513 0.927879 -0.057365
H57   H     H_    0.349797 0.765498 0.906637 0.094544
H58   H     H_    0.265036 0.759608 0.957503 0.162615
H59   H     H_    0.321473 0.815030 0.968153 0.237993
O158  O     O_3   0.781969 0.161765 0.168941 -0.585557
C122  C     C_3   0.828627 0.128767 0.208660 -0.009603
H60   H     H_    0.874462 0.149560 0.235447 0.170523
H61   H     H_    0.852679 0.100553 0.169978 0.163081
H62   H     H_    0.797797 0.107004 0.250518 0.236409
O159  O     O_3   0.758700 0.829289 0.151536 -0.491145
C123  C     C_3   0.706800 0.816730 0.097011 -0.063836
H63   H     H_    0.722150 0.780822 0.067702 0.115668
H64   H     H_    0.705170 0.848017 0.055911 0.235591
H65   H     H_    0.650903 0.813239 0.120319 0.143260
O160  O     O_3   0.107607 0.281797 0.716599 -0.501139
C124  C     C_3   0.105519 0.335293 0.729016 -0.127412
H66   H     H_    0.151294 0.355816 0.701689 0.128861
H67   H     H_    0.105740 0.343694 0.788642 0.068678
H68   H     H_    0.054288 0.350888 0.705534 0.260314
O161  O     O_3   0.225764 0.163710 0.164597 -0.527751
C125  C     C_3   0.272165 0.168451 0.103422 -0.099723
H69   H     H_    0.330375 0.173172 0.119739 0.172521
H70   H     H_    0.254792 0.201193 0.068953 0.171194
H71   H     H_    0.268567 0.133001 0.069997 0.241630
O162  O     O_3   0.745508 0.821093 0.866040 -0.581159
C126  C     C_3   0.795133 0.862070 0.856791 -0.115752
H72   H     H_    0.765423 0.898712 0.865050 0.227214
H73   H     H_    0.821918 0.863836 0.801910 0.116204
H74   H     H_    0.837975 0.859727 0.899715 0.188684
O163  O     O_3   0.728868 0.197057 0.882213 -0.572103
C127  C     C_3   0.694282 0.228749 0.934724 -0.090248
H75   H     H_    0.654382 0.256466 0.910795 0.169598
H76   H     H_    0.735533 0.249950 0.967237 0.161819
H77   H     H_    0.663829 0.203926 0.973311 0.216557
O164  O     O_3   0.272556 0.796331 0.114233 -0.609874
C128  C     C_3   0.251945 0.848367 0.119899 -0.097911
H78   H     H_    0.280281 0.868303 0.165845 0.188831
H79   H     H_    0.191878 0.852272 0.126206 0.169035
H80   H     H_    0.267975 0.868067 0.068650 0.247712
O165  O     O_3   0.420975 0.945542 0.395783 -0.586593
C129  C     C_3   0.345586 0.950182 0.409888 -0.085637
H81   H     H_    0.325928 0.989944 0.399924 0.220388
H82   H     H_    0.331833 0.938017 0.466711 0.147968
H83   H     H_    0.315791 0.924505 0.371673 0.180211
O166  O     O_3   0.572091 0.053504 0.612138 -0.527970
C130  C     C_3   0.646252 0.064477 0.597716 -0.059073
H84   H     H_    0.666713 0.051147 0.543254 0.089321
H85   H     H_    0.680415 0.046957 0.641259 0.188258
H86   H     H_    0.654520 0.106552 0.601196 0.207930
O167  O     O_3   0.581036 0.947041 0.606786 -0.506461
C131  C     C_3   0.653312 0.937356 0.582970 -0.119879
H87   H     H_    0.664795 0.947557 0.524655 0.124668
H88   H     H_    0.665266 0.895885 0.589637 0.196325
H89   H     H_    0.691993 0.958471 0.618615 0.158796
O168  O     O_3   0.435068 0.051995 0.384931 -0.579216
C132  C     C_3   0.483748 0.046606 0.325373 -0.040220
H90   H     H_    0.496309 0.005776 0.312553 0.193841
H91   H     H_    0.535154 0.067898 0.336092 0.161087
H92   H     H_    0.458067 0.062870 0.275548 0.253388
O169  O     O_3   0.866274 0.448439 0.978068 -0.514602
C133  C     C_3   0.852745 0.434464 0.904332 -0.117682
H93   H     H_    0.891801 0.404863 0.885040 0.172345
H94   H     H_    0.855231 0.467808 0.866582 0.126490
H95   H     H_    0.797137 0.417964 0.900488 0.223447
O170  O     O_3   0.132746 0.550992 0.997606 -0.517167
C134  C     C_3   0.163020 0.564123 0.928993 -0.140143
H96   H     H_    0.121970 0.568222 0.884088 0.149303
H97   H     H_    0.205186 0.535544 0.913444 0.177755
H98   H     H_    0.190994 0.601626 0.934626 0.185349
O171  O     O_3   0.132510 0.447876 0.974295 -0.516462
C135  C     C_3   0.142312 0.434029 0.899945 -0.188178
H99   H     H_    0.140328 0.467865 0.863011 0.124490
H100  H     H_    0.100688 0.405959 0.881503 0.124798
H101  H     H_    0.196690 0.415729 0.893821 0.202528
O172  O     O_3   0.866811 0.551960 0.997092 -0.521809
C136  C     C_3   0.834936 0.563398 0.928340 -0.077656
H102  H     H_    0.873901 0.562886 0.881390 0.148964
H103  H     H_    0.810898 0.602470 0.931012 0.194069
H104  H     H_    0.789472 0.536418 0.917425 0.189367

loop_
_geom_bond_atom_site_label_1
_geom_bond_atom_site_label_2
_geom_bond_distance
_ccdc_geom_bond_type
C104  C109  1.407001 A    
Zn6   O16   1.933349 S    
C130  H84   1.116924 S    
C116  H42   1.108307 S    
Zn7   O13   1.935558 S    
C136  H102  1.116011 S    
S23   O119  1.502848 D    
S8    O76   1.680853 S    
Zn5   O51   1.945901 S    
C122  H62   1.108515 S    
O34   C11   1.275997 A    
C42   C50   1.413223 A    
C46   C47   1.383208 A    
C132  H90   1.112824 S    
S21   O115  1.681142 S    
C5    C92   1.446795 S    
C77   O157  1.382028 S    
C6    C91   1.451853 S    
C106  O170  1.385972 S    
O115  H21   0.990110 S    
C24   C51   1.462237 S    
C124  H67   1.109034 S    
C67   S31   1.782734 S    
S25   O127  1.680389 S    
C38   C39   1.429487 A    
S19   O107  1.502635 D    
Zn5   O20   1.931643 S    
C26   C43   1.410960 A    
O91   H13   0.990637 S    
O49   C23   1.278269 A    
O109  H19   0.989706 S    
O23   C6    1.276236 A    
C68   S32   1.779971 S    
C42   C43   1.391223 A    
C120  H56   1.109018 S    
C108  C111  1.415752 A    
O45   C21   1.274151 A    
O139  H29   0.992026 S    
C67   C100  1.408479 A    
C103  C110  1.410497 A    
S30   O140  1.501955 D    
C76   C92   1.406143 A    
C29   C37   1.417754 A    
C70   C86   1.404764 A    
Zn3   O45   1.947569 S    
O55   H1    0.990621 S    
O64   H4    0.990048 S    
C74   C90   1.408216 A    
O11   C7    1.280929 A    
C130  H86   1.109297 S    
C55   C88   1.408375 A    
S1    O54   1.502207 D    
C15   C98   1.448419 S    
O35   C10   1.272362 A    
C53   C86   1.407169 A    
S3    O59   1.503208 D    
C22   C49   1.477798 S    
Zn16  O33   1.934767 S    
C123  H64   1.109078 S    
C25   C33   1.415936 A    
C113  H33   1.114234 S    
S32   O146  1.503144 D    
C62   S26   1.781769 S    
O133  H27   0.990474 S    
S25   O125  1.503405 D    
C63   S27   1.774596 S    
S28   O134  1.501560 D    
Zn12  O24   1.930538 S    
C134  H97   1.108721 S    
O82   H10   0.990386 S    
O16   C12   1.281629 A    
C78   C94   1.408001 A    
O40   C18   1.277242 A    
Zn16  O4    1.947598 S    
C115  H39   1.108905 S    
S30   O142  1.681955 S    
S26   O128  1.501493 D    
C66   C97   1.410442 A    
C69   C85   1.406439 A    
C57   C81   1.397991 A    
C72   C88   1.410171 A    
C73   C89   1.406693 A    
S24   O122  1.502527 D    
C116  H44   1.108941 S    
Zn7   O3    1.944239 S    
C28   C36   1.429277 A    
O157  C121  1.412850 S    
C136  H104  1.109232 S    
C122  H60   1.112618 S    
C62   C70   1.401798 A    
C31   C39   1.428427 A    
O168  C132  1.413453 S    
C20   C111  1.470398 S    
C132  H92   1.107154 S    
C60   S24   1.784885 S    
S22   O118  1.680807 S    
C35   S1    1.783945 S    
Zn3   O10   1.930808 S    
S4    O62   1.502331 D    
C33   S3    1.787795 S    
C113  H35   1.108539 S    
O42   C20   1.280215 A    
O33   C12   1.273594 A    
C39   S5    1.788869 S    
C38   S8    1.782771 S    
C28   C41   1.414498 A    
C30   C38   1.414524 A    
C119  H53   1.109451 S    
Zn10  O22   1.930471 S    
O164  C128  1.410669 S    
C64   S28   1.785637 S    
C64   C95   1.412333 A    
C65   C98   1.409155 A    
S22   O117  1.502442 D    
C77   C93   1.408179 A    
C63   C96   1.408821 A    
Zn10  O2    1.952696 S    
C83   C99   1.406946 A    
O52   C24   1.274273 A    
Zn3   O1    1.944239 S    
C118  H50   1.109192 S    
S6    O69   1.502562 D    
C54   C78   1.404017 A    
O43   C19   1.280405 A    
S3    O61   1.680925 S    
C25   C44   1.403713 A    
C48   C52   1.433284 A    
C61   C69   1.402450 A    
C26   C34   1.418372 A    
S29   O137  1.501782 D    
O37   C17   1.276950 A    
S2    O56   1.502974 D    
C32   S16   1.781888 S    
Zn13  O29   1.930469 S    
S16   O100  1.681975 S    
O165  C129  1.410444 S    
O151  C115  1.415287 S    
C31   C46   1.415299 A    
Zn4   O9    1.930806 S    
O44   C20   1.282775 A    
Zn6   O19   1.931645 S    
C130  H85   1.108647 S    
O94   H14   0.990283 S    
S28   O136  1.683164 S    
C127  H75   1.115374 S    
S23   O120  1.503396 D    
C108  O172  1.386716 S    
S17   O101  1.502731 D    
C126  H74   1.109341 S    
Zn13  O41   1.945926 S    
C117  H45   1.110582 S    
C82   C98   1.407669 A    
C115  H41   1.109187 S    
S12   O86   1.499303 D    
S13   O89   1.501792 D    
Zn16  O44   1.948486 S    
C106  C107  1.394203 A    
C59   C83   1.403580 A    
C60   C84   1.402772 A    
S24   O124  1.682573 S    
O103  H17   0.989691 S    
S16   O99   1.502575 D    
S11   O85   1.681950 S    
C9    C96   1.456727 S    
C67   C75   1.404824 A    
C10   C95   1.455903 S    
S5    O66   1.500399 D    
S32   O148  1.682614 S    
C128  H79   1.111208 S    
C27   C35   1.417772 A    
O118  H22   0.990103 S    
C75   O155  1.384531 S    
C76   O156  1.384302 S    
C8    C89   1.451713 S    
C32   C40   1.415651 A    
C1    C88   1.452335 S    
C2    C87   1.451896 S    
C80   C96   1.407835 A    
C81   C97   1.405968 A    
O38   C18   1.281991 A    
O145  H31   0.989990 S    
S15   O97   1.683858 S    
O50   C24   1.276291 A    
C69   O149  1.382985 S    
C3    C86   1.452022 S    
O41   C19   1.281471 A    
O5    C1    1.277701 A    
C84   O164  1.382420 S    
S9    O77   1.500276 D    
Zn4   O6    1.935560 S    
O167  C131  1.416410 S    
C71   C87   1.404555 A    
S29   O139  1.679000 S    
O47   C21   1.274256 A    
O70   H6    0.990563 S    
S18   O105  1.502939 D    
C57   S21   1.783195 S    
C47   C51   1.408275 A    
C58   S22   1.783815 S    
C129  H81   1.111514 S    
C54   C85   1.411734 A    
C54   S18   1.782419 S    
C73   O153  1.382753 S    
C125  H69   1.113910 S    
C58   C89   1.413360 A    
C55   S19   1.785161 S    
S14   O92   1.499785 D    
S4    O64   1.680625 S    
C127  H77   1.109292 S    
S20   O111  1.502709 D    
C135  H99   1.111301 S    
C122  H61   1.109242 S    
S18   O106  1.683554 S    
S17   O103  1.679158 S    
C107  C112  1.414049 A    
C68   C99   1.410272 A    
S21   O114  1.502371 D    
Zn1   O1    1.947561 S    
S12   O88   1.684372 S    
C43   C49   1.431717 A    
S13   O91   1.683031 S    
S27   O132  1.504223 D    
C37   S7    1.782709 S    
Zn4   O2    1.944238 S    
C79   C95   1.403973 A    
C124  H66   1.114968 S    
C114  H38   1.108902 S    
C58   C82   1.401863 A    
C30   C47   1.396435 A    
S24   O123  1.502691 D    
S5    O67   1.681087 S    
C119  H52   1.112497 S    
O9    C5    1.275254 A    
C126  H73   1.116762 S    
C34   C35   1.425803 A    
S31   O145  1.682359 S    
C120  H55   1.111190 S    
C63   C71   1.400826 A    
Zn15  O34   1.934765 S    
O171  C135  1.414378 S    
S7    O73   1.680746 S    
O13   C9    1.278707 A    
O67   H5    0.990457 S    
C129  H83   1.109444 S    
S10   O80   1.500056 D    
C56   C87   1.411531 A    
C74   O154  1.384537 S    
S30   O141  1.503159 D    
C102  O166  1.385477 S    
C133  H93   1.108272 S    
C103  O167  1.383892 S    
C59   C92   1.411707 A    
O6    C2    1.278187 A    
C60   C91   1.412030 A    
S14   O94   1.682711 S    
C101  O165  1.385117 S    
S19   O109  1.677631 S    
C121  H57   1.113344 S    
O88   H12   0.989850 S    
O48   C22   1.279573 A    
O79   H9    0.990645 S    
C41   C49   1.431640 A    
S15   O95   1.498464 D    
Zn14  O30   1.930471 S    
S1    O53   1.503028 D    
Zn15  O3    1.947600 S    
C56   C80   1.403973 A    
C61   S25   1.785833 S    
C27   S11   1.783259 S    
C30   S14   1.774674 S    
S9    O79   1.680900 S    
O121  H23   0.990501 S    
C113  H34   1.111551 S    
O30   C15   1.277868 A    
C72   O152  1.384883 S    
O166  C130  1.414685 S    
O155  C119  1.412369 S    
Zn4   O46   1.947569 S    
O24   C5    1.275561 A    
C70   O150  1.385528 S    
Zn11  O26   1.934765 S    
S28   O135  1.502949 D    
O142  H30   0.990680 S    
O154  C118  1.410856 S    
C16   C97   1.451734 S    
C19   C112  1.470876 S    
C45   C51   1.412221 A    
C115  H40   1.115823 S    
Zn1   O12   1.931643 S    
S26   O129  1.502429 D    
O112  H20   0.990241 S    
Zn2   O11   1.931645 S    
C14   C99   1.453240 S    
C131  H88   1.109250 S    
O61   H3    0.990552 S    
C116  H43   1.114080 S    
O106  H18   0.989724 S    
C136  H103  1.109572 S    
C135  H101  1.109251 S    
C84   C100  1.403969 A    
O161  C125  1.409887 S    
C132  H91   1.111460 S    
Zn14  O42   1.945926 S    
C78   O158  1.385212 S    
S26   O130  1.680736 S    
Zn13  O3    1.952695 S    
C102  C109  1.408994 A    
C134  H96   1.116090 S    
Zn14  O4    1.952696 S    
O160  C124  1.412782 S    
S32   O147  1.502345 D    
C124  H68   1.107681 S    
C114  H36   1.108872 S    
O19   C15   1.278324 A    
C105  C112  1.414704 A    
O130  H26   0.990180 S    
C18   C109  1.464020 S    
O39   C17   1.281021 A    
S31   O143  1.502921 D    
S3    O60   1.502694 D    
O97   H15   0.989750 S    
O7    C3    1.276631 A    
Zn7   O49   1.947569 S    
Zn13  O36   1.932720 S    
O148  H32   0.990529 S    
S20   O112  1.681879 S    
O51   C23   1.280022 A    
O28   C1    1.277371 A    
S11   O84   1.502642 D    
Zn8   O4    1.944238 S    
C29   C48   1.411643 A    
C105  O169  1.384779 S    
S25   O126  1.502621 D    
C7    C90   1.452340 S    
C31   S15   1.780529 S    
O21   C8    1.273934 A    
C33   C36   1.431741 A    
Zn7   O18   1.930808 S    
Zn9   O37   1.945926 S    
O85   H11   0.990377 S    
C11   C94   1.454896 S    
S2    O57   1.500662 D    
O12   C8    1.284696 A    
O76   H8    0.990569 S    
Zn11  O39   1.948486 S    
C65   S29   1.782262 S    
S1    O55   1.681378 S    
O169  C133  1.414396 S    
Zn11  O1    1.947600 S    
C4    C85   1.453200 S    
C57   C90   1.410888 A    
Zn15  O43   1.948486 S    
S8    O75   1.501244 D    
C123  H63   1.112803 S    
C27   C42   1.409416 A    
C82   O162  1.387314 S    
C75   C91   1.408354 A    
Zn5   O3    1.947561 S    
C83   O163  1.385448 S    
C64   C72   1.407087 A    
Zn6   O4    1.947562 S    
C119  H51   1.109778 S    
C65   C73   1.401188 A    
C36   S2    1.788799 S    
C121  H59   1.108242 S    
Zn8   O14   1.935560 S    
S2    O58   1.681030 S    
C127  H76   1.108120 S    
O158  C122  1.411226 S    
C134  H98   1.109603 S    
C68   C76   1.403620 A    
C117  H46   1.109952 S    
C107  O171  1.384298 S    
O26   C3    1.276395 A    
C13   C100  1.450591 S    
S12   O87   1.502531 D    
O58   H2    0.990464 S    
C26   S10   1.781151 S    
C29   S13   1.782952 S    
O136  H28   0.989925 S    
C102  C103  1.405088 A    
C71   O151  1.384566 S    
O163  C127  1.413505 S    
C66   S30   1.782710 S    
O162  C126  1.415217 S    
C46   C52   1.428847 A    
C117  H47   1.109429 S    
S27   O131  1.503058 D    
Zn8   O50   1.947569 S    
O170  C134  1.412892 S    
Zn2   O2    1.947562 S    
S5    O65   1.502937 D    
C118  H48   1.109737 S    
Zn15  O31   1.930539 S    
O124  H24   0.989991 S    
Zn16  O32   1.930538 S    
C128  H78   1.113706 S    
O172  C136  1.414328 S    
O159  C123  1.413408 S    
O149  C113  1.412848 S    
O32   C13   1.275432 A    
Zn12  O25   1.934767 S    
S22   O116  1.501961 D    
S15   O96   1.502461 D    
C66   C74   1.404810 A    
O31   C14   1.276672 A    
C53   S17   1.779173 S    
Zn14  O35   1.932719 S    
S6    O68   1.503150 D    
C81   O161  1.381067 S    
C126  H72   1.108275 S    
C45   C48   1.392951 A    
Zn6   O52   1.945901 S    
C129  H82   1.113957 S    
C123  H65   1.113698 S    
Zn1   O47   1.945901 S    
Zn2   O48   1.945901 S    
C125  H70   1.106714 S    
O22   C7    1.277288 A    
C131  H89   1.107786 S    
O8    C4    1.279410 A    
C37   C40   1.425252 A    
S14   O93   1.502285 D    
S23   O121  1.680030 S    
S8    O74   1.502944 D    
C135  H100  1.109735 S    
C41   C44   1.386235 A    
S17   O102  1.503017 D    
O73   H7    0.990558 S    
C17   C110  1.461982 S    
C59   S23   1.785815 S    
S29   O138  1.502613 D    
S21   O113  1.503938 D    
S13   O90   1.503060 D    
S7    O71   1.502871 D    
C114  H37   1.116805 S    
C125  H71   1.108218 S    
S16   O98   1.499095 D    
C80   O160  1.380819 S    
Zn9   O21   1.930469 S    
C28   S12   1.782732 S    
S20   O110  1.502584 D    
Zn11  O23   1.930539 S    
S31   O144  1.502843 D    
C120  H54   1.112762 S    
Zn12  O40   1.948486 S    
O25   C4    1.274482 A    
C62   C93   1.412932 A    
Zn9   O1    1.952695 S    
O127  H25   0.990755 S    
S7    O72   1.502793 D    
C55   C79   1.397586 A    
Zn1   O7    1.933350 S    
O27   C2    1.276409 A    
S10   O81   1.503242 D    
Zn2   O8    1.933349 S    
C101  C104  1.405585 A    
C53   C77   1.403090 A    
Zn3   O5    1.935558 S    
O29   C16   1.278142 A    
C133  H94   1.110932 S    
O100  H16   0.990249 S    
C101  C110  1.403015 A    
C128  H80   1.107876 S    
O156  C120  1.411747 S    
C105  C108  1.395853 A    
S19   O108  1.502214 D    
C131  H87   1.117380 S    
Zn9   O28   1.932720 S    
C121  H58   1.108707 S    
C40   S6    1.782442 S    
Zn10  O27   1.932719 S    
C32   C45   1.408325 A    
C34   S4    1.785021 S    
O15   C11   1.279161 A    
S10   O82   1.682589 S    
O18   C14   1.277014 A    
O153  C117  1.411810 S    
C104  O168  1.382106 S    
C133  H95   1.109146 S    
S9    O78   1.503040 D    
C44   C50   1.410753 A    
C56   S20   1.787732 S    
S6    O70   1.681469 S    
O150  C114  1.414521 S    
O20   C16   1.279159 A    
O46   C22   1.280576 A    
O152  C116  1.413506 S    
O10   C6    1.276798 A    
C61   C94   1.413230 A    
Zn8   O17   1.930806 S    
C118  H49   1.111730 S    
Zn10  O38   1.945926 S    
C12   C93   1.453286 S    
S4    O63   1.502668 D    
S18   O104  1.501644 D    
C79   O159  1.377368 S    
O14   C10   1.284323 A    
C21   C50   1.458033 S    
S27   O133  1.683443 S    
Zn12  O2    1.947598 S    
S11   O83   1.499010 D    
C23   C52   1.474511 S    
C25   S9    1.781227 S    
O17   C13   1.276178 A    
C106  C111  1.413974 A    
O36   C9    1.278028 A    
Zn5   O15   1.933350 S    
