data_mof_unit_24402.cif
_audit_creation_date              2012-10-26T21:24:47-0400
_audit_creation_method            fapswitch 2.2
_symmetry_space_group_name_H-M    P1
_symmetry_Int_Tables_number       1
_space_group_crystal_system       triclinic
_cell_length_a                    9.620126
_cell_length_b                    10.814154
_cell_length_c                    15.554715
_cell_angle_alpha                 87.606412
_cell_angle_beta                  73.601507
_cell_angle_gamma                 88.920432
_cell_volume                      1550.98882585

loop_
_atom_site_label
_atom_site_type_symbol
_atom_type_description
_atom_site_fract_x
_atom_site_fract_y
_atom_site_fract_z
_atom_type_partial_charge
C1    C     C_R   0.001158 0.262643 0.499897 0.546314
C2    C     C_R   0.213069 0.491512 0.039475 0.051363
C3    C     C_R   0.314925 0.516559 0.086425 0.011866
C4    C     C_R   0.917721 0.501896 0.672074 0.580254
C5    C     C_R   0.066370 0.472475 0.087169 0.259470
C6    C     C_R   0.023588 0.478879 0.181343 -0.173523
C7    C     C_R   0.273263 0.500468 0.180153 0.444002
C8    C     C_R   0.047510 0.058238 0.563699 -0.053087
C9    C     C_R   0.001240 0.129194 0.499839 -0.032152
C10   C     C_R   0.935538 0.069725 0.443143 -0.067454
C11   C     C_R   0.934154 0.940624 0.443049 0.369437
C12   C     C_R   0.661755 0.534524 0.902355 -0.049298
C13   C     C_R   0.992554 0.870310 0.502816 0.009224
C14   C     C_R   0.038960 0.930655 0.567158 -0.031368
C15   C     C_3   0.173535 0.913229 0.596027 0.282815
C16   C     C_R   0.998660 0.737212 0.500093 0.608225
C17   C     C_3   0.188801 0.053308 0.586972 0.171576
C18   C     C_R   0.582143 0.604452 0.475660 0.045618
C19   C     C_R   0.557851 0.404142 0.538653 0.405036
C20   C     C_R   0.410140 0.405099 0.539736 0.409417
C21   C     C_R   0.435271 0.605027 0.476634 0.102482
C22   C     C_3   0.467424 0.681364 0.391522 0.748074
C23   C     C_R   0.748451 0.602227 0.943861 -0.073947
C24   C     C_3   0.625988 0.680669 0.390435 0.178901
C25   C     C_R   0.082451 0.496533 0.327732 0.587811
C26   C     C_R   0.870531 0.519966 0.769670 -0.012425
C27   C     C_R   0.126825 0.492382 0.228531 -0.021719
C28   C     C_R   0.893490 0.627917 0.898620 0.469493
C29   C     C_R   0.955133 0.587579 0.812310 0.234791
C30   C     C_R   0.729854 0.482885 0.818231 0.191128
C31   C     C_R   0.510614 0.522585 0.946369 -0.025675
C32   C     C_R   0.458505 0.549455 0.038233 0.055138
C33   C     C_R   0.546685 0.618874 0.076871 0.441312
C34   C     C_R   0.688737 0.645603 0.029807 -0.052298
C35   C     C_R   0.407792 0.496086 0.900383 -0.122649
C36   C     C_R   0.260935 0.484210 0.945941 -0.037018
Cu1   Cu    Cu3+1 0.140670 0.499980 0.500000 1.120307
Cu2   Cu    Cu3+1 0.859330 0.500020 0.500000 1.069288
F1    F     F_    0.888328 0.885276 0.379482 -0.621541
F2    F     F_    0.141927 0.870304 0.684421 -0.559944
F3    F     F_    0.440739 0.620076 0.322534 -0.445748
F4    F     F_    0.376536 0.475087 0.222351 -0.512980
F5    F     F_    0.404951 0.797924 0.401679 -0.640045
F6    F     F_    0.976115 0.694016 0.937944 -0.558370
F7    F     F_    0.490646 0.676268 0.155039 -0.516335
H1    H     H_    0.751927 0.701154 0.061199 0.209346
H2    H     H_    0.302296 0.052006 0.459837 0.354196
H3    H     H_    0.664719 0.338962 0.616913 0.377377
H4    H     H_    0.229544 0.345210 0.616154 0.335907
H5    H     H_    0.738153 0.672950 0.266930 0.363572
H6    H     H_    0.148896 0.541046 0.749203 0.313383
H7    H     H_    0.611049 0.336741 0.835789 0.344514
H8    H     H_    0.893010 0.123000 0.395526 0.174982
H9    H     H_    0.261054 0.860377 0.549815 0.193743
H10   H     H_    0.183995 0.098237 0.650709 0.218268
H11   H     H_    0.668127 0.772768 0.398850 0.194489
H12   H     H_    0.910541 0.467423 0.217777 0.188648
H13   H     H_    0.185713 0.466159 0.907743 0.190762
H14   H     H_    0.437959 0.491330 0.828203 0.181846
H15   H     H_    0.870328 0.435856 0.084431 0.340483
N1    N     N_R   0.648210 0.500930 0.499430 -0.260363
N2    N     N_R   0.352300 0.500890 0.499430 -0.277792
O1    O     O_R   0.118810 0.319640 0.500000 -0.476716
O2    O     O_3   0.308024 0.091560 0.515258 -0.604007
O3    O     O_3   0.604343 0.305392 0.581878 -0.606088
O4    O     O_3   0.326148 0.310805 0.587786 -0.609607
O5    O     O_3   0.714237 0.614371 0.319742 -0.631841
O6    O     O_3   0.097030 0.618639 0.771065 -0.568634
O7    O     O_3   0.667703 0.389112 0.784491 -0.702074
O8    O     O_R   0.881230 0.319680 0.499990 -0.499702
O9    O     O_R   0.055580 0.499970 0.629840 -0.556597
O10   O     O_R   0.818000 0.500010 0.629830 -0.489587
O11   O     O_R   0.118770 0.680320 0.500010 -0.481045
O12   O     O_R   0.881190 0.680360 0.500000 -0.477256
O13   O     O_R   0.182000 0.499990 0.370170 -0.373469
O14   O     O_R   0.944420 0.500030 0.370160 -0.472589
O15   O     O_3   0.967345 0.447319 0.041057 -0.679916

loop_
_geom_bond_atom_site_label_1
_geom_bond_atom_site_label_2
_ccdc_geom_bond_type
Cu2   O8    S    
C18   C21   A    
C33   F7    S    
C35   C36   A    
Cu1   N2    S    
Cu2   O14   S    
C12   C23   A    
C16   O12   A    
C20   O4    S    
C28   C29   A    
C36   H13   S    
C17   O2    S    
C5    C6    A    
C22   F3    S    
C7    C27   A    
C35   H14   S    
C7    F4    S    
C10   H8    S    
H7    O7    S    
C24   O5    S    
C19   C20   A    
C8    C9    A    
C34   H1    S    
H3    O3    S    
C9    C10   A    
C17   H10   S    
C6    C27   A    
Cu2   N1    S    
Cu1   O13   S    
C13   C14   A    
C6    H12   S    
C1    O1    A    
Cu1   O1    S    
Cu2   O10   S    
H15   O15   S    
H4    O4    S    
C16   O11   A    
C15   H9    S    
C1    C9    S    
C18   C24   S    
H2    O2    S    
C28   F6    S    
H5    O5    S    
C25   O13   A    
Cu1   Cu2   S    
C29   O6    S    
C31   C32   A    
C23   C34   A    
C33   C34   A    
C23   C28   A    
C11   F1    S    
C21   N2    A    
C26   C30   A    
Cu1   O9    S    
C12   C31   A    
C22   C24   S    
C2    C5    A    
C24   H11   S    
C5    O15   S    
C4    O10   A    
C30   O7    S    
Cu2   O12   S    
C2    C36   A    
C15   C17   S    
Cu1   O11   S    
C8    C14   A    
C12   C30   A    
C8    C17   S    
C4    C26   S    
C18   N1    A    
C25   C27   S    
C3    C7    A    
C1    O8    A    
C25   O14   A    
C32   C33   A    
C2    C3    A    
C11   C13   A    
C19   N1    A    
C19   O3    S    
C31   C35   A    
H6    O6    S    
C4    O9    A    
C20   N2    A    
C3    C32   A    
C15   F2    S    
C10   C11   A    
C26   C29   A    
C13   C16   S    
C14   C15   S    
C21   C22   S    
C22   F5    S    
