data_mof_unit_46795.cif
_audit_creation_date              2013-03-05T15:42:11-0500
_audit_creation_method            fapswitch 2.2
_symmetry_space_group_name_H-M    P1
_symmetry_Int_Tables_number       1
_space_group_crystal_system       triclinic
_cell_length_a                    7.87506
_cell_length_b                    8.555721
_cell_length_c                    16.377787
_cell_angle_alpha                 91.746869
_cell_angle_beta                  81.679864
_cell_angle_gamma                 93.126825
_cell_volume                      1089.95841555

loop_
_atom_site_label
_atom_site_type_symbol
_atom_site_description
_atom_site_fract_x
_atom_site_fract_y
_atom_site_fract_z
_atom_type_partial_charge
O1    O     O_R   0.388470 0.738640 0.505270 -0.616735
O2    O     O_R   0.611530 0.261360 0.494730 -0.629770
O3    O     O_R   0.679650 0.711510 0.491500 -0.584026
O4    O     O_R   0.320350 0.288490 0.508500 -0.598229
C1    C     C_R   0.545313 0.794124 0.498158 0.954253
C2    C     C_R   0.454648 0.205892 0.502187 0.929843
O5    O     O_R   0.337210 0.515200 0.623500 -0.595903
O6    O     O_R   0.662790 0.484800 0.376500 -0.587899
O7    O     O_R   0.628380 0.488060 0.609730 -0.585506
O8    O     O_R   0.371620 0.511940 0.390270 -0.581298
C3    C     C_R   0.477459 0.491702 0.654303 0.870410
C4    C     C_R   0.520235 0.490047 0.345224 0.867176
Zn1   Zn    Zn3+2 0.305580 0.518120 0.509190 1.075871
Zn2   Zn    Zn3+2 0.694420 0.481880 0.490810 1.074528
C5    C     C_R   0.460905 0.429715 0.737156 -0.076143
C6    C     C_R   0.522728 0.437975 0.259176 -0.091300
C7    C     C_R   0.577963 0.320392 0.753366 -0.279054
C8    C     C_R   0.386017 0.465790 0.216958 -0.259133
C9    C     C_R   0.557604 0.244482 0.829050 0.500019
C10   C     C_R   0.372954 0.390073 0.141044 0.552637
C11   C     C_R   0.412997 0.276031 0.887146 0.071478
C12   C     C_R   0.506910 0.298502 0.103052 0.053390
C13   C     C_R   0.292116 0.379769 0.869378 -0.245266
C14   C     C_R   0.639442 0.267230 0.146533 -0.282004
C15   C     C_R   0.316264 0.456984 0.794919 -0.189708
C16   C     C_R   0.647443 0.335246 0.224152 -0.184175
C17   C     C_2   0.397448 0.223463 0.972032 -0.116918
C18   C     C_2   0.528426 0.256453 0.014512 -0.160145
H1    H     H_    0.681393 0.289605 0.705747 0.186480
H2    H     H_    0.285903 0.540608 0.244005 0.212502
H3    H     H_    0.747995 0.304036 0.257989 0.183607
H4    H     H_    0.221640 0.536744 0.782197 0.196554
H5    H     H_    0.656122 0.282763 0.981399 0.162798
H6    H     H_    0.269025 0.196712 0.002909 0.170591
H7    H     H_    0.181754 0.405090 0.914587 0.175647
H8    H     H_    0.733646 0.186660 0.119941 0.154398
C19   C     C_2   0.569144 0.957623 0.497354 -0.361669
C20   C     C_2   0.430755 0.042471 0.503630 -0.360764
H9    H     H_    0.700262 0.007608 0.491401 0.201856
H10   H     H_    0.299631 0.992508 0.509648 0.202678
N1    N     N_2   0.953500 0.457650 0.478520 0.048088
N2    N     N_2   0.046500 0.542350 0.521480 0.049709
O9    O     O_3   0.223447 0.393709 0.107135 -0.671726
C21   C     C_3   0.090826 0.300756 0.153714 0.031428
H11   H     H_    0.989396 0.284131 0.114213 0.168698
H12   H     H_    0.037238 0.366841 0.209847 0.221480
C22   C     C_3   0.140927 0.135989 0.177124 -0.399987
H13   H     H_    0.203636 0.072251 0.121950 0.218053
H14   H     H_    0.232758 0.148103 0.222732 0.252615
C23   C     C_3   0.986291 0.034960 0.215827 -0.851680
H15   H     H_    0.919010 0.094237 0.271482 0.283784
H16   H     H_    0.030673 0.922349 0.234820 0.278545
H17   H     H_    0.896244 0.008184 0.170580 0.245472
O10   O     O_3   0.663783 0.127260 0.844937 -0.646788
C24   C     C_3   0.841044 0.167175 0.821414 0.015004
H18   H     H_    0.907650 0.147582 0.875309 0.159524
H19   H     H_    0.870761 0.292581 0.805668 0.162841
C25   C     C_3   0.914662 0.058734 0.750346 -0.268929
H20   H     H_    0.897054 0.935404 0.770699 0.253608
H21   H     H_    0.844589 0.069223 0.696771 0.230837
C26   C     C_3   0.105622 0.097108 0.722969 -0.882656
H22   H     H_    0.126021 0.218202 0.699703 0.289977
H23   H     H_    0.154932 0.014743 0.672463 0.275683
H24   H     H_    0.179181 0.085283 0.775225 0.258391
N3    N     N_R   0.032503 0.429203 0.398975 0.295402
O11   O     O_R   0.017717 0.528363 0.342187 -0.446028
O12   O     O_R   0.084431 0.290155 0.377751 -0.433848
N4    N     N_R   0.964009 0.583302 0.599019 0.308258
O13   O     O_R   0.970076 0.492696 0.660731 -0.442772
O14   O     O_R   0.918320 0.726340 0.613762 -0.414054

loop_
_geom_bond_atom_site_label_1
_geom_bond_atom_site_label_2
_geom_bond_distance
_ccdc_geom_bond_type
C26   H24   1.110588 S    
C23   H16   1.110706 S    
O9    C21   1.421621 S    
C2    C20   1.401043 S    
C19   C20   1.332145 D    
C8    H2    1.078999 S    
C1    C19   1.401403 S    
C7    H1    1.080784 S    
N1    N2    1.271501 D    
C13   H7    1.083982 S    
C22   H13   1.108145 S    
N3    O12   1.300022 A    
C21   C22   1.557990 S    
O6    C4    1.303080 A    
O7    Zn2   1.941694 S    
C10   O9    1.374727 S    
C25   C26   1.526524 S    
C24   H19   1.115565 S    
C23   H15   1.109118 S    
C11   C17   1.460436 S    
C16   H3    1.079132 S    
C19   H9    1.088031 S    
C12   C18   1.471271 S    
N2    N4    1.384348 S    
O7    C3    1.303075 A    
C14   C16   1.390210 A    
C14   H8    1.076664 S    
O3    Zn2   1.974006 S    
O8    C4    1.309469 A    
C15   H4    1.083248 S    
Zn2   N1    2.042287 S    
O1    C1    1.289291 A    
C9    O10   1.393947 S    
C6    C8    1.395427 A    
Zn1   N2    2.042287 S    
C20   H10   1.087969 S    
C21   H12   1.106796 S    
C18   H5    1.086719 S    
O5    C3    1.306303 A    
C22   C23   1.525473 S    
C8    C10   1.398825 A    
C11   C13   1.402404 A    
C17   H6    1.079213 S    
C6    C16   1.402335 A    
C26   H22   1.110222 S    
O2    Zn2   1.962343 S    
C12   C14   1.387506 A    
C24   H18   1.111302 S    
C5    C15   1.396613 A    
C23   H17   1.108380 S    
O1    Zn1   1.962344 S    
C25   H21   1.110312 S    
C4    C6    1.462725 S    
C3    C5    1.457636 S    
O4    Zn1   1.974006 S    
C13   C15   1.388531 A    
C21   H11   1.099250 S    
C22   H14   1.111356 S    
N3    O11   1.299455 A    
C24   C25   1.532700 S    
C17   C18   1.338500 D    
C5    C7    1.405399 A    
N4    O14   1.300116 A    
O10   C24   1.419177 S    
N1    N3    1.380625 S    
O5    Zn1   1.925121 S    
O6    Zn2   1.925119 S    
C7    C9    1.401497 A    
C25   H20   1.111685 S    
C9    C11   1.406884 A    
O4    C2    1.293855 A    
C26   H23   1.110388 S    
O2    C2    1.289331 A    
C10   C12   1.408645 A    
N4    O13   1.300200 A    
O3    C1    1.293895 A    
O8    Zn1   1.941693 S    
