data_mof_unit_36293.cif
_audit_creation_date              2012-12-11T14:39:24-0500
_audit_creation_method            fapswitch 2.2
_symmetry_space_group_name_H-M    P1
_symmetry_Int_Tables_number       1
_space_group_crystal_system       triclinic
_cell_length_a                    7.209533
_cell_length_b                    14.157124
_cell_length_c                    16.3622
_cell_angle_alpha                 90.075247
_cell_angle_beta                  97.056868
_cell_angle_gamma                 90.078879
_cell_volume                      1657.37405876

loop_
_atom_site_label
_atom_site_type_symbol
_atom_type_description
_atom_site_fract_x
_atom_site_fract_y
_atom_site_fract_z
_atom_type_partial_charge
O1    O     O_R   0.525340 0.338340 0.164530 -0.519014
O2    O     O_R   0.474660 0.661660 0.835470 -0.519204
O3    O     O_R   0.974660 0.838340 0.835470 -0.533299
O4    O     O_R   0.025340 0.161660 0.164530 -0.533296
O5    O     O_R   0.253520 0.352000 0.336710 -0.538734
O6    O     O_R   0.746480 0.648000 0.663290 -0.538720
O7    O     O_R   0.246480 0.852000 0.663290 -0.538273
O8    O     O_R   0.753520 0.148000 0.336710 -0.538282
O9    O     O_R   0.083330 0.168380 0.337300 -0.532928
O10   O     O_R   0.916670 0.831620 0.662700 -0.532936
O11   O     O_R   0.416670 0.668380 0.662700 -0.534541
O12   O     O_R   0.583330 0.331620 0.337300 -0.534593
C1    C     C_R   0.432199 0.368689 0.363795 0.691392
C2    C     C_R   0.567801 0.631312 0.636203 0.691375
C3    C     C_R   0.067891 0.868727 0.636184 0.694485
C4    C     C_R   0.932109 0.131273 0.363816 0.694464
O13   O     O_R   0.195840 0.349670 0.165140 -0.560552
O14   O     O_R   0.804160 0.650330 0.834860 -0.560355
O15   O     O_R   0.304160 0.849670 0.834860 -0.546297
O16   O     O_R   0.695840 0.150330 0.165140 -0.546087
C5    C     C_R   0.358227 0.371357 0.137937 0.751356
C6    C     C_R   0.641777 0.628642 0.862045 0.751773
C7    C     C_R   0.142282 0.871095 0.862404 0.721971
C8    C     C_R   0.857712 0.128921 0.137583 0.722947
O17   O     O_3   0.387830 0.193120 0.250910 -0.381340
O18   O     O_3   0.612170 0.806880 0.749090 -0.381366
O19   O     O_3   0.112170 0.693120 0.749090 -0.381515
O20   O     O_3   0.887830 0.306880 0.250910 -0.381501
V1    V     V_3+5 0.113010 0.264540 0.250910 1.370464
V2    V     V_3+5 0.886990 0.735460 0.749090 1.370717
V3    V     V_3+5 0.386990 0.764540 0.749090 1.391512
V4    V     V_3+5 0.613010 0.235460 0.250910 1.391701
H1    H     H_    0.161754 0.830156 0.266701 0.116405
H2    H     H_    0.838245 0.169844 0.733298 0.116390
H3    H     H_    0.338104 0.330137 0.733042 0.113025
H4    H     H_    0.661917 0.669860 0.266957 0.112943
C9    C     C_R   0.864326 0.183595 0.528097 -0.144576
C10   C     C_R   0.135675 0.816405 0.471902 -0.144576
C11   C     C_R   0.635356 0.683841 0.472141 -0.144884
C12   C     C_R   0.364647 0.316159 0.527856 -0.144879
C13   C     C_R   0.830995 0.210934 0.606812 -0.117836
C14   C     C_R   0.169005 0.789065 0.393187 -0.117850
C15   C     C_R   0.668806 0.711149 0.393481 -0.114392
C16   C     C_R   0.331203 0.288850 0.606517 -0.114460
C17   C     C_R   0.863608 0.148135 0.672187 -0.133165
C18   C     C_R   0.136391 0.851864 0.327813 -0.133170
C19   C     C_R   0.636455 0.648194 0.328028 -0.137181
C20   C     C_R   0.363560 0.351804 0.671970 -0.137106
C21   C     C_R   0.929942 0.057556 0.659343 -0.138792
C22   C     C_R   0.070057 0.942444 0.340656 -0.138792
C23   C     C_R   0.570259 0.557504 0.340749 -0.142464
C24   C     C_R   0.429755 0.442494 0.659249 -0.142335
C25   C     C_R   0.964158 0.027630 0.579976 0.063837
C26   C     C_R   0.035842 0.972369 0.420023 0.063839
C27   C     C_R   0.535933 0.527640 0.420074 0.065884
C28   C     C_R   0.464072 0.472361 0.579924 0.065816
C29   C     C_R   0.930692 0.091829 0.513042 0.058106
C30   C     C_R   0.069308 0.908170 0.486958 0.058104
C31   C     C_R   0.569134 0.591952 0.487050 0.057377
C32   C     C_R   0.430869 0.408049 0.512948 0.057377
C33   C     C_R   0.033449 0.935942 0.566834 -0.176943
C34   C     C_R   0.966551 0.064058 0.433165 -0.176939
C35   C     C_R   0.466816 0.435874 0.433162 -0.175586
C36   C     C_R   0.533185 0.564128 0.566836 -0.175569
H5    H     H_    0.838694 0.235465 0.479543 0.119638
H6    H     H_    0.161307 0.764535 0.520456 0.119642
H7    H     H_    0.660779 0.735821 0.520767 0.119932
H8    H     H_    0.339223 0.264180 0.479230 0.119944
H9    H     H_    0.780557 0.281413 0.617185 0.134335
H10   H     H_    0.219443 0.718586 0.382814 0.134332
H11   H     H_    0.719135 0.781715 0.383213 0.134692
H12   H     H_    0.280875 0.218284 0.616784 0.134703
H13   H     H_    0.954995 0.011649 0.712359 0.108784
H14   H     H_    0.045004 0.988350 0.287640 0.108767
H15   H     H_    0.545446 0.511462 0.287684 0.102445
H16   H     H_    0.454574 0.488535 0.712315 0.102624
C37   C     C_2   0.142628 0.946957 0.924193 -0.375920
C38   C     C_2   0.857370 0.053054 0.075796 -0.376489
C39   C     C_2   0.359050 0.447228 0.076455 -0.351993
C40   C     C_2   0.640969 0.552685 0.923405 -0.351069
C41   C     C_2   0.009036 0.955203 0.976104 0.288542
C42   C     C_2   0.990993 0.044789 0.023901 0.288499
C43   C     C_2   0.495571 0.456864 0.026265 0.248476
C44   C     C_2   0.505115 0.543294 0.973947 0.248981
H17   H     H_    0.755245 0.997820 0.080089 0.137290
H18   H     H_    0.244722 0.002203 0.919888 0.137270
H19   H     H_    0.748576 0.499938 0.921804 0.101680
H20   H     H_    0.250697 0.499669 0.077568 0.102727
N1    N     N_2   0.107319 0.123802 0.009785 -0.543166
H21   H     H_    0.047601 0.189881 0.011264 0.246673
C45   C     C_3   0.301993 0.119164 0.044662 -0.463531
H22   H     H_    0.331886 0.174291 0.092471 0.222812
H23   H     H_    0.392163 0.133055 0.995689 0.170625
H24   H     H_    0.338817 0.049069 0.072686 0.177712
N2    N     N_2   0.892764 0.876173 0.990236 -0.543144
H25   H     H_    0.952514 0.810102 0.988735 0.246895
C46   C     C_3   0.698072 0.880785 0.955381 -0.463485
H26   H     H_    0.668187 0.825674 0.907558 0.222815
H27   H     H_    0.661181 0.950883 0.927381 0.177689
H28   H     H_    0.607944 0.866854 0.004362 0.170712
N3    N     N_2   0.379887 0.619889 0.982536 -0.529222
H29   H     H_    0.383153 0.645494 0.041730 0.232803
C47   C     C_3   0.192906 0.610417 0.939245 -0.428651
H30   H     H_    0.186826 0.556748 0.889258 0.190449
H31   H     H_    0.149327 0.679439 0.911804 0.211512
H32   H     H_    0.091537 0.591122 0.982279 0.137568
N4    N     N_2   0.621747 0.380558 0.018163 -0.529156
H33   H     H_    0.619660 0.354847 0.959061 0.232512
C48   C     C_3   0.808092 0.390614 0.061937 -0.426212
H34   H     H_    0.811292 0.441859 0.113690 0.192288
H35   H     H_    0.908834 0.413498 0.019817 0.137687
H36   H     H_    0.854652 0.320936 0.087094 0.209046

loop_
_geom_bond_atom_site_label_1
_geom_bond_atom_site_label_2
_ccdc_geom_bond_type
O1    C5    A    
N3    H29   S    
C12   C32   A    
C27   C31   A    
O13   V1    S    
O3    C7    A    
N2    H25   S    
C40   C44   D    
O15   V3    S    
C46   H26   S    
C29   C34   A    
C31   C36   A    
C22   C26   A    
C42   N1    S    
C32   C35   A    
O20   V1    S    
O9    C4    A    
C23   H15   S    
C10   C14   A    
C40   H19   S    
O10   C3    A    
C22   H14   S    
O16   V4    S    
O4    C8    A    
O11   C2    A    
C21   C25   A    
O6    C2    A    
C14   H10   S    
H4    C19   S    
C14   C18   A    
O10   V2    S    
C10   C30   A    
C25   C33   A    
O16   C8    A    
C9    H5    S    
O2    C6    A    
N4    H33   S    
C28   C36   A    
O14   V2    S    
C37   C41   D    
N1    C45   S    
O5    C1    A    
O4    V1    S    
O9    V1    S    
C30   C33   A    
O7    C3    A    
O11   V3    S    
O18   V3    S    
N3    C47   S    
O12   V4    S    
O19   V2    S    
C44   N3    S    
N4    C48   S    
C4    C34   S    
H3    C20   S    
C39   H20   S    
C46   H27   S    
C41   C42   S    
O5    V1    S    
O7    V3    S    
O8    V4    S    
C10   H6    S    
C48   H36   S    
C45   H22   S    
C25   C29   A    
C19   C23   A    
C26   C34   A    
O1    V4    S    
O13   C5    A    
C28   C32   A    
C27   C35   A    
O2    V3    S    
O3    V2    S    
O15   C7    A    
C45   H23   S    
C38   C42   D    
C43   C44   S    
C1    C35   S    
C17   C21   A    
C11   C31   A    
C5    C39   S    
C3    C33   S    
C47   H31   S    
H2    C17   S    
C7    C37   S    
C2    C36   S    
C38   H17   S    
C8    C38   S    
O6    V2    S    
C37   H18   S    
C21   H13   S    
C46   H28   S    
C13   H9    S    
C26   C30   A    
C15   H11   S    
O14   C6    A    
C11   H7    S    
C24   H16   S    
C11   C15   A    
N2    C46   S    
C18   C22   A    
H1    C18   S    
C48   H35   S    
C6    C40   S    
C48   H34   S    
C45   H24   S    
C39   C43   D    
O17   V4    S    
C41   N2    S    
C43   N4    S    
C16   H12   S    
C47   H32   S    
C23   C27   A    
C9    C13   A    
C16   C20   A    
C12   C16   A    
O12   C1    A    
O8    C4    A    
C12   H8    S    
C47   H30   S    
C13   C17   A    
N1    H21   S    
C20   C24   A    
C15   C19   A    
C9    C29   A    
C24   C28   A    
