data_mof_unit_65641.cif
_audit_creation_date              2012-12-10T18:42:52-0500
_audit_creation_method            fapswitch 2.2
_symmetry_space_group_name_H-M    P1
_symmetry_Int_Tables_number       1
_space_group_crystal_system       triclinic
_cell_length_a                    45.089592
_cell_length_b                    31.881378
_cell_length_c                    31.889758
_cell_angle_alpha                 89.997066
_cell_angle_beta                  134.974222
_cell_angle_gamma                 90.006857
_cell_volume                      32429.8483761

loop_
_atom_site_label
_atom_site_type_symbol
_atom_type_description
_atom_site_fract_x
_atom_site_fract_y
_atom_site_fract_z
_atom_type_partial_charge
C1    C     C_R   0.581310 0.999998 0.581284 0.894454
C2    C     C_3   0.000278 0.208536 0.500831 -0.054094
C3    C     C_R   0.581299 0.500003 0.081374 0.898958
C4    C     C_3   0.014783 0.036548 0.778439 0.124131
C5    C     C_3   0.023352 0.968518 0.787024 0.137512
C6    C     C_3   0.519816 0.533961 0.783450 0.127351
C7    C     C_3   0.518536 0.465365 0.782202 0.130523
C8    C     C_3   0.479992 0.535044 0.716085 0.352662
C9    C     C_3   0.478784 0.465554 0.714888 0.314293
C10   C     C_3   0.975270 0.031995 0.711339 0.336013
C11   C     C_3   0.983954 0.963054 0.720056 0.335307
C12   C     C_1   0.499824 0.499971 0.625527 -0.129899
C13   C     C_3   0.466080 0.235884 0.444412 -0.185491
C14   C     C_1   0.999834 0.999974 0.625529 -0.130049
C15   C     C_1   0.999844 0.000013 0.874271 -0.157007
C16   C     C_1   0.499852 0.500010 0.874270 -0.156390
C17   C     C_3   0.539079 0.499288 0.775315 0.105677
C18   C     C_3   0.038823 0.005006 0.775052 0.108498
C19   C     C_3   0.499365 0.499930 0.707798 -0.138647
C20   C     C_3   0.999447 0.999977 0.707866 -0.142897
C21   C     C_3   0.999675 0.000065 0.791349 -0.121865
C22   C     C_3   0.499654 0.500040 0.791313 -0.118771
C23   C     C_3   0.535918 0.235746 0.517747 -0.247791
C24   C     C_3   0.464060 0.764133 0.446136 -0.222014
C25   C     C_3   0.533863 0.764259 0.512024 -0.214113
C26   C     C_3   0.035053 0.735744 0.515272 -0.247533
C27   C     C_3   0.035141 0.264268 0.515489 -0.247628
C28   C     C_3   0.960550 0.995110 0.724376 0.086614
C29   C     C_3   0.460206 0.500619 0.724049 0.087626
C30   C     C_1   0.499628 0.499947 0.662738 0.108988
C31   C     C_1   0.999665 0.999963 0.662765 0.105603
C32   C     C_1   0.999757 0.000036 0.836779 0.015659
C33   C     C_1   0.499759 0.500028 0.836770 0.020405
C34   C     C_3   0.019047 0.965031 0.255113 0.358116
C35   C     C_3   0.965126 0.735885 0.444996 -0.185338
C36   C     C_3   0.020843 0.034024 0.256882 0.333091
C37   C     C_3   0.520007 0.465567 0.256071 0.358181
C38   C     C_3   0.519895 0.534584 0.255936 0.333775
C39   C     C_3   0.480406 0.465816 0.244270 0.374820
C40   C     C_3   0.480303 0.534211 0.244162 0.370831
C41   C     C_3   0.979467 0.966379 0.243334 0.374918
C42   C     C_3   0.981257 0.034750 0.245112 0.370430
C43   C     C_1   0.500130 0.500004 0.374457 -0.125505
C44   C     C_1   0.000130 0.000005 0.374457 -0.125725
C45   C     C_1   0.000033 0.000000 0.125828 -0.129580
C46   C     C_3   0.965215 0.264107 0.444989 -0.185391
C47   C     C_1   0.500033 0.500000 0.125828 -0.129525
C48   C     C_3   0.539360 0.500128 0.302954 0.007739
C49   C     C_3   0.039349 0.999044 0.302943 0.007928
C50   C     C_3   0.500161 0.500033 0.291648 -0.161025
C51   C     C_3   0.000162 0.000038 0.291648 -0.161223
C52   C     C_3   0.000084 0.000029 0.208690 -0.147512
C53   C     C_3   0.500084 0.500028 0.208690 -0.147891
C54   C     C_1   0.500004 0.125717 0.499992 -0.157070
C55   C     C_1   0.499996 0.874281 0.499992 -0.156924
C56   C     C_1   0.999997 0.625717 0.499982 -0.156597
C57   C     C_3   0.502020 0.263635 0.463487 0.187872
C58   C     C_1   0.000006 0.374283 0.499999 -0.156644
C59   C     C_3   0.960046 0.001089 0.195970 -0.327922
C60   C     C_3   0.460034 0.499977 0.195956 -0.328118
C61   C     C_1   0.500174 0.500012 0.337058 0.135844
C62   C     C_1   0.000176 0.000015 0.337060 0.135553
C63   C     C_1   0.000031 0.000010 0.163270 0.152355
C64   C     C_1   0.500033 0.500010 0.163272 0.152299
C65   C     C_1   0.499999 0.374281 0.500202 -0.129925
C66   C     C_1   0.500027 0.625719 0.500219 -0.131407
C67   C     C_1   0.000002 0.874281 0.500196 -0.129545
C68   C     C_3   0.497969 0.736384 0.459463 0.187530
C69   C     C_1   0.000017 0.125719 0.500216 -0.131857
C70   C     C_3   0.498259 0.235997 0.537802 0.149757
C71   C     C_3   0.502553 0.764002 0.542107 0.148127
C72   C     C_3   0.000028 0.736000 0.539597 0.148566
C73   C     C_3   0.999925 0.263994 0.539509 0.150586
C74   C     C_3   0.500020 0.208511 0.500009 -0.003452
C75   C     C_3   0.500063 0.791484 0.500087 -0.003692
C76   C     C_3   0.000006 0.708511 0.499984 -0.003108
C77   C     C_3   0.000028 0.291488 0.500023 -0.003855
C78   C     C_3   0.249527 0.103514 0.300528 -0.693824
C79   C     C_3   0.000272 0.763633 0.461676 0.187450
C80   C     C_3   0.250160 0.902932 0.311648 -0.651154
C81   C     C_3   0.749507 0.600924 0.305456 -0.692739
C82   C     C_3   0.750185 0.400070 0.306903 -0.653434
C83   C     C_3   0.249683 0.006794 0.364577 -0.728046
C84   C     C_3   0.749683 0.501226 0.364770 -0.728365
C85   C     C_3   0.041489 0.107690 0.792104 -0.681876
C86   C     C_3   0.070638 0.909308 0.820667 -0.626149
C87   C     C_3   0.558182 0.599710 0.809126 -0.666535
C88   C     C_3   0.554780 0.398780 0.804956 -0.650984
C89   C     C_3   0.885216 0.984273 0.636760 -0.604382
C90   C     C_3   0.000423 0.236371 0.461842 0.188203
C91   C     C_3   0.384080 0.500065 0.635729 -0.600168
C92   C     C_3   0.614860 0.496543 0.864507 -0.686471
C93   C     C_3   0.113530 0.017465 0.863384 -0.681100
C94   C     C_3   0.615168 0.500823 0.365360 -0.619073
C95   C     C_3   0.115144 0.997619 0.365331 -0.620211
C96   C     C_3   0.503783 0.248946 0.390278 -0.676485
C97   C     C_3   0.495657 0.751154 0.382213 -0.676039
C98   C     C_3   0.998660 0.748940 0.385090 -0.676109
C99   C     C_3   0.999053 0.251072 0.385494 -0.677629
C100  C     C_3   0.395481 0.249707 0.442672 -0.728287
C101  C     C_1   0.500018 0.163160 0.499987 0.010128
C102  C     C_3   0.402814 0.751183 0.463325 -0.698736
C103  C     C_3   0.897694 0.749719 0.449528 -0.727039
C104  C     C_3   0.897555 0.250245 0.449080 -0.724510
C105  C     C_3   0.493651 0.248569 0.609111 -0.677351
C106  C     C_3   0.508141 0.751912 0.623601 -0.692534
C107  C     C_3   0.998834 0.748578 0.614447 -0.669775
C108  C     C_3   0.998491 0.251403 0.614116 -0.683504
C109  C     C_3   0.750854 0.902181 0.811928 -0.583577
C110  C     C_3   0.750873 0.101964 0.804666 -0.580789
C111  C     C_3   0.250846 0.400706 0.809463 -0.581110
C112  C     C_R   0.081310 0.500000 0.581284 0.895681
C113  C     C_1   0.500018 0.836838 0.500004 0.007813
C114  C     C_3   0.250875 0.600610 0.807178 -0.579706
C115  C     C_3   0.751292 0.995820 0.635751 -0.601526
C116  C     C_3   0.251300 0.498720 0.635684 -0.602432
C117  C     C_1   0.000006 0.663160 0.499968 0.010539
C118  C     C_1   0.000022 0.336840 0.499998 0.010318
C119  C     C_1   0.500074 0.336844 0.500434 0.038575
C120  C     C_1   0.500138 0.663157 0.500479 0.036530
C121  C     C_1   0.000081 0.836844 0.500425 0.038811
C122  C     C_1   0.000103 0.163156 0.500457 0.037545
C123  C     C_3   0.763566 0.966449 0.783943 0.090848
C124  C     C_3   0.763572 0.034555 0.782124 0.090691
C125  C     C_3   0.263564 0.465965 0.783095 0.090365
C126  C     C_3   0.465155 0.263485 0.483372 0.143654
C127  C     C_3   0.263574 0.534094 0.782975 0.090408
C128  C     C_3   0.736015 0.964743 0.716682 0.314743
C129  C     C_3   0.736022 0.034148 0.714854 0.314798
C130  C     C_3   0.236015 0.465250 0.715805 0.314848
C131  C     C_3   0.236024 0.534679 0.715707 0.314655
C132  C     C_1   0.625666 0.999987 0.625556 -0.113622
C133  C     C_1   0.125666 0.499998 0.625554 -0.112592
C134  C     C_1   0.874321 0.999991 0.874303 -0.159628
C135  C     C_1   0.374322 0.499993 0.874301 -0.159729
C136  C     C_R   0.499992 0.081326 0.499998 0.904118
C137  C     C_3   0.467338 0.736533 0.489150 0.161591
C138  C     C_R   0.499988 0.918673 0.499995 0.904885
C139  C     C_R   0.999991 0.581326 0.499996 0.904486
C140  C     C_R   0.999992 0.418674 0.499999 0.904689
C141  C     C_3   0.735920 0.001032 0.775757 0.314423
C142  C     C_3   0.235919 0.500053 0.775765 0.314634
C143  C     C_3   0.708415 0.999973 0.708169 -0.169194
C144  C     C_3   0.208415 0.499995 0.708162 -0.169297
C145  C     C_3   0.791533 0.999978 0.791378 -0.128300
C146  C     C_3   0.291533 0.499992 0.791374 -0.128105
C147  C     C_3   0.763677 0.998924 0.724178 0.096002
C148  C     C_3   0.965998 0.763488 0.485753 0.143420
C149  C     C_3   0.263679 0.499921 0.724160 0.096226
C150  C     C_1   0.663081 0.999978 0.662886 0.169577
C151  C     C_1   0.163081 0.499996 0.662882 0.170119
C152  C     C_1   0.836908 0.999985 0.836826 0.033165
C153  C     C_1   0.336908 0.499992 0.836824 0.033120
C154  C     C_3   0.236301 0.035036 0.254616 0.090451
C155  C     C_3   0.236303 0.966564 0.256805 0.112438
C156  C     C_3   0.736295 0.534105 0.256284 0.090413
C157  C     C_3   0.736309 0.465608 0.255169 0.112633
C158  C     C_3   0.264023 0.034006 0.242700 0.305691
C159  C     C_3   0.965959 0.236500 0.485619 0.143040
C160  C     C_3   0.263989 0.965050 0.244869 0.327924
C161  C     C_3   0.764017 0.535002 0.244365 0.305834
C162  C     C_3   0.763995 0.466020 0.243206 0.327724
C163  C     C_1   0.374341 0.000024 0.374400 -0.135824
C164  C     C_1   0.874341 0.500028 0.374401 -0.136382
C165  C     C_1   0.125642 0.000018 0.125648 -0.145176
C166  C     C_1   0.625642 0.500016 0.125649 -0.145051
C167  C     C_R   0.418686 0.999999 0.418716 0.891997
C168  C     C_R   0.918686 0.499999 0.418716 0.891037
C169  C     C_3   0.263649 0.001428 0.303039 0.125806
C170  C     C_3   0.500238 0.291464 0.500802 -0.054343
C171  C     C_3   0.763649 0.499520 0.303062 0.125800
C172  C     C_3   0.291600 0.000114 0.291406 -0.180448
C173  C     C_3   0.791600 0.500130 0.291411 -0.180408
C174  C     C_3   0.208393 0.000123 0.208206 -0.169548
C175  C     C_3   0.708393 0.500126 0.208213 -0.169650
C176  C     C_3   0.236102 0.998898 0.196239 0.335797
C177  C     C_3   0.736102 0.500828 0.196232 0.335838
C178  C     C_1   0.336932 0.000057 0.336914 0.121441
C179  C     C_1   0.836932 0.500067 0.336916 0.121080
C180  C     C_1   0.163049 0.000055 0.162966 0.078512
C181  C     C_3   0.500337 0.708538 0.500874 -0.048115
C182  C     C_1   0.663049 0.500053 0.162970 0.078480
C183  C     C_R   0.499940 0.499997 0.581302 0.895064
C184  C     C_R   0.999941 0.999994 0.581301 0.895031
C185  C     C_R   0.499988 0.418665 0.500047 0.901196
C186  C     C_R   0.499994 0.581335 0.500051 0.898717
C187  C     C_R   0.999989 0.918665 0.500047 0.901074
C188  C     C_R   0.999993 0.081335 0.500052 0.898290
C189  C     C_R   0.500045 0.499999 0.418768 0.894636
C190  C     C_R   0.000045 0.999999 0.418768 0.894546
C191  C     C_R   0.000038 0.999999 0.081437 0.889710
C192  C     C_3   0.000253 0.791464 0.500791 -0.054346
C193  C     C_R   0.500038 0.499999 0.081437 0.889647
C194  C     C_3   0.533672 0.263583 0.555426 0.374944
C195  C     C_3   0.535865 0.736411 0.553966 0.357907
C196  C     C_3   0.034606 0.763583 0.554809 0.375140
C197  C     C_3   0.034566 0.236423 0.554896 0.374857
C198  C     C_R   0.918675 0.999997 0.918718 0.896997
C199  C     C_R   0.418675 0.499998 0.918718 0.896842
C200  C     C_R   0.999935 0.000002 0.918695 0.901449
C201  C     C_R   0.499941 0.500002 0.918698 0.901062
C202  C     C_R   0.081299 0.000003 0.081374 0.898836
Cl1   Cl    Cl    0.716599 0.002265 0.808920 -0.581918
Cl2   Cl    Cl    0.451716 0.420682 0.668319 -0.621767
Cl3   Cl    Cl    0.943401 0.073656 0.660072 -0.606575
Cl4   Cl    Cl    0.963417 0.914699 0.680321 -0.606983
Cl5   Cl    Cl    0.453985 0.420442 0.236940 -0.488471
Cl6   Cl    Cl    0.453770 0.579511 0.236712 -0.495526
Cl7   Cl    Cl    0.951802 0.921755 0.234764 -0.488136
Cl8   Cl    Cl    0.955991 0.080770 0.238929 -0.491954
Cl9   Cl    Cl    0.578708 0.282242 0.627717 -0.564862
Cl10  Cl    Cl    0.583472 0.717483 0.623778 -0.576049
Cl11  Cl    Cl    0.080826 0.782239 0.626226 -0.562530
Cl12  Cl    Cl    0.216599 0.499982 0.808942 -0.580606
Cl13  Cl    Cl    0.080705 0.217774 0.626379 -0.567724
Cl14  Cl    Cl    0.042477 0.917945 0.259540 -0.522663
Cl15  Cl    Cl    0.046921 0.079605 0.263762 -0.537151
Cl16  Cl    Cl    0.544740 0.419154 0.261797 -0.523540
Cl17  Cl    Cl    0.544700 0.580870 0.261548 -0.534299
Cl18  Cl    Cl    0.716796 0.918663 0.672249 -0.592377
Cl19  Cl    Cl    0.716804 0.079002 0.668305 -0.591872
Cl20  Cl    Cl    0.216797 0.419813 0.670233 -0.593015
Cl21  Cl    Cl    0.216806 0.580201 0.670284 -0.590726
Cl22  Cl    Cl    0.283431 0.077547 0.232896 -0.531342
Cl23  Cl    Cl    0.282969 0.919503 0.237550 -0.513335
Cl24  Cl    Cl    0.783417 0.579909 0.236696 -0.532043
Cl25  Cl    Cl    0.782982 0.421802 0.233719 -0.512906
Cl26  Cl    Cl    0.216873 0.997227 0.124582 -0.461935
Cl27  Cl    Cl    0.716873 0.501692 0.124556 -0.461315
Cl28  Cl    Cl    0.453768 0.580602 0.670703 -0.595045
H1    H     H_    0.564753 0.223891 0.531092 0.188090
H2    H     H_    0.937155 0.275815 0.400017 0.165206
H3    H     H_    0.870152 0.766087 0.435607 0.249051
H4    H     H_    0.910191 0.727405 0.485617 0.228520
H5    H     H_    0.887104 0.732169 0.410801 0.250536
H6    H     H_    0.935924 0.198613 0.499661 0.237825
H7    H     H_    0.869964 0.233868 0.435009 0.249764
H8    H     H_    0.887063 0.267811 0.410424 0.250505
H9    H     H_    0.909975 0.272548 0.485145 0.228334
H10   H     H_    0.476166 0.193869 0.560661 0.227475
H11   H     H_    0.500814 0.232549 0.646326 0.247738
H12   H     H_    0.461434 0.261484 0.578836 0.219994
H13   H     H_    0.194264 0.084879 0.216346 0.254231
H14   H     H_    0.516330 0.274605 0.627634 0.281178
H15   H     H_    0.526717 0.805535 0.610328 0.250441
H16   H     H_    0.505665 0.768885 0.651418 0.241278
H17   H     H_    0.538748 0.735441 0.653299 0.279509
H18   H     H_    0.482389 0.728669 0.596478 0.240996
H19   H     H_    0.979983 0.693872 0.565453 0.227656
H20   H     H_    0.007354 0.732564 0.652666 0.248721
H21   H     H_    0.966731 0.761478 0.585739 0.220198
H22   H     H_    0.021291 0.774623 0.631724 0.281371
H23   H     H_    0.979724 0.306106 0.565149 0.228239
H24   H     H_    0.234138 0.126127 0.306669 0.236137
H25   H     H_    0.006904 0.267418 0.652258 0.247710
H26   H     H_    0.020975 0.225372 0.631494 0.280100
H27   H     H_    0.966382 0.238481 0.585294 0.220123
H28   H     H_    0.805033 0.938274 0.867201 0.247648
H29   H     H_    0.767120 0.872886 0.837615 0.231653
H30   H     H_    0.725662 0.893838 0.764320 0.276503
H31   H     H_    0.736791 0.916509 0.826265 0.261859
H32   H     H_    0.805133 0.084788 0.827286 0.247660
H33   H     H_    0.767100 0.124727 0.841624 0.231724
H34   H     H_    0.725556 0.086749 0.797676 0.277083
H35   H     H_    0.261404 0.121015 0.284784 0.276654
H36   H     H_    0.736976 0.119448 0.764123 0.261924
H37   H     H_    0.305031 0.436752 0.865636 0.247504
H38   H     H_    0.267105 0.371179 0.834400 0.231305
H39   H     H_    0.225645 0.392937 0.761651 0.276903
H40   H     H_    0.236795 0.414321 0.824168 0.262389
H41   H     H_    0.305142 0.584215 0.829403 0.248105
H42   H     H_    0.267097 0.622835 0.844708 0.231893
H43   H     H_    0.225539 0.584947 0.799761 0.276818
H44   H     H_    0.237004 0.618766 0.767100 0.262288
H45   H     H_    0.805348 0.976836 0.720679 0.242671
H46   H     H_    0.276237 0.088934 0.344032 0.236914
H47   H     H_    0.767709 0.002221 0.622139 0.224336
H48   H     H_    0.726126 0.019472 0.614443 0.279125
H49   H     H_    0.737184 0.964079 0.619857 0.262244
H50   H     H_    0.305349 0.478957 0.720126 0.242108
H51   H     H_    0.267724 0.505854 0.622248 0.223553
H52   H     H_    0.226145 0.522282 0.614969 0.279188
H53   H     H_    0.237177 0.467040 0.618989 0.262363
H54   H     H_    0.194416 0.936897 0.255531 0.229605
H55   H     H_    0.234359 0.873968 0.306968 0.235614
H56   H     H_    0.264856 0.918678 0.353653 0.238660
H57   H     H_    0.274861 0.893787 0.313649 0.275716
H58   H     H_    0.694244 0.583697 0.220416 0.254360
H59   H     H_    0.560987 0.776185 0.520869 0.185852
H60   H     H_    0.734118 0.622454 0.312679 0.236354
H61   H     H_    0.761364 0.619753 0.290571 0.276640
H62   H     H_    0.776231 0.585553 0.348232 0.236999
H63   H     H_    0.694430 0.433998 0.252416 0.229869
H64   H     H_    0.734395 0.370592 0.300807 0.235533
H65   H     H_    0.764865 0.414474 0.349631 0.238496
H66   H     H_    0.774899 0.392053 0.308507 0.275441
H67   H     H_    0.305797 0.021757 0.390887 0.230328
H68   H     H_    0.265169 0.001396 0.410751 0.237555
H69   H     H_    0.224063 0.983560 0.335523 0.244462
H70   H     H_    0.063161 0.723887 0.526609 0.188303
H71   H     H_    0.236217 0.038868 0.351038 0.259983
H72   H     H_    0.805796 0.517618 0.391837 0.230422
H73   H     H_    0.765168 0.494347 0.410646 0.237560
H74   H     H_    0.724064 0.478186 0.334594 0.244800
H75   H     H_    0.736216 0.533266 0.352784 0.259815
H76   H     H_    0.014156 0.086464 0.819970 0.252768
H77   H     H_    0.061382 0.131740 0.827383 0.238348
H78   H     H_    0.012561 0.123180 0.751700 0.278269
H79   H     H_    0.059095 0.094626 0.782717 0.240593
H80   H     H_    0.066485 0.943063 0.872241 0.233987
H81   H     H_    0.063302 0.276135 0.526971 0.188065
H82   H     H_    0.084310 0.881503 0.850200 0.238082
H83   H     H_    0.096470 0.927628 0.832095 0.241769
H84   H     H_    0.049224 0.898089 0.774294 0.279978
H85   H     H_    0.561849 0.562680 0.866425 0.238001
H86   H     H_    0.570420 0.627542 0.838318 0.242741
H87   H     H_    0.533673 0.610540 0.762559 0.285254
H88   H     H_    0.584285 0.585415 0.817281 0.220096
H89   H     H_    0.521896 0.414341 0.826161 0.247576
H90   H     H_    0.575453 0.375856 0.841692 0.235515
H91   H     H_    0.573421 0.414876 0.799017 0.263970
H92   H     H_    0.927336 0.001935 0.151427 0.222586
H93   H     H_    0.528612 0.381382 0.763910 0.273529
H94   H     H_    0.917858 0.968852 0.723559 0.243119
H95   H     H_    0.854717 0.987947 0.622635 0.223637
H96   H     H_    0.886490 0.952341 0.624305 0.262249
H97   H     H_    0.886790 0.007883 0.612874 0.279551
H98   H     H_    0.414337 0.481093 0.720399 0.237070
H99   H     H_    0.354468 0.508590 0.622308 0.224113
H100  H     H_    0.380639 0.467944 0.619397 0.260739
H101  H     H_    0.389082 0.522514 0.614662 0.278517
H102  H     H_    0.586192 0.519617 0.781840 0.236555
H103  H     H_    0.427312 0.499917 0.151400 0.222573
H104  H     H_    0.644941 0.490646 0.878094 0.248846
H105  H     H_    0.609809 0.470810 0.882292 0.273042
H106  H     H_    0.617393 0.526700 0.884142 0.235226
H107  H     H_    0.082307 0.029395 0.776116 0.235352
H108  H     H_    0.144536 0.014662 0.878822 0.246416
H109  H     H_    0.112199 0.994256 0.887899 0.247770
H110  H     H_    0.110668 0.049517 0.873726 0.258884
H111  H     H_    0.585508 0.521852 0.389723 0.249519
H112  H     H_    0.645432 0.495455 0.411928 0.226741
H113  H     H_    0.616602 0.531710 0.350850 0.258395
H114  H     H_    0.438753 0.224171 0.399014 0.164833
H115  H     H_    0.611065 0.475729 0.337561 0.271780
H116  H     H_    0.086082 0.019510 0.390275 0.248390
H117  H     H_    0.145256 0.991465 0.411753 0.226591
H118  H     H_    0.117409 0.028429 0.351597 0.258013
H119  H     H_    0.110364 0.972603 0.336901 0.272224
H120  H     H_    0.528110 0.301885 0.443766 0.245177
H121  H     H_    0.503691 0.264728 0.359151 0.257632
H122  H     H_    0.475060 0.229399 0.363956 0.245906
H123  H     H_    0.531977 0.228590 0.420615 0.232127
H124  H     H_    0.472039 0.697931 0.387844 0.244294
H125  H     H_    0.434982 0.775780 0.401910 0.168764
H126  H     H_    0.495762 0.735416 0.351262 0.257293
H127  H     H_    0.524174 0.771014 0.412973 0.245813
H128  H     H_    0.467251 0.771196 0.356156 0.232550
H129  H     H_    0.024278 0.801880 0.438741 0.245438
H130  H     H_    0.997174 0.764721 0.352605 0.257785
H131  H     H_    0.970073 0.729395 0.360194 0.245918
H132  H     H_    0.026922 0.728583 0.414226 0.232150
H133  H     H_    0.024583 0.198138 0.439140 0.244322
H134  H     H_    0.997671 0.235295 0.353107 0.257483
H135  H     H_    0.027309 0.271439 0.414718 0.231799
H136  H     H_    0.937011 0.724172 0.400061 0.165039
H137  H     H_    0.970452 0.270607 0.360490 0.246372
H138  H     H_    0.433299 0.301349 0.494306 0.238254
H139  H     H_    0.367349 0.266072 0.426898 0.248950
H140  H     H_    0.406902 0.227401 0.478233 0.228280
H141  H     H_    0.386175 0.232148 0.404783 0.250549
H142  H     H_    0.438959 0.696802 0.504491 0.233780
H143  H     H_    0.375205 0.735264 0.449735 0.243571
H144  H     H_    0.391626 0.771862 0.426452 0.246382
H145  H     H_    0.418245 0.770447 0.503300 0.252251
H146  H     H_    0.936105 0.801355 0.500040 0.238569
N1    N     N_2   0.219322 0.072255 0.257427 -0.285149
N2    N     N_2   0.538838 0.428412 0.819431 -0.296907
N3    N     N_2   0.918899 0.990047 0.700209 -0.276638
N4    N     N_2   0.418272 0.501577 0.699628 -0.272593
N5    N     N_2   0.581222 0.498145 0.800511 -0.300226
N6    N     N_2   0.080786 0.009788 0.800243 -0.299910
N7    N     N_2   0.581491 0.500191 0.362047 -0.264931
N8    N     N_2   0.081466 0.997947 0.362020 -0.264984
N9    N     N_2   0.504412 0.280197 0.423716 -0.283504
N10   N     N_2   0.495535 0.719853 0.414861 -0.283656
N11   N     N_2   0.000766 0.780193 0.419941 -0.283681
N12   N     N_2   0.219606 0.930176 0.261621 -0.266623
N13   N     N_2   0.001054 0.219817 0.420246 -0.283603
N14   N     N_2   0.427509 0.280206 0.464779 -0.284238
N15   N     N_2   0.431558 0.720076 0.475941 -0.293442
N16   N     N_2   0.929249 0.780213 0.469732 -0.284603
N17   N     N_2   0.929144 0.219761 0.469411 -0.284465
N18   N     N_2   0.496700 0.218656 0.578222 -0.281997
N19   N     N_2   0.505059 0.781639 0.586429 -0.303330
N20   N     N_2   0.000360 0.718662 0.581934 -0.283257
N21   N     N_2   0.000119 0.281325 0.581711 -0.280711
N22   N     N_2   0.780824 0.930522 0.823043 -0.273902
N23   N     N_2   0.719309 0.570318 0.260869 -0.285430
N24   N     N_2   0.780834 0.071419 0.819607 -0.274711
N25   N     N_2   0.280819 0.429503 0.821290 -0.274909
N26   N     N_2   0.280835 0.570442 0.821371 -0.274805
N27   N     N_2   0.781107 0.997981 0.699630 -0.274736
N28   N     N_2   0.281112 0.500022 0.699607 -0.274719
N29   N     N_2   0.719623 0.428216 0.258208 -0.266268
N30   N     N_2   0.280236 0.002289 0.361909 -0.291934
N31   N     N_2   0.780236 0.498336 0.361924 -0.292309
N32   N     N_2   0.031215 0.075339 0.811920 -0.290576
N33   N     N_2   0.048324 0.934470 0.828785 -0.278199
N34   N     N_2   0.541194 0.570173 0.822088 -0.271184
O1    O     O_R   0.561630 0.000000 0.596420 -0.602950
O2    O     O_R   0.965230 0.000000 0.403640 -0.597236
O3    O     O_R   0.000030 0.965220 0.061700 -0.604123
O4    O     O_R   0.000030 0.034780 0.061700 -0.603347
O5    O     O_R   0.500030 0.465220 0.061700 -0.604386
O6    O     O_R   0.500030 0.534780 0.061700 -0.603190
O7    O     O_R   0.938380 0.965210 0.938430 -0.610762
O8    O     O_R   0.938380 0.034790 0.938430 -0.611057
O9    O     O_R   0.438380 0.465210 0.938430 -0.611721
O10   O     O_R   0.438380 0.534790 0.938430 -0.609971
O11   O     O_R   0.999950 0.965200 0.938400 -0.610178
O12   O     O_R   0.061630 0.500000 0.596420 -0.601814
O13   O     O_R   0.999950 0.034800 0.938400 -0.612513
O14   O     O_R   0.499950 0.465200 0.938400 -0.614831
O15   O     O_R   0.499950 0.534800 0.938400 -0.607217
O16   O     O_R   0.061600 0.965210 0.061670 -0.606527
O17   O     O_R   0.061600 0.034790 0.061670 -0.611733
O18   O     O_R   0.561600 0.465210 0.061670 -0.607169
O19   O     O_R   0.561600 0.534790 0.061670 -0.611232
O20   O     O_R   0.561580 0.000000 0.526800 -0.606634
O21   O     O_R   0.061580 0.500000 0.526800 -0.606868
O22   O     O_R   0.500020 0.061610 0.534810 -0.614544
O23   O     O_R   0.465210 0.438380 0.465220 -0.610426
O24   O     O_R   0.500020 0.938390 0.534810 -0.614697
O25   O     O_R   0.000020 0.561610 0.534810 -0.614713
O26   O     O_R   0.000020 0.438390 0.534810 -0.614219
O27   O     O_R   0.499970 0.061600 0.465200 -0.608042
O28   O     O_R   0.499970 0.938400 0.465200 -0.607928
O29   O     O_R   0.999970 0.561600 0.465200 -0.607993
O30   O     O_R   0.999970 0.438400 0.465200 -0.608218
O31   O     O_R   0.438410 0.000000 0.473200 -0.625757
O32   O     O_R   0.938410 0.500000 0.473200 -0.626725
O33   O     O_R   0.438360 0.000000 0.403580 -0.594095
O34   O     O_R   0.465210 0.561620 0.465220 -0.614529
O35   O     O_R   0.938360 0.500000 0.403580 -0.594021
O36   O     O_R   0.534760 0.500000 0.596460 -0.614347
O37   O     O_R   0.034760 0.000000 0.596460 -0.614368
O38   O     O_R   0.465190 0.500000 0.526830 -0.604241
O39   O     O_R   0.965190 0.000000 0.526830 -0.604149
O40   O     O_R   0.534770 0.438380 0.534860 -0.604032
O41   O     O_R   0.534770 0.561620 0.534860 -0.600965
O42   O     O_R   0.034770 0.938380 0.534860 -0.603348
O43   O     O_R   0.034770 0.061620 0.534860 -0.605749
O44   O     O_R   0.965210 0.938380 0.465220 -0.610773
O45   O     O_R   0.965210 0.061620 0.465220 -0.609919
O46   O     O_R   0.534790 0.500000 0.473270 -0.616420
O47   O     O_R   0.034790 0.000000 0.473270 -0.617765
O48   O     O_R   0.465230 0.500000 0.403640 -0.598551
Zn1   Zn    Zn3+2 0.500030 0.000000 0.546480 1.012990
Zn2   Zn    Zn3+2 0.999990 0.046460 0.000050 1.025203
Zn3   Zn    Zn3+2 0.499990 0.453540 0.000050 1.027112
Zn4   Zn    Zn3+2 0.499990 0.546460 0.000050 1.030463
Zn5   Zn    Zn3+2 0.000030 0.500000 0.546480 1.013546
Zn6   Zn    Zn3+2 0.499960 0.000000 0.453520 1.039308
Zn7   Zn    Zn3+2 0.999960 0.500000 0.453520 1.039224
Zn8   Zn    Zn3+2 0.546440 0.500000 0.546540 1.034076
Zn9   Zn    Zn3+2 0.046440 1.000000 0.546540 1.030910
Zn10  Zn    Zn3+2 0.453540 0.500000 0.453560 1.037175
Zn11  Zn    Zn3+2 0.953540 0.000000 0.453560 1.040431
Zn12  Zn    Zn3+2 0.999990 0.953540 0.000050 1.031814

loop_
_geom_bond_atom_site_label_1
_geom_bond_atom_site_label_2
_ccdc_geom_bond_type
C40   Cl6   S    
C22   C29   S    
C115  N27   S    
C132  C150  T    
C36   C42   S    
C133  C151  T    
C99   H137  S    
H80   N33   S    
C15   C32   T    
C71   C137  S    
C92   H105  S    
C110  N24   S    
C171  C173  S    
O3    Zn12  S    
C35   H136  S    
O32   Zn5   S    
C193  O6    A    
C10   Cl3   S    
C154  C158  S    
C144  C151  S    
C125  C146  S    
C135  C199  S    
C84   H75   S    
C53   C64   S    
C173  C179  S    
C10   C28   S    
C183  O36   A    
C97   H126  S    
C160  Cl23  S    
C27   C90   S    
C93   H108  S    
C2    C90   S    
C49   N8    S    
H58   N23   S    
C44   C190  S    
C102  N15   S    
O42   Zn9   S    
C45   C191  S    
C147  N27   S    
C123  C145  S    
C10   C20   S    
C2    C159  S    
C49   C51   S    
O33   Zn6   S    
C70   C74   S    
C11   Cl4   S    
O26   Zn5   S    
C81   H60   S    
C85   H77   S    
C4    C18   S    
C70   C126  S    
C48   C50   S    
C85   N32   S    
C26   C196  S    
C156  N23   S    
C202  O17   A    
C37   Cl16  S    
C121  C192  S    
C105  H11   S    
H85   N34   S    
C67   C187  S    
C187  O44   A    
C200  O13   A    
C11   C20   S    
C82   N29   S    
C127  N26   S    
H120  N9    S    
C198  O7    A    
C164  C168  S    
O27   Zn6   S    
C171  N31   S    
C175  C177  S    
C82   H64   S    
C47   C64   T    
H142  N15   S    
C5    C18   S    
O46   Zn8   S    
H146  N16   S    
C136  O27   A    
C104  H8    S    
C165  C202  S    
C187  O42   A    
C24   H125  S    
C155  C169  S    
C185  O40   A    
C123  C141  S    
C163  C178  T    
C160  C172  S    
C73   N21   S    
C185  O23   A    
C164  C179  T    
C74   C101  S    
C129  C143  S    
C21   C28   S    
C97   N10   S    
C103  H4    S    
C111  N25   S    
C108  H25   S    
C142  C144  S    
C131  C149  S    
C161  C177  S    
C99   H135  S    
C198  O8    A    
C104  N17   S    
C43   C61   T    
C58   C140  S    
C1    O1    A    
C109  H31   S    
C191  O4    A    
C98   H132  S    
C47   C193  S    
C91   H101  S    
C76   C117  S    
C52   C63   S    
C36   Cl15  S    
C72   C196  S    
C46   C77   S    
C128  C147  S    
C5    C11   S    
C7    C22   S    
C80   H56   S    
C97   H128  S    
C102  H144  S    
C82   H65   S    
C96   H121  S    
C93   H110  S    
O35   Zn7   S    
C157  C171  S    
C158  C172  S    
C38   C53   S    
C199  O9    A    
C87   H88   S    
C39   C60   S    
C23   C194  S    
C108  N21   S    
C81   H62   S    
C127  C131  S    
C1    O20   A    
C129  C147  S    
C83   H68   S    
H76   N32   S    
C5    C21   S    
C116  N28   S    
C90   N13   S    
C73   C77   S    
C116  H53   S    
C188  O45   A    
C19   C30   S    
C157  C162  S    
C41   C51   S    
C23   H1    S    
C168  O35   A    
C114  H43   S    
C95   H117  S    
C156  C175  S    
C40   C60   S    
H107  N6    S    
C89   H95   S    
C56   C117  T    
C54   C101  T    
C166  C182  T    
C78   H46   S    
C14   C31   T    
C112  O12   A    
C87   N34   S    
C6    N34   S    
C107  H22   S    
C8    C29   S    
C189  O46   A    
C154  N1    S    
C94   H112  S    
C12   C183  S    
C92   H104  S    
C186  O34   A    
C138  O24   A    
H10   N18   S    
C139  O29   A    
H19   N20   S    
C169  N30   S    
C84   H74   S    
C100  H139  S    
C7    C17   S    
C190  O47   A    
H13   N1    S    
C106  H17   S    
C130  C144  S    
C128  Cl18  S    
C38   C48   S    
C36   C52   S    
C37   C53   S    
H98   N4    S    
O22   Zn1   S    
C17   N5    S    
C108  H27   S    
C91   H99   S    
C51   C62   S    
C162  C177  S    
C67   C121  T    
C123  N22   S    
C53   C60   S    
C9    C19   S    
C83   H71   S    
C176  Cl26  S    
O25   Zn5   S    
C35   C76   S    
C8    C19   S    
C154  C174  S    
C201  O15   A    
C13   C57   S    
C77   C118  S    
H50   N28   S    
H37   N25   S    
O9    Zn3   S    
O8    Zn2   S    
C126  C170  S    
C9    Cl2   S    
C71   C195  S    
C28   N3    S    
C100  H140  S    
O13   Zn2   S    
C88   H93   S    
C110  H33   S    
C98   H131  S    
C155  C174  S    
C57   N9    S    
H45   N27   S    
C156  C161  S    
C59   H92   S    
C3    O19   A    
C89   H97   S    
C27   H81   S    
C124  C141  S    
H111  N7    S    
C23   C74   S    
C157  N29   S    
C174  C180  S    
C99   N13   S    
C86   H83   S    
C161  Cl24  S    
C172  C178  S    
C23   C57   S    
C6    C17   S    
H116  N8    S    
C34   C49   S    
C103  H5    S    
C107  H20   S    
C79   N11   S    
C46   H2    S    
C38   Cl17  S    
H138  N14   S    
C114  H42   S    
C42   C59   S    
O39   Zn11  S    
C109  N22   S    
C92   H106  S    
C24   C137  S    
O29   Zn7   S    
C73   C159  S    
C111  H40   S    
C193  O5    A    
C106  H18   S    
C195  Cl10  S    
C34   Cl14  S    
C15   C200  S    
O44   Zn11  S    
C100  H141  S    
C69   C122  T    
C88   H91   S    
C35   C79   S    
C35   C148  S    
C145  C152  S    
C36   C49   S    
O6    Zn4   S    
C186  O41   A    
C114  N26   S    
H23   N21   S    
C88   H90   S    
C50   C61   S    
C71   N19   S    
C89   N3    S    
C148  N16   S    
C83   H69   S    
C148  C192  S    
C2    C197  S    
C116  H52   S    
C27   C197  S    
O7    Zn12  S    
C167  O33   A    
C96   H123  S    
C116  H51   S    
O30   Zn7   S    
C162  C173  S    
C25   C68   S    
H15   N19   S    
C188  O43   A    
C70   N18   S    
C91   N4    S    
C141  C143  S    
C98   H130  S    
C7    N2    S    
C6    C22   S    
C149  N28   S    
O4    Zn2   S    
C7    C9    S    
O17   Zn2   S    
C78   N1    S    
O38   Zn10  S    
C145  C147  S    
C94   H115  S    
C42   Cl8   S    
H72   N31   S    
C57   C170  S    
C103  H3    S    
O24   Zn1   S    
C108  H26   S    
O20   Zn6   S    
H102  N5    S    
C34   C41   S    
C5    N33   S    
C13   H114  S    
C140  O26   A    
O5    Zn3   S    
C2    C122  S    
C104  H7    S    
C138  O28   A    
C68   C181  S    
C139  O25   A    
C191  O3    A    
C78   H35   S    
C81   N23   S    
C112  O21   A    
C142  Cl12  S    
O48   Zn10  S    
C170  C194  S    
C56   C139  S    
C124  N24   S    
C85   H79   S    
C97   H127  S    
C102  H145  S    
C154  C169  S    
C25   C75   S    
C93   H109  S    
C68   N10   S    
C80   N12   S    
O40   Zn8   S    
C146  C149  S    
C161  C173  S    
C14   C184  S    
C192  C196  S    
C130  Cl20  S    
C70   C194  S    
C134  C152  T    
C92   N5    S    
C65   C119  T    
C26   H70   S    
C94   N7    S    
C72   N20   S    
C81   H61   S    
C126  N14   S    
C85   H78   S    
C13   C126  S    
C79   C192  S    
C202  O16   A    
O12   Zn5   S    
C111  H39   S    
H32   N24   S    
C184  O39   A    
C167  O31   A    
C105  H12   S    
C110  H36   S    
H89   N2    S    
C114  H44   S    
C200  O11   A    
C115  H49   S    
C107  N20   S    
C93   N6    S    
C158  Cl22  S    
C12   C30   T    
C105  N18   S    
C95   N8    S    
C98   N11   S    
H41   N26   S    
C6    C8    S    
C24   C75   S    
C46   C90   S    
C34   C52   S    
C26   C79   S    
C107  H21   S    
C109  H30   S    
O36   Zn8   S    
C37   C39   S    
O10   Zn4   S    
C38   C40   S    
O34   Zn10  S    
C94   H113  S    
C95   H119  S    
C146  C153  S    
C11   C28   S    
C40   C50   S    
C46   C159  S    
C100  N14   S    
C124  C129  S    
O28   Zn6   S    
O21   Zn7   S    
C181  C195  S    
C128  C143  S    
C174  C176  S    
C24   C68   S    
C127  C146  S    
C137  C181  S    
C13   C74   S    
C88   N2    S    
O14   Zn3   S    
C96   H122  S    
O47   Zn9   S    
C131  C144  S    
O37   Zn9   S    
C60   H103  S    
C104  H9    S    
C103  N16   S    
C109  H29   S    
C87   H86   S    
C4    C21   S    
C159  N17   S    
C112  C133  S    
C72   C76   S    
C1    C132  S    
C162  Cl25  S    
C184  O37   A    
C86   H82   S    
C155  N12   S    
C80   H55   S    
C102  H143  S    
C201  O14   A    
O43   Zn9   S    
O23   Zn10  S    
O18   Zn3   S    
C111  H38   S    
C177  Cl27  S    
C199  O10   A    
C58   C118  T    
C194  Cl9   S    
C8    Cl28  S    
C125  C130  S    
C143  C150  S    
C39   Cl5   S    
C26   C76   S    
O19   Zn4   S    
C189  O48   A    
C120  C181  S    
C105  H14   S    
C110  H34   S    
C197  Cl13  S    
C87   H87   S    
C42   C51   S    
C41   Cl7   S    
C115  H47   S    
C95   H118  S    
C125  N25   S    
C18   N6    S    
C48   N7    S    
C89   H96   S    
C160  C176  S    
C106  N19   S    
O1    Zn1   S    
C137  N15   S    
H94   N3    S    
C86   H84   S    
C21   C32   S    
C65   C185  S    
C78   H24   S    
C84   N31   S    
C41   C59   S    
O41   Zn8   S    
C129  Cl19  S    
O15   Zn4   S    
H67   N30   S    
C55   C113  T    
C44   C62   T    
C72   C148  S    
C45   C63   T    
C25   H59   S    
C96   N9    S    
H54   N12   S    
C127  C142  S    
C163  C167  S    
C136  O22   A    
C52   C59   S    
C16   C33   T    
C84   H73   S    
O11   Zn12  S    
C125  C142  S    
C54   C136  S    
C183  O38   A    
H124  N10   S    
C130  C149  S    
C106  H16   S    
C37   C48   S    
C99   H134  S    
C69   C188  S    
C55   C138  S    
C140  O30   A    
C157  C175  S    
C175  C182  S    
C75   C113  S    
C158  C176  S    
C190  O2    A    
C73   C197  S    
H28   N22   S    
C169  C172  S    
C3    O18   A    
C91   H100  S    
C4    C10   S    
C29   N4    S    
C134  C198  S    
C22   C33   S    
C80   H57   S    
C115  H48   S    
C155  C160  S    
O45   Zn11  S    
C86   N33   S    
C141  Cl1   S    
H63   N29   S    
C27   C77   S    
C25   C195  S    
C131  Cl21  S    
O16   Zn12  S    
C9    C29   S    
C124  C145  S    
C156  C171  S    
C135  C153  T    
C83   N30   S    
O31   Zn1   S    
C66   C186  S    
H133  N13   S    
C82   H66   S    
C71   C75   S    
C196  Cl11  S    
C123  C128  S    
C17   C19   S    
C18   C20   S    
H6    N17   S    
C4    N32   S    
C168  O32   A    
C119  C170  S    
C39   C50   S    
C43   C189  S    
O2    Zn11  S    
C165  C180  T    
C66   C120  T    
H129  N11   S    
C16   C201  S    
C3    C166  S    
C20   C31   S    
