data_mof_unit_67588.cif
_audit_creation_date              2012-10-26T20:17:12-0400
_audit_creation_method            fapswitch 2.2
_symmetry_space_group_name_H-M    P1
_symmetry_Int_Tables_number       1
_space_group_crystal_system       triclinic
_cell_length_a                    10.714418
_cell_length_b                    11.081414
_cell_length_c                    10.044727
_cell_angle_alpha                 110.789281
_cell_angle_beta                  100.246019
_cell_angle_gamma                 91.754241
_cell_volume                      1091.47893003

loop_
_atom_site_label
_atom_site_type_symbol
_atom_type_description
_atom_site_fract_x
_atom_site_fract_y
_atom_site_fract_z
_atom_type_partial_charge
C1    C     C_R   0.494836 0.254580 0.440842 0.510776
C2    C     C_3   0.121045 0.507881 0.496740 -0.004590
C3    C     C_3   0.983037 0.495294 0.624584 0.279205
C4    C     C_3   0.013468 0.510904 0.372906 0.282380
C5    C     C_2   0.492790 0.113766 0.408528 0.244505
C6    C     C_2   0.534831 0.885254 0.598864 0.250493
C7    C     C_2   0.534814 0.070738 0.517287 0.248326
C8    C     C_2   0.484386 0.940439 0.504882 0.258797
C9    C     C_2   0.506953 0.510922 0.078356 0.447923
C10   C     C_2   0.485805 0.486625 0.913140 0.461937
C11   C     C_3   0.857229 0.280374 0.261184 -0.249360
C12   C     C_R   0.511109 0.745351 0.560064 0.554558
C13   C     C_3   0.938264 0.193026 0.163630 -0.451459
C14   C     C_3   0.138887 0.726765 0.734461 -0.256516
C15   C     C_3   0.058452 0.813681 0.832989 -0.445644
C16   C     C_3   0.106499 0.275991 0.522181 -0.268754
C17   C     C_3   0.018989 0.179862 0.547851 -0.459746
C18   C     C_3   0.879813 0.725701 0.472113 -0.261620
C19   C     C_3   0.962181 0.826439 0.448104 -0.452365
C20   C     C_3   0.067487 0.490760 0.852096 -0.128652
C21   C     C_3   0.926454 0.513694 0.144914 -0.109986
C22   C     C_3   0.269016 0.917784 0.441151 -0.136693
C23   C     C_R   0.259613 0.505457 0.499618 0.529852
C24   C     C_3   0.734076 0.167343 0.634902 -0.073818
C25   C     C_3   0.549071 0.998819 0.839996 -0.098518
C26   C     C_3   0.339809 0.042122 0.193583 -0.106672
C27   C     C_3   0.386965 0.279246 0.777096 -0.046353
C28   C     C_3   0.531305 0.730984 0.175162 -0.064520
C29   C     C_3   0.726950 0.701335 0.931943 -0.019538
C30   C     C_3   0.259283 0.324059 0.078667 -0.044051
C31   C     C_R   0.739650 0.496200 0.500270 0.524129
C32   C     C_3   0.042954 0.394086 0.510302 -0.013375
C33   C     C_3   0.952267 0.611747 0.486636 -0.014350
C34   C     C_3   0.936726 0.396960 0.385817 -0.017427
C35   C     C_3   0.059521 0.609304 0.611456 -0.011461
C36   C     C_3   0.876297 0.497595 0.501199 -0.009954
Cu1   Cu    Cu3+1 0.522260 0.521810 0.644920 1.011793
Cu2   Cu    Cu3+1 0.477740 0.478190 0.355080 1.011488
H1    H     H_    0.006649 0.251126 0.133664 0.159443
H2    H     H_    0.189574 0.784622 0.686529 0.126992
H3    H     H_    0.985553 0.227483 0.650250 0.167465
H4    H     H_    0.936861 0.139230 0.455608 0.142174
H5    H     H_    0.072994 0.099285 0.559406 0.110647
H6    H     H_    0.145767 0.227272 0.423881 0.118577
H7    H     H_    0.186368 0.311757 0.615088 0.180944
H8    H     H_    0.038970 0.873572 0.544910 0.138269
H9    H     H_    0.002684 0.780253 0.350245 0.176816
H10   H     H_    0.902634 0.901601 0.430187 0.122375
H11   H     H_    0.797855 0.688958 0.379197 0.193927
H12   H     H_    0.991283 0.133633 0.218339 0.136394
H13   H     H_    0.839365 0.771934 0.570312 0.146505
H14   H     H_    0.156407 0.487835 0.809590 0.164059
H15   H     H_    0.060308 0.407255 0.887336 0.120489
H16   H     H_    0.077321 0.581297 0.948807 0.127550
H17   H     H_    0.837865 0.520980 0.189065 0.161668
H18   H     H_    0.915984 0.420261 0.051690 0.137306
H19   H     H_    0.933028 0.593499 0.103638 0.156463
H20   H     H_    0.189077 0.877661 0.346414 0.146452
H21   H     H_    0.270408 0.025192 0.479951 0.079804
H22   H     H_    0.252262 0.882411 0.527523 0.099908
H23   H     H_    0.875236 0.125605 0.062428 0.141310
H24   H     H_    0.773306 0.071769 0.597513 0.114061
H25   H     H_    0.792050 0.226713 0.743350 0.164802
H26   H     H_    0.743392 0.219447 0.560214 0.117357
H27   H     H_    0.524044 0.918941 0.875721 0.119656
H28   H     H_    0.460090 0.039573 0.807697 0.093975
H29   H     H_    0.609422 0.076496 0.934823 0.156859
H30   H     H_    0.355859 0.088247 0.115696 0.152532
H31   H     H_    0.278159 0.098704 0.266720 0.076810
H32   H     H_    0.286938 0.945381 0.129593 0.131749
H33   H     H_    0.306125 0.229405 0.798436 0.118840
H34   H     H_    0.803509 0.222600 0.306846 0.135961
H35   H     H_    0.478393 0.254202 0.828010 0.183938
H36   H     H_    0.371259 0.234175 0.658293 0.125432
H37   H     H_    0.428973 0.722720 0.181193 0.180129
H38   H     H_    0.536793 0.754766 0.078587 0.103704
H39   H     H_    0.584141 0.813354 0.270426 0.176954
H40   H     H_    0.652884 0.764694 0.914280 0.123387
H41   H     H_    0.787369 0.684327 0.850041 0.173788
H42   H     H_    0.789375 0.756339 0.039112 0.078607
H43   H     H_    0.218352 0.418745 0.101864 0.174620
H44   H     H_    0.258722 0.286938 0.167215 0.153906
H45   H     H_    0.785663 0.315998 0.193517 0.163535
H46   H     H_    0.195066 0.253093 0.981407 0.054943
H47   H     H_    0.991416 0.859642 0.773180 0.154571
H48   H     H_    0.004596 0.757769 0.880177 0.161538
H49   H     H_    0.121676 0.892705 0.923085 0.105974
H50   H     H_    0.212475 0.692606 0.801623 0.153295
N1    N     N_2   0.444270 0.445410 0.137360 -0.045057
N2    N     N_2   0.555730 0.554590 0.862640 -0.055523
O1    O     O_R   0.511880 0.332340 0.577400 -0.471935
O2    O     O_3   0.040258 0.522868 0.245353 -0.595881
O3    O     O_3   0.381486 0.874505 0.394942 -0.585753
O4    O     O_3   0.606847 0.153111 0.649353 -0.579503
O5    O     O_3   0.618849 0.955996 0.727694 -0.585944
O6    O     O_3   0.458348 0.023450 0.266895 -0.594986
O7    O     O_3   0.374741 0.414249 0.822295 -0.605055
O8    O     O_3   0.588856 0.617544 0.172632 -0.585929
O9    O     O_3   0.678460 0.582845 0.934936 -0.496408
O10   O     O_3   0.382520 0.329682 0.049553 -0.548872
O11   O     O_R   0.488120 0.667660 0.422600 -0.465196
O12   O     O_R   0.474280 0.295500 0.332650 -0.495273
O13   O     O_R   0.525720 0.704500 0.667350 -0.538294
O14   O     O_R   0.335640 0.518390 0.622350 -0.498059
O15   O     O_R   0.664360 0.481610 0.377650 -0.508152
O16   O     O_R   0.298050 0.481550 0.377590 -0.498675
O17   O     O_R   0.701950 0.518450 0.622410 -0.458784
O18   O     O_3   0.954566 0.485127 0.752297 -0.563925

loop_
_geom_bond_atom_site_label_1
_geom_bond_atom_site_label_2
_ccdc_geom_bond_type
C2    C35   S    
C30   H44   S    
C9    O8    S    
C25   H29   S    
C19   H8    S    
C21   H17   S    
C7    C8    S    
Cu2   N1    S    
Cu1   N2    S    
C1    C5    S    
C15   H49   S    
Cu1   O17   S    
Cu2   O11   S    
C31   C36   S    
C22   H22   S    
C19   H9    S    
C30   O10   S    
C33   C36   S    
C2    C32   S    
C18   C19   S    
C17   H4    S    
C29   H40   S    
C8    O3    S    
C16   C17   S    
C27   H36   S    
C9    C10   S    
C16   H6    S    
C15   H47   S    
C24   H26   S    
C31   O15   A    
C18   H13   S    
C26   O6    S    
C4    C34   S    
C29   O9    S    
N1    O10   S    
C25   H27   S    
C12   O13   A    
C20   H16   S    
C9    N1    D    
C14   C35   S    
C5    C7    D    
Cu1   O1    S    
C11   H34   S    
C6    C8    D    
C11   H45   S    
C23   O16   A    
C32   C34   S    
Cu2   O16   S    
C10   O7    S    
C2    C4    S    
C17   H5    S    
C21   H19   S    
Cu1   Cu2   S    
C24   O4    S    
C21   H18   S    
C23   O14   A    
C29   H41   S    
C3    C35   S    
C28   H39   S    
C15   H48   S    
C25   O5    S    
C24   H25   S    
C26   H32   S    
C22   O3    S    
C28   H38   S    
N2    O9    S    
C22   H21   S    
C5    O6    S    
C27   H33   S    
Cu1   O13   S    
C28   O8    S    
C7    O4    S    
C4    C33   S    
C27   O7    S    
C24   H24   S    
C19   H10   S    
C31   O17   A    
C11   C34   S    
C25   H28   S    
C20   H15   S    
C16   H7    S    
C22   H20   S    
Cu1   O14   S    
C3    O18   S    
C16   C32   S    
C26   H30   S    
C30   H43   S    
C14   H50   S    
C12   O11   A    
Cu2   O12   S    
C6    C12   S    
C11   C13   S    
C29   H42   S    
C3    C36   S    
Cu2   O15   S    
C33   C35   S    
C34   C36   S    
C30   H46   S    
C3    C32   S    
C18   C33   S    
C17   H3    S    
C13   H1    S    
C14   H2    S    
C13   H12   S    
C13   H23   S    
C10   N2    D    
C20   H14   S    
C6    O5    S    
C1    O1    A    
C2    C23   S    
C26   H31   S    
C14   C15   S    
C4    O2    S    
C27   H35   S    
C28   H37   S    
C1    O12   A    
C18   H11   S    
C20   O18   S    
C21   O2    S    
