data_mof_unit_61460.cif
_audit_creation_date              2012-12-10T19:39:09-0500
_audit_creation_method            fapswitch 2.2
_symmetry_space_group_name_H-M    P1
_symmetry_Int_Tables_number       1
_space_group_crystal_system       triclinic
_cell_length_a                    15.926534
_cell_length_b                    15.882637
_cell_length_c                    17.086801
_cell_angle_alpha                 92.706764
_cell_angle_beta                  95.192051
_cell_angle_gamma                 92.044773
_cell_volume                      4296.19197949

loop_
_atom_site_label
_atom_site_type_symbol
_atom_type_description
_atom_site_fract_x
_atom_site_fract_y
_atom_site_fract_z
_atom_type_partial_charge
C1    C     C_R   0.509794 0.502379 0.651156 0.914122
C2    C     C_R   0.490438 0.504454 0.348365 0.880384
C3    C     C_R   0.489720 0.581075 0.777890 -0.178364
C4    C     C_R   0.564968 0.511149 0.224067 -0.147312
C5    C     C_R   0.492363 0.584111 0.860407 0.297998
C6    C     C_R   0.564338 0.488679 0.143530 0.303178
C7    C     C_R   0.519140 0.515061 0.902444 0.231408
C8    C     C_R   0.487136 0.474196 0.097169 0.227185
C9    C     C_R   0.549057 0.443679 0.863125 0.312668
C10   C     C_R   0.410691 0.480966 0.130971 0.282684
C11   C     C_R   0.547028 0.439757 0.780495 -0.155857
C12   C     C_R   0.410129 0.500242 0.212325 -0.157758
C13   C     C_R   0.247015 0.550346 0.531443 0.457983
C14   C     C_R   0.751625 0.454606 0.461885 0.448293
C15   C     C_R   0.158068 0.554195 0.523895 0.205384
C16   C     C_R   0.840618 0.452322 0.465407 0.192353
C17   C     C_R   0.108522 0.491949 0.477512 0.164131
C18   C     C_R   0.891248 0.509265 0.517308 0.169223
C19   C     C_R   0.150677 0.429450 0.437448 0.213254
C20   C     C_R   0.849894 0.564318 0.566490 0.213860
C21   C     C_R   0.240014 0.428146 0.445409 -0.068882
C22   C     C_R   0.760596 0.564534 0.561698 -0.057027
C23   C     C_R   0.499595 0.659816 0.498331 0.863279
C24   C     C_R   0.500193 0.339986 0.498337 0.855143
C25   C     C_3   0.577792 0.030378 0.489701 -0.136738
C26   C     C_3   0.420436 0.968776 0.499196 -0.135986
C27   C     C_3   0.549314 0.976548 0.556344 -0.135813
C28   C     C_3   0.448896 0.022687 0.432572 -0.128049
C29   C     C_1   0.498991 0.748991 0.496071 -0.003341
C30   C     C_1   0.500288 0.250515 0.496271 -0.018860
C31   C     C_3   0.527753 0.969247 0.427780 -0.129166
C32   C     C_3   0.470430 0.029869 0.561120 -0.134885
C33   C     C_3   0.499287 0.915703 0.494428 -0.002718
C34   C     C_3   0.498934 0.083511 0.494504 -0.000691
C35   C     C_1   0.499076 0.824236 0.494927 0.172830
C36   C     C_1   0.499618 0.175102 0.495119 0.174474
C37   C     C_R   0.514619 0.507378 0.737630 -0.240710
C38   C     C_R   0.487978 0.507908 0.260712 -0.257053
Cu1   Cu    Cu3+1 0.584780 0.504040 0.503820 1.079001
Cu2   Cu    Cu3+1 0.415220 0.495960 0.496180 1.071979
N1    N     N_2   0.521184 0.522582 0.985298 -0.104980
N2    N     N_2   0.484956 0.462399 0.014398 -0.089107
N3    N     N_R   0.287870 0.489880 0.490440 -0.292394
N4    N     N_R   0.712130 0.510120 0.509560 -0.292583
N5    N     N_2   0.017803 0.492536 0.466230 -0.067181
N6    N     N_2   0.982146 0.508717 0.527308 -0.061471
O1    O     O_R   0.579470 0.503780 0.617500 -0.573236
O2    O     O_R   0.420530 0.496220 0.382500 -0.559328
O3    O     O_R   0.436280 0.496950 0.611050 -0.533899
O4    O     O_R   0.563720 0.503050 0.388950 -0.552062
O5    O     O_R   0.571580 0.624340 0.503230 -0.553742
O6    O     O_R   0.428420 0.375660 0.496770 -0.578859
O7    O     O_R   0.428390 0.617510 0.496780 -0.537806
O8    O     O_R   0.571610 0.382490 0.503220 -0.534345
C39   C     C_2   0.606234 0.953065 0.626089 0.944875
O9    O     O_2   0.641070 0.008574 0.670789 -0.520524
O10   O     O_R   0.619379 0.868300 0.639561 -0.715939
H1    H     H_    0.658895 0.860683 0.688423 0.376808
C40   C     C_2   0.392134 0.046560 0.362909 0.957501
O11   O     O_2   0.356457 0.991285 0.318482 -0.521515
O12   O     O_R   0.380191 0.131469 0.349141 -0.732389
H2    H     H_    0.340396 0.139298 0.300512 0.364903
Cl1   Cl    Cl    0.090919 0.352076 0.376245 -0.343491
Cl2   Cl    Cl    0.910878 0.633274 0.635456 -0.358683
C41   C     C_2   0.279333 0.354793 0.409751 1.042047
O13   O     O_2   0.273212 0.286370 0.439158 -0.515547
O14   O     O_R   0.319972 0.362050 0.341326 -0.726971
H3    H     H_    0.343887 0.307039 0.322892 0.344793
C42   C     C_2   0.721194 0.623095 0.615409 1.047021
O15   O     O_2   0.703813 0.693509 0.594778 -0.520844
O16   O     O_R   0.711388 0.600654 0.692258 -0.703269
H4    H     H_    0.686215 0.646923 0.724533 0.357568
C43   C     C_2   0.666595 0.062956 0.484236 0.945494
O17   O     O_2   0.723089 0.013187 0.480952 -0.509603
O18   O     O_R   0.684359 0.149617 0.482862 -0.711352
H5    H     H_    0.746410 0.163547 0.478959 0.385111
C44   C     C_2   0.331680 0.936061 0.504706 0.945540
O19   O     O_2   0.275059 0.985719 0.507720 -0.505408
O20   O     O_R   0.314126 0.849401 0.506519 -0.711455
H6    H     H_    0.252108 0.835369 0.510497 0.385225
C45   C     C_2   0.437317 0.061203 0.636169 0.940814
O21   O     O_2   0.419555 0.010875 0.684627 -0.512867
O22   O     O_R   0.426287 0.147249 0.650118 -0.721278
H7    H     H_    0.403654 0.160354 0.702727 0.377672
C46   C     C_2   0.560088 0.937023 0.352655 0.944617
O23   O     O_2   0.580468 0.986997 0.304856 -0.515989
O24   O     O_R   0.566786 0.850421 0.337636 -0.716313
H8    H     H_    0.589379 0.836714 0.285118 0.374805
C47   C     C_2   0.644792 0.547362 0.266619 1.005349
O25   O     O_2   0.644521 0.615168 0.303662 -0.563229
O26   O     O_R   0.720063 0.505120 0.263748 -0.629315
H9    H     H_    0.769546 0.536585 0.295107 0.352388
C48   C     C_2   0.466875 0.657354 0.735137 0.988075
O27   O     O_2   0.404930 0.696109 0.750475 -0.426039
O28   O     O_R   0.517927 0.686671 0.679210 -0.781468
H10   H     H_    0.498127 0.741624 0.657631 0.355918
Cl3   Cl    Cl    0.660313 0.480714 0.098977 -0.358467
Cl4   Cl    Cl    0.465407 0.676016 0.913954 -0.392217
Cl5   Cl    Cl    0.590263 0.359753 0.917487 -0.368429
Cl6   Cl    Cl    0.315919 0.472157 0.067845 -0.380845
C49   C     C_2   0.578943 0.364912 0.739232 0.966034
O29   O     O_2   0.650712 0.342812 0.756699 -0.469359
O30   O     O_R   0.526889 0.319630 0.680610 -0.759862
H11   H     H_    0.555629 0.269179 0.658191 0.349066
C50   C     C_2   0.329125 0.521601 0.243989 1.031643
O31   O     O_2   0.265911 0.475869 0.227940 -0.468276
O32   O     O_R   0.324986 0.595549 0.291071 -0.726677
H12   H     H_    0.266921 0.603128 0.309665 0.346408
Cl7   Cl    Cl    0.692542 0.381569 0.395741 -0.431051
Cl8   Cl    Cl    0.303653 0.623279 0.598538 -0.434354
Cl9   Cl    Cl    0.885891 0.372261 0.409406 -0.336397
Cl10  Cl    Cl    0.110851 0.641437 0.567916 -0.350863

loop_
_geom_bond_atom_site_label_1
_geom_bond_atom_site_label_2
_ccdc_geom_bond_type
C25   C31   S    
C14   Cl7   S    
Cu1   O5    S    
C39   O9    D    
C26   C32   S    
C48   O27   D    
C31   C46   S    
C43   O17   D    
O28   H10   S    
C13   N3    A    
O24   H8    S    
C45   O21   D    
C46   O23   D    
C27   C33   S    
C32   C45   S    
C50   O32   S    
C49   O29   D    
C23   C29   S    
Cu1   O1    S    
C19   C21   A    
C25   C43   S    
C17   N5    S    
C24   O6    A    
C12   C50   S    
C27   C39   S    
Cu1   O8    S    
C24   O8    A    
Cu2   O3    S    
C42   O16   S    
N1    N2    D    
C11   C37   A    
Cu2   O2    S    
C2    O4    A    
C33   C35   S    
C21   N3    A    
Cu2   N3    S    
C22   N4    A    
C19   Cl1   S    
C41   O14   S    
O32   H12   S    
C31   C33   S    
C47   O26   S    
C22   C42   S    
C18   C20   A    
C1    C37   S    
C25   C34   S    
C46   O24   S    
C28   C34   S    
C40   O11   D    
C9    Cl5   S    
C43   O18   S    
C42   O15   D    
C18   N6    S    
C45   O22   S    
C23   O7    A    
C44   O20   S    
C40   O12   S    
C26   C44   S    
O14   H3    S    
C6    Cl3   S    
C4    C6    A    
Cu1   Cu2   S    
C5    C7    A    
C1    O1    A    
C6    C8    A    
C2    O2    A    
Cu2   O6    S    
C3    C48   S    
C32   C34   S    
C20   Cl2   S    
O18   H5    S    
C13   Cl8   S    
C2    C38   S    
C26   C33   S    
C23   O5    A    
O22   H7    S    
C11   C49   S    
C10   Cl6   S    
C9    C11   A    
C10   C12   A    
C16   C18   A    
C4    C38   A    
C41   O13   D    
C13   C15   A    
C14   C16   A    
C20   C22   A    
O26   H9    S    
C14   N4    A    
C4    C47   S    
C49   O30   S    
C28   C40   S    
C7    C9    A    
C21   C41   S    
C27   C32   S    
C15   Cl10  S    
C28   C31   S    
C8    N2    S    
C3    C5    A    
C15   C17   A    
Cu1   N4    S    
C25   C27   S    
C50   O31   D    
C29   C35   T    
C26   C28   S    
C30   C36   T    
C39   O10   S    
O16   H4    S    
O10   H1    S    
C48   O28   S    
C17   C19   A    
C34   C36   S    
C7    N1    S    
C12   C38   A    
O12   H2    S    
C24   C30   S    
O20   H6    S    
N5    N6    D    
Cu1   O4    S    
C5    Cl4   S    
C3    C37   A    
C8    C10   A    
Cu2   O7    S    
O30   H11   S    
C44   O19   D    
C47   O25   D    
C1    O3    A    
C16   Cl9   S    
