data_mof_unit_19248.cif
_audit_creation_date              2012-12-11T17:00:24-0500
_audit_creation_method            fapswitch 2.2
_symmetry_space_group_name_H-M    P1
_symmetry_Int_Tables_number       1
_space_group_crystal_system       triclinic
_cell_length_a                    6.960382
_cell_length_b                    13.780379
_cell_length_c                    20.179438
_cell_angle_alpha                 103.277057
_cell_angle_beta                  89.191251
_cell_angle_gamma                 90.794195
_cell_volume                      1883.50997664

loop_
_atom_site_label
_atom_site_type_symbol
_atom_type_description
_atom_site_fract_x
_atom_site_fract_y
_atom_site_fract_z
_atom_type_partial_charge
O1    O     O_R   0.506770 0.599700 0.449550 -0.542323
O2    O     O_R   0.179980 0.595740 0.587960 -0.522875
O3    O     O_R   0.004580 0.400300 0.550450 -0.539076
C1    C     C_R   0.346502 0.612414 0.616689 0.718276
O4    O     O_R   0.177380 0.611700 0.452380 -0.535626
O5    O     O_R   0.001970 0.416370 0.413900 -0.534773
C2    C     C_R   0.348032 0.638059 0.435761 0.704712
O6    O     O_R   0.509390 0.583630 0.586100 -0.539855
O7    O     O_3   0.337530 0.435890 0.487530 -0.361624
V1    V     V_3+5 0.064660 0.511890 0.502310 1.539974
O8    O     O_R   0.671950 0.404260 0.412040 -0.537301
C3    C     C_R   0.841271 0.381535 0.385279 0.746161
O9    O     O_R   0.674540 0.388300 0.547620 -0.543920
C4    C     C_R   0.841379 0.365618 0.566265 0.713496
V2    V     V_3+5 0.564030 0.488110 0.497690 1.520588
O10   O     O_3   0.841030 0.564110 0.512470 -0.353502
C5    C     C_R   0.830942 0.116692 0.607518 0.010686
H1    H     H_    0.844882 0.171853 0.515913 0.182560
C6    C     C_R   0.843873 0.290405 0.605247 -0.072268
C7    C     C_R   0.872364 0.314875 0.931780 -0.172294
C8    C     C_R   0.859308 0.391661 0.897885 -0.103160
C9    C     C_R   0.843361 0.370730 0.827227 -0.138280
C10   C     C_R   0.842159 0.271212 0.788216 0.059978
C11   C     C_R   0.856254 0.192692 0.823246 0.039592
C12   C     C_R   0.835041 0.246446 0.715244 0.063704
C13   C     C_R   0.814627 0.144693 0.679851 0.027237
C14   C     C_R   0.785385 0.073460 0.718337 -0.082884
C15   C     C_R   0.850402 0.093778 0.784704 0.108375
C16   C     C_R   0.847526 0.318707 0.676128 -0.208845
C17   C     C_R   0.837806 0.190974 0.571130 -0.122204
C18   C     C_R   0.869058 0.215388 0.895552 -0.066637
H2    H     H_    0.860450 0.397342 0.698889 0.086283
H3    H     H_    0.881940 0.333117 0.986828 0.119642
H4    H     H_    0.829750 0.434074 0.804799 0.103276
H5    H     H_    0.859792 0.468326 0.926733 0.121593
C19   C     C_R   0.736629 0.263526 0.200046 0.129035
C20   C     C_R   0.866592 0.184949 0.183533 -0.160820
C21   C     C_R   0.002096 0.176583 0.233198 -0.174707
H6    H     H_    0.107179 0.117606 0.221921 0.157962
C22   C     C_R   0.993210 0.238356 0.299547 0.274558
C23   C     C_R   0.853073 0.314032 0.316628 -0.140859
C24   C     C_R   0.731560 0.327091 0.264551 0.040078
C25   C     C_3   0.517846 0.335607 0.263707 -0.388281
C26   C     C_3   0.522940 0.264338 0.193542 -0.169443
H7    H     H_    0.472603 0.412792 0.263903 0.168144
H8    H     H_    0.446510 0.303002 0.303139 0.221663
H9    H     H_    0.454874 0.190542 0.192743 0.128964
C27   C     C_R   0.508053 0.735974 0.709195 0.145415
C28   C     C_R   0.349234 0.676349 0.686518 -0.117968
C29   C     C_R   0.193593 0.679394 0.732629 -0.121149
H10   H     H_    0.071841 0.629836 0.718573 0.132016
C30   C     C_R   0.196798 0.744167 0.798118 -0.092912
H11   H     H_    0.076600 0.744449 0.832620 0.134633
C31   C     C_R   0.359018 0.804354 0.820068 -0.051066
C32   C     C_R   0.515043 0.795485 0.774998 0.030234
C33   C     C_3   0.714972 0.763132 0.783505 -0.471437
C34   C     C_3   0.709363 0.703395 0.710328 0.083396
H12   H     H_    0.722455 0.715619 0.821115 0.160336
H13   H     H_    0.817702 0.825760 0.792092 0.241220
H14   H     H_    0.722941 0.621580 0.704785 0.086060
C35   C     C_R   0.475313 0.878248 0.387478 -0.045550
H15   H     H_    0.471975 0.827797 0.480392 0.160817
H16   H     H_    0.531492 0.950358 0.413233 0.207576
C36   C     C_R   0.365455 0.714780 0.396341 -0.051488
C37   C     C_R   0.284510 0.686038 0.069346 -0.004555
C38   C     C_R   0.248717 0.615257 0.107657 -0.167539
C39   C     C_R   0.275274 0.637755 0.177633 -0.107147
C40   C     C_R   0.340697 0.732996 0.212797 0.077529
C41   C     C_R   0.380247 0.805748 0.174234 -0.017150
C42   C     C_R   0.368470 0.758024 0.284928 0.041597
C43   C     C_R   0.442279 0.854261 0.316788 0.052113
C44   C     C_R   0.483755 0.924177 0.277415 0.282181
C45   C     C_R   0.450029 0.900382 0.207805 -0.228634
C46   C     C_R   0.328004 0.689981 0.326584 -0.190335
C47   C     C_R   0.439812 0.808657 0.426526 -0.132551
C48   C     C_R   0.348720 0.782827 0.102679 -0.082652
H17   H     H_    0.272361 0.615928 0.306481 0.090311
H18   H     H_    0.244666 0.577783 0.202311 0.120913
H19   H     H_    0.199859 0.540819 0.083028 0.126984
H20   H     H_    0.482802 0.957143 0.180030 0.138464
O11   O     O_R   0.203450 0.916320 0.913910 -0.514266
O12   O     O_R   0.535520 0.888300 0.047620 -0.542381
O13   O     O_R   0.710860 0.083650 0.086100 -0.549883
C49   C     C_R   0.365043 0.862024 0.064428 0.759319
O14   O     O_R   0.532860 0.904250 0.912040 -0.540828
O15   O     O_R   0.708190 0.099710 0.949550 -0.539949
C50   C     C_R   0.364480 0.878135 0.886538 0.822475
O16   O     O_R   0.206120 0.900260 0.050460 -0.542297
O17   O     O_3   0.375280 0.064080 0.012470 -0.390356
V3    V     V_3+5 0.648180 0.988110 0.997690 1.480986
O18   O     O_R   0.038220 0.111740 0.952370 -0.525765
C51   C     C_R   0.871162 0.137705 0.935125 0.760518
O19   O     O_R   0.040880 0.095790 0.087940 -0.558021
C52   C     C_R   0.872056 0.116633 0.115323 0.696013
V4    V     V_3+5 0.148800 0.011950 0.002300 1.482838
O20   O     O_3   0.871820 0.935920 0.987530 -0.364324
Br1   Br    Br    0.153200 0.204912 0.367584 -0.488443
C53   C     C_2   0.457954 0.309952 0.136723 0.373683
H21   H     H_    0.338396 0.276254 0.105399 0.052160
O21   O     O_2   0.535499 0.384985 0.125901 -0.534833
C54   C     C_2   0.656534 0.986505 0.696355 0.422629
H22   H     H_    0.657233 0.928890 0.723896 0.116265
O22   O     O_2   0.540294 0.981923 0.650924 -0.515965
Br2   Br    Br    0.861098 0.759319 0.646215 -0.534630
Br3   Br    Br    0.592752 0.053947 0.314988 -0.522681
C55   C     C_2   0.253659 0.653952 0.994683 0.317231
H23   H     H_    0.176805 0.584731 0.974030 0.054406
O23   O     O_2   0.317497 0.701572 0.955147 -0.561475
C56   C     C_2   0.865784 0.012153 0.569592 0.481665
H24   H     H_    0.913389 0.956928 0.596108 0.103700
O24   O     O_2   0.845379 0.986896 0.507978 -0.518205
Br4   Br    Br    0.017135 0.995062 0.803342 -0.584227

loop_
_geom_bond_atom_site_label_1
_geom_bond_atom_site_label_2
_ccdc_geom_bond_type
C27   C32   A    
C32   C33   S    
C18   C51   S    
O19   C52   A    
C23   C24   A    
C19   C24   A    
V4    O20   S    
C1    O6    A    
C48   C49   S    
C27   C34   S    
C35   C47   A    
C38   H19   S    
C13   C14   A    
C20   C21   A    
C37   C48   A    
C5    C13   A    
C19   C20   A    
C16   H2    S    
C56   O24   D    
O5    C3    A    
C31   C50   S    
O11   V4    S    
C55   H23   S    
V2    O10   S    
C33   C34   S    
C41   C48   A    
C35   H16   S    
C26   C53   S    
C45   H20   S    
C40   C41   A    
C46   H17   S    
C42   C46   A    
C29   C30   A    
C10   C11   A    
C41   C45   A    
C42   C43   A    
H1    C17   S    
O7    V1    S    
C26   H9    S    
C35   C43   A    
C10   C12   A    
C38   C39   A    
O16   V4    S    
O19   V4    S    
C8    C9    A    
C5    C17   A    
C39   H18   S    
O8    V2    S    
C30   C31   A    
O14   C50   A    
C12   C16   A    
C9    H4    S    
C39   C40   A    
C54   H22   S    
C49   O16   A    
C34   Br2   S    
O15   V3    S    
C22   Br1   S    
O4    C2    A    
C34   H14   S    
C12   C13   A    
O13   C52   A    
C14   C54   S    
C15   Br4   S    
O17   V4    S    
O2    C1    A    
C25   C26   S    
C3    C23   S    
O14   V3    S    
C29   H10   S    
C7    C8    A    
C25   H7    S    
O11   C50   A    
O3    C4    A    
O1    V2    S    
C7    H3    S    
C40   C42   A    
C27   C28   A    
C28   C29   A    
O6    V2    S    
C53   O21   D    
O9    V2    S    
H15   C47   S    
C19   C26   S    
C24   C25   S    
C6    C16   A    
C37   C55   S    
O18   C51   A    
C30   H11   S    
O13   V3    S    
C31   C32   A    
C22   C23   A    
O1    C2    A    
C4    C6    S    
C11   C15   A    
C44   C45   A    
C5    C56   S    
O5    V1    S    
O8    C3    A    
V3    O20   S    
C8    H5    S    
O12   C49   A    
O12   V3    S    
C33   H13   S    
C1    C28   S    
O7    V2    S    
C11   C18   A    
O4    V1    S    
O3    V1    S    
V1    O10   S    
C56   H24   S    
C21   C22   A    
C21   H6    S    
C55   O23   D    
C36   C47   A    
C33   H12   S    
C20   C52   S    
C37   C38   A    
C25   H8    S    
C2    C36   S    
O18   V4    S    
C43   C44   A    
C44   Br3   S    
C54   O22   D    
C53   H21   S    
C14   C15   A    
C36   C46   A    
C9    C10   A    
O15   C51   A    
O17   V3    S    
O9    C4    A    
C6    C17   A    
C7    C18   A    
O2    V1    S    
