data_mof_unit_53659.cif
_audit_creation_date              2013-03-05T15:53:19-0500
_audit_creation_method            fapswitch 2.2
_symmetry_space_group_name_H-M    P1
_symmetry_Int_Tables_number       1
_space_group_crystal_system       triclinic
_cell_length_a                    27.312471
_cell_length_b                    7.196978
_cell_length_c                    22.634179
_cell_angle_alpha                 90.000052
_cell_angle_beta                  100.802541
_cell_angle_gamma                 90.000074
_cell_volume                      4370.29493796

loop_
_atom_site_label
_atom_site_type_symbol
_atom_site_description
_atom_site_fract_x
_atom_site_fract_y
_atom_site_fract_z
_atom_type_partial_charge
O1    O     O_R   0.207310 0.594030 0.676830 -0.584918
O2    O     O_R   0.792690 0.405970 0.323170 -0.584918
O3    O     O_R   0.292690 0.094030 0.823170 -0.584921
O4    O     O_R   0.707310 0.905970 0.176830 -0.584920
O5    O     O_R   0.197320 0.262370 0.795700 -0.565543
O6    O     O_R   0.802680 0.737630 0.204300 -0.565543
O7    O     O_R   0.302680 0.762370 0.704300 -0.565546
O8    O     O_R   0.697320 0.237630 0.295700 -0.565546
C1    C     C_R   0.183985 0.432452 0.810885 0.964485
C2    C     C_R   0.816015 0.567548 0.189115 0.964484
C3    C     C_R   0.316014 0.932452 0.689115 0.964488
C4    C     C_R   0.683985 0.067548 0.310885 0.964489
O9    O     O_R   0.201410 0.264250 0.675590 -0.574824
O10   O     O_R   0.798590 0.735750 0.324410 -0.574824
O11   O     O_R   0.298590 0.764250 0.824410 -0.574822
O12   O     O_R   0.701410 0.235750 0.175590 -0.574821
O13   O     O_R   0.296810 0.094940 0.702210 -0.583311
O14   O     O_R   0.703190 0.905060 0.297790 -0.583312
O15   O     O_R   0.203190 0.594940 0.797790 -0.583313
O16   O     O_R   0.796810 0.405060 0.202210 -0.583313
C5    C     C_R   0.189300 0.432870 0.653960 0.957750
C6    C     C_R   0.810700 0.567130 0.346040 0.957750
C7    C     C_R   0.310700 0.932870 0.846040 0.957758
C8    C     C_R   0.689300 0.067130 0.153960 0.957757
O17   O     O_3   0.281300 0.427390 0.758870 -0.257952
O18   O     O_3   0.718700 0.572610 0.241130 -0.257952
O19   O     O_3   0.218700 0.927390 0.741130 -0.257951
O20   O     O_3   0.781300 0.072610 0.258870 -0.257951
V1    V     V_3+5 0.244190 0.152150 0.748350 1.251818
V2    V     V_3+5 0.755810 0.847850 0.251650 1.251818
V3    V     V_3+5 0.255810 0.652150 0.751650 1.251818
V4    V     V_3+5 0.744190 0.347850 0.248350 1.251818
C9    C     C_R   0.653259 0.060398 0.096539 -0.149763
C10   C     C_R   0.346741 0.939602 0.903461 -0.149762
C11   C     C_R   0.846741 0.560398 0.403461 -0.149759
C12   C     C_R   0.153259 0.439602 0.596539 -0.149760
C13   C     C_R   0.639256 0.094501 0.988520 -0.155447
C14   C     C_R   0.360744 0.905499 0.011480 -0.155447
C15   C     C_R   0.860743 0.594481 0.511480 -0.155447
C16   C     C_R   0.139257 0.405519 0.488520 -0.155447
C17   C     C_R   0.670304 0.110431 0.044343 -0.201649
C18   C     C_R   0.329696 0.889569 0.955657 -0.201649
C19   C     C_R   0.829695 0.610418 0.455657 -0.201650
C20   C     C_R   0.170305 0.389582 0.544342 -0.201650
C21   C     C_R   0.602899 0.005171 0.093098 0.112010
C22   C     C_R   0.397101 0.994828 0.906902 0.112010
C23   C     C_R   0.897101 0.505179 0.406901 0.112000
C24   C     C_R   0.102898 0.494821 0.593099 0.111999
C25   C     C_R   0.568482 0.021297 0.036834 0.026379
C26   C     C_R   0.431517 0.978703 0.963166 0.026378
C27   C     C_R   0.931517 0.521297 0.463165 0.026382
C28   C     C_R   0.068483 0.478703 0.536835 0.026382
C29   C     C_R   0.589020 0.047003 0.984239 0.153935
C30   C     C_R   0.410980 0.952997 0.015761 0.153935
C31   C     C_R   0.910980 0.546989 0.515761 0.153935
C32   C     C_R   0.089020 0.453011 0.484239 0.153935
C33   C     C_R   0.515090 0.008770 0.029484 0.067434
C34   C     C_R   0.484910 0.991230 0.970516 0.067434
C35   C     C_R   0.984910 0.508775 0.470516 0.067434
C36   C     C_R   0.015090 0.491225 0.529484 0.067434
C37   C     C_R   0.509469 0.975245 0.921549 -0.133286
C38   C     C_R   0.490531 0.024755 0.078451 -0.133286
C39   C     C_R   0.990530 0.475227 0.578450 -0.133289
C40   C     C_R   0.009470 0.524773 0.421550 -0.133289
C41   C     C_R   0.559799 0.016401 0.927566 -0.202224
C42   C     C_R   0.440201 0.983599 0.072434 -0.202224
C43   C     C_R   0.940200 0.516378 0.572433 -0.202223
C44   C     C_R   0.059800 0.483622 0.427567 -0.202224
H1    H     H_    0.576420 0.017500 0.887668 0.144250
H2    H     H_    0.423580 0.982500 0.112332 0.144250
H3    H     H_    0.923579 0.517466 0.612331 0.144249
H4    H     H_    0.076421 0.482534 0.387669 0.144249
H5    H     H_    0.291214 0.848440 0.953419 0.116214
H6    H     H_    0.708786 0.151560 0.046581 0.116214
H7    H     H_    0.208787 0.348459 0.546580 0.116214
H8    H     H_    0.791213 0.651541 0.453420 0.116214
H9    H     H_    0.654549 0.120365 0.948421 0.125534
H10   H     H_    0.345451 0.879635 0.051579 0.125534
H11   H     H_    0.845450 0.620335 0.551580 0.125534
H12   H     H_    0.154550 0.379665 0.448420 0.125534
H13   H     H_    0.490400 0.928471 0.878131 0.178710
H14   H     H_    0.509600 0.071529 0.121869 0.178710
H15   H     H_    0.009600 0.428445 0.621867 0.178707
H16   H     H_    0.990400 0.571554 0.378132 0.178707
C45   C     C_R   0.644625 0.907128 0.388091 -0.117784
C46   C     C_R   0.355375 0.092872 0.611909 -0.117783
C47   C     C_R   0.855381 0.407110 0.111918 -0.117741
C48   C     C_R   0.144619 0.592890 0.888082 -0.117740
H17   H     H_    0.673013 0.800513 0.391458 0.140204
H18   H     H_    0.326987 0.199487 0.608542 0.140203
H19   H     H_    0.826997 0.300481 0.108556 0.140220
H20   H     H_    0.173003 0.699519 0.891444 0.140220
C49   C     C_R   0.609342 0.893604 0.425395 -0.095311
C50   C     C_R   0.390657 0.106396 0.574605 -0.095312
C51   C     C_R   0.890664 0.393584 0.074614 -0.095295
C52   C     C_R   0.109336 0.606416 0.925386 -0.095295
H21   H     H_    0.611329 0.776106 0.455626 0.125578
H22   H     H_    0.388671 0.223894 0.544374 0.125578
H23   H     H_    0.888682 0.276071 0.044389 0.125582
H24   H     H_    0.111318 0.723929 0.955611 0.125582
C53   C     C_R   0.572333 0.029770 0.424031 0.059589
C54   C     C_R   0.427667 0.970230 0.575969 0.059589
C55   C     C_R   0.927667 0.529769 0.075969 0.059577
C56   C     C_R   0.072332 0.470231 0.924031 0.059578
C57   C     C_R   0.571334 0.179346 0.383788 -0.244418
C58   C     C_R   0.428666 0.820654 0.616212 -0.244419
C59   C     C_R   0.928661 0.679364 0.116204 -0.244425
C60   C     C_R   0.071339 0.320636 0.883796 -0.244425
H25   H     H_    0.542521 0.284042 0.381092 0.168860
H26   H     H_    0.457479 0.715958 0.618908 0.168860
H27   H     H_    0.957470 0.784073 0.118894 0.168862
H28   H     H_    0.042530 0.215926 0.881106 0.168862
C61   C     C_R   0.606079 0.193055 0.345089 0.356243
C62   C     C_R   0.393921 0.806945 0.654911 0.356243
C63   C     C_R   0.893917 0.693072 0.154904 0.356243
C64   C     C_R   0.106083 0.306928 0.845096 0.356242
C65   C     C_R   0.644074 0.056638 0.347832 -0.279685
C66   C     C_R   0.355926 0.943362 0.652168 -0.279685
C67   C     C_R   0.855926 0.556638 0.152169 -0.279708
C68   C     C_R   0.144074 0.443362 0.847831 -0.279708
N1    N     N_R   0.498868 0.146507 0.462947 -0.072949
N2    N     N_R   0.501131 0.853492 0.537053 -0.072949
N3    N     N_R   0.001105 0.646592 0.037015 -0.072951
N4    N     N_R   0.998895 0.353408 0.962985 -0.072951
N5    N     N_R   0.465091 0.132414 0.498339 -0.076449
N6    N     N_R   0.534909 0.867586 0.501661 -0.076449
N7    N     N_R   0.034882 0.632499 0.001623 -0.076439
N8    N     N_R   0.965117 0.367501 0.998377 -0.076439
C69   C     C_R   0.465409 0.985562 0.536227 0.138460
C70   C     C_R   0.534591 0.014438 0.463773 0.138460
C71   C     C_R   0.034591 0.485563 0.963773 0.138456
C72   C     C_R   0.965409 0.514437 0.036227 0.138455
I1    I     I_    0.412802 0.153019 0.831858 -0.265764
I2    I     I_    0.587198 0.846981 0.168142 -0.265763
I3    I     I_    0.087196 0.652992 0.668146 -0.265778
I4    I     I_    0.912804 0.347008 0.331854 -0.265777
N9    N     N_R   0.600531 0.340985 0.301712 0.241934
O21   O     O_R   0.586797 0.505346 0.316195 -0.391526
O22   O     O_R   0.600786 0.304705 0.245443 -0.376591
N10   N     N_R   0.399468 0.659015 0.698288 0.241934
O23   O     O_R   0.413204 0.494654 0.683805 -0.391526
O24   O     O_R   0.399214 0.695295 0.754557 -0.376592
N11   N     N_R   0.899461 0.841017 0.198275 0.241935
O25   O     O_R   0.913189 0.005380 0.183785 -0.391548
O26   O     O_R   0.899212 0.804752 0.254547 -0.376574
N12   N     N_R   0.100539 0.158983 0.801725 0.241935
O27   O     O_R   0.086810 0.994620 0.816215 -0.391548
O28   O     O_R   0.100788 0.195248 0.745453 -0.376574

loop_
_geom_bond_atom_site_label_1
_geom_bond_atom_site_label_2
_geom_bond_distance
_ccdc_geom_bond_type
O17   V3    1.756519 S    
C48   C52   1.398578 A    
O1    C5    1.326556 A    
C47   H19   1.083315 S    
C23   I4    2.153650 S    
O19   V1    1.756517 S    
C9    C21   1.419787 A    
C24   I3    2.153650 S    
O3    C7    1.326555 A    
C10   C18   1.395808 A    
C54   C69   1.493814 S    
N1    C70   1.359750 A    
C11   C23   1.419789 A    
C25   C33   1.439244 A    
C33   C38   1.403664 A    
C5    C12   1.476791 S    
O7    C3    1.340168 A    
C6    C11   1.476791 S    
N9    O22   1.301400 A    
C21   I2    2.153648 S    
C26   C30   1.419982 A    
C58   C62   1.410357 A    
C36   C39   1.403669 A    
C40   C44   1.387706 A    
C57   C61   1.410359 A    
N10   O24   1.301398 A    
C14   C18   1.388187 A    
C58   H26   1.082948 S    
O4    C8    1.326556 A    
C51   H23   1.082741 S    
C43   H3    1.084131 S    
C50   H22   1.082740 S    
N11   O25   1.301367 A    
O1    V3    1.989140 S    
O13   V1    1.971872 S    
C31   C43   1.395388 A    
O2    V4    1.989144 S    
O3    V1    1.989146 S    
C40   H16   1.076328 S    
C2    C67   1.495153 S    
C46   C50   1.398580 A    
C17   H6    1.083933 S    
C45   C49   1.398578 A    
C1    O15   1.337460 A    
C15   C31   1.399646 A    
C48   H20   1.083315 S    
C2    O16   1.337461 A    
C16   C32   1.399646 A    
C56   C71   1.493813 S    
C47   C51   1.398578 A    
O2    C6    1.326555 A    
C16   H12   1.083955 S    
C54   C58   1.407100 A    
C10   C22   1.419787 A    
C62   N10   1.436871 S    
C48   C68   1.408279 A    
C11   C19   1.395807 A    
C55   C72   1.493811 S    
N2    C69   1.359750 A    
O5    V1    1.982643 S    
C44   H4    1.084131 S    
N4    N8    1.334215 A    
C13   C29   1.399646 A    
C53   C70   1.493814 S    
C34   C37   1.403664 A    
O11   C7    1.327062 A    
C38   H14   1.076330 S    
O15   V3    1.971877 S    
C35   C36   1.436802 A    
O12   C8    1.327064 A    
O10   V2    2.001744 S    
N8    C72   1.360057 A    
C51   C55   1.404058 A    
N12   O28   1.301401 A    
C53   C57   1.407100 A    
C63   N11   1.436869 S    
O7    V3    1.982643 S    
C38   C42   1.387708 A    
C26   C34   1.439244 A    
N10   O23   1.301369 A    
C46   H18   1.083315 S    
C49   C53   1.404059 A    
C45   H17   1.083313 S    
O18   V4    1.756518 S    
C15   C19   1.388188 A    
C14   H10   1.083956 S    
C32   C44   1.395388 A    
C13   H9    1.083956 S    
C64   C68   1.421464 A    
N4    C71   1.359762 A    
C39   H15   1.076328 S    
O8    V4    1.982643 S    
N2    N6    1.334216 A    
C20   H7    1.083931 S    
C39   C43   1.387706 A    
C47   C67   1.408279 A    
N5    C69   1.360042 A    
N3    N7    1.334215 A    
C14   C30   1.399646 A    
C21   C25   1.438781 A    
O8    C4    1.340169 A    
C7    C10   1.476795 S    
C35   C40   1.403669 A    
O9    C5    1.327064 A    
C46   C66   1.408276 A    
C45   C65   1.408276 A    
C59   C63   1.410360 A    
C62   C66   1.421465 A    
C61   C65   1.421463 A    
O6    V2    1.982644 S    
C16   C20   1.388188 A    
N1    N5    1.334216 A    
C63   C67   1.421464 A    
C52   C56   1.404059 A    
O14   V2    1.971877 S    
C61   N9    1.436870 S    
C12   C20   1.395807 A    
C27   C35   1.439244 A    
C49   H21   1.082742 S    
C56   C60   1.407099 A    
C29   C41   1.395387 A    
N12   O27   1.301367 A    
O16   V4    1.971874 S    
O9    V1    2.001743 S    
C19   H8    1.083931 S    
N11   O26   1.301401 A    
C57   H25   1.082949 S    
C3    O13   1.337461 A    
C18   H5    1.083933 S    
C59   H27   1.082948 S    
O5    C1    1.340169 A    
N3    C72   1.359762 A    
O6    C2    1.340168 A    
C23   C27   1.438779 A    
O11   V3    2.001743 S    
C30   C42   1.395387 A    
O12   V4    2.001740 S    
N9    O21   1.301368 A    
C22   C26   1.438781 A    
C8    C9    1.476795 S    
C9    C17   1.395808 A    
O10   C6    1.327065 A    
O20   V2    1.756516 S    
C37   H13   1.076330 S    
C22   I1    2.153648 S    
C64   N12   1.436869 S    
C60   C64   1.410360 A    
C33   C34   1.436802 A    
C42   H2    1.084129 S    
C41   H1    1.084129 S    
C52   H24   1.082741 S    
C12   C24   1.419789 A    
C27   C31   1.419982 A    
C37   C41   1.387708 A    
C13   C17   1.388187 A    
N7    C71   1.360056 A    
C25   C29   1.419982 A    
C4    C65   1.495149 S    
C60   H28   1.082948 S    
C24   C28   1.438779 A    
C50   C54   1.404059 A    
C28   C36   1.439244 A    
C4    O14   1.337459 A    
C1    C68   1.495153 S    
N6    C70   1.360041 A    
C55   C59   1.407099 A    
C3    C66   1.495149 S    
O4    V2    1.989141 S    
C28   C32   1.419982 A    
C15   H11   1.083955 S    
