data_mof_unit_37733.cif
_audit_creation_date              2012-12-11T16:04:11-0500
_audit_creation_method            fapswitch 2.2
_symmetry_space_group_name_H-M    P1
_symmetry_Int_Tables_number       1
_space_group_crystal_system       triclinic
_cell_length_a                    23.253852
_cell_length_b                    7.261126
_cell_length_c                    21.268925
_cell_angle_alpha                 90.131358
_cell_angle_beta                  102.488907
_cell_angle_gamma                 89.84781
_cell_volume                      3506.24579451

loop_
_atom_site_label
_atom_site_type_symbol
_atom_type_description
_atom_site_fract_x
_atom_site_fract_y
_atom_site_fract_z
_atom_type_partial_charge
O1    O     O_R   0.684260 0.291960 0.186200 -0.542358
O2    O     O_R   0.315740 0.708040 0.813800 -0.517858
O3    O     O_R   0.815740 0.791960 0.313800 -0.540692
O4    O     O_R   0.184260 0.208040 0.686200 -0.544622
O5    O     O_R   0.803220 0.618620 0.189870 -0.502883
O6    O     O_R   0.196780 0.381380 0.810130 -0.512837
O7    O     O_R   0.696780 0.118620 0.310130 -0.511398
O8    O     O_R   0.303220 0.881380 0.689870 -0.506654
C1    C     C_R   0.819541 0.453161 0.175131 0.761170
C2    C     C_R   0.180479 0.546830 0.824900 0.775988
C3    C     C_R   0.679932 0.953689 0.324394 0.785785
C4    C     C_R   0.321812 0.045930 0.677670 0.804707
O9    O     O_R   0.683940 0.621480 0.178600 -0.521158
O10   O     O_R   0.316060 0.378520 0.821400 -0.531590
O11   O     O_R   0.816060 0.121480 0.321400 -0.539057
O12   O     O_R   0.183940 0.878520 0.678600 -0.547571
O13   O     O_R   0.695610 0.794820 0.302450 -0.541267
O14   O     O_R   0.304390 0.205180 0.697550 -0.535825
O15   O     O_R   0.804390 0.294820 0.197550 -0.539815
O16   O     O_R   0.195610 0.705180 0.802450 -0.538823
C5    C     C_R   0.662972 0.453492 0.161316 0.720328
C6    C     C_R   0.336981 0.546492 0.838731 0.791646
C7    C     C_R   0.837003 0.953426 0.338722 0.725880
C8    C     C_R   0.162996 0.046579 0.661273 0.677255
O17   O     O_3   0.753970 0.459420 0.290650 -0.369684
O18   O     O_3   0.246030 0.540580 0.709350 -0.382808
O19   O     O_3   0.746030 0.959420 0.209350 -0.356455
O20   O     O_3   0.253970 0.040580 0.790650 -0.358509
V1    V     V_3+5 0.749260 0.733100 0.242460 1.629898
V2    V     V_3+5 0.250740 0.266900 0.757540 1.610675
V3    V     V_3+5 0.750740 0.233100 0.257540 1.587810
V4    V     V_3+5 0.249260 0.766900 0.742460 1.611204
C9    C     C_1   0.111164 0.053712 0.608777 -0.135437
C10   C     C_1   0.888725 0.946338 0.391337 -0.127112
C11   C     C_1   0.388659 0.553395 0.891384 -0.133842
C12   C     C_1   0.611239 0.446484 0.108712 -0.110145
C13   C     C_2   0.016029 0.074118 0.512024 -0.113475
C14   C     C_2   0.983696 0.926070 0.488280 -0.111190
C15   C     C_2   0.483614 0.573900 0.988306 -0.100022
C16   C     C_2   0.516305 0.426030 0.011740 -0.107445
C17   C     C_1   0.931990 0.939842 0.435368 0.045596
C18   C     C_1   0.067808 0.060287 0.564851 0.041037
C19   C     C_1   0.567978 0.439929 0.064680 0.055305
C20   C     C_1   0.431924 0.559961 0.935400 0.043510
H1    H     H_    0.995981 0.790883 0.508635 0.141653
H2    H     H_    0.003746 0.209300 0.491660 0.142770
H3    H     H_    0.504361 0.290904 0.991078 0.147075
H4    H     H_    0.495554 0.709034 0.008959 0.147845
C21   C     C_R   0.363744 0.051752 0.634243 -0.237053
C22   C     C_R   0.636377 0.947508 0.366018 -0.207155
C23   C     C_R   0.138021 0.552576 0.867700 -0.213259
C24   C     C_R   0.861992 0.447221 0.132344 -0.229601
C25   C     C_R   0.410306 0.922723 0.638279 0.470094
C26   C     C_R   0.637810 0.070156 0.418379 0.453428
C27   C     C_R   0.139762 0.423966 0.918178 0.449636
C28   C     C_R   0.860099 0.575006 0.081599 0.392441
C29   C     C_R   0.446180 0.929995 0.593198 -0.184262
C30   C     C_R   0.592763 0.063051 0.452747 -0.250608
C31   C     C_R   0.093274 0.418634 0.950238 -0.164217
C32   C     C_R   0.906359 0.579228 0.049189 -0.195635
C33   C     C_R   0.437759 0.064364 0.544694 -0.062346
C34   C     C_R   0.546356 0.936411 0.436861 -0.044217
C35   C     C_R   0.046079 0.543477 0.935730 -0.048283
C36   C     C_R   0.953567 0.454439 0.063779 -0.050805
C37   C     C_R   0.391801 0.194239 0.541262 0.501959
C38   C     C_R   0.545157 0.813761 0.384909 0.444777
C39   C     C_R   0.045868 0.678018 0.887680 0.427232
C40   C     C_R   0.954064 0.321266 0.112340 0.442203
C41   C     C_R   0.355709 0.186974 0.586132 -0.245201
C42   C     C_R   0.590302 0.819643 0.350741 -0.268027
C43   C     C_R   0.091657 0.680546 0.854270 -0.257524
C44   C     C_R   0.908397 0.319442 0.145922 -0.227706
C45   C     C_2   0.479968 0.075632 0.501344 -0.053732
C46   C     C_2   0.502162 0.925345 0.477815 -0.043104
C47   C     C_2   0.996180 0.526317 0.968793 -0.056255
C48   C     C_2   0.003322 0.470706 0.030457 -0.057356
H5    H     H_    0.588863 0.725857 0.310742 0.182662
H6    H     H_    0.320235 0.285843 0.582952 0.195958
H7    H     H_    0.910021 0.221542 0.184610 0.187950
H8    H     H_    0.090109 0.779037 0.815771 0.187056
H9    H     H_    0.486936 0.790231 0.488076 0.221500
H10   H     H_    0.492580 0.210942 0.487871 0.211597
H11   H     H_    0.047126 0.438331 0.057788 0.207648
H12   H     H_    0.952407 0.558843 0.941376 0.200477
H13   H     H_    0.594645 0.154215 0.493481 0.194602
H14   H     H_    0.482413 0.833740 0.597271 0.197245
H15   H     H_    0.906071 0.684712 0.013282 0.199052
H16   H     H_    0.093378 0.312306 0.985813 0.216532
S1    S     S_3+6 0.428218 0.759451 0.701429 0.031205
O21   O     O_2   0.385897 0.600862 0.688034 -0.326717
O22   O     O_2   0.489800 0.687984 0.706411 -0.308726
O23   O     O_3   0.423584 0.859721 0.771536 -0.517008
H17   H     H_    0.445488 0.776794 0.805327 0.356376
S2    S     S_3+6 0.696090 0.228114 0.444888 0.031982
O24   O     O_2   0.686549 0.394281 0.401820 -0.337966
O25   O     O_2   0.697538 0.288075 0.512919 -0.294628
O26   O     O_3   0.760880 0.128833 0.441957 -0.509323
H18   H     H_    0.790081 0.229830 0.450889 0.361452
S3    S     S_3+6 0.199271 0.269362 0.944294 0.065256
O27   O     O_2   0.201450 0.210488 0.012501 -0.272170
O28   O     O_2   0.190581 0.102134 0.901526 -0.320648
O29   O     O_3   0.263283 0.371744 0.940840 -0.513363
H19   H     H_    0.293326 0.273015 0.950928 0.361600
S4    S     S_3+6 0.800648 0.730001 0.055522 0.066427
O30   O     O_2   0.809802 0.897820 0.097954 -0.300789
O31   O     O_2   0.798025 0.788723 0.987214 -0.282271
O32   O     O_3   0.736319 0.630958 0.059708 -0.493083
H20   H     H_    0.734745 0.516479 0.033981 0.330124
S5    S     S_3+6 0.377361 0.365399 0.480849 0.093027
O33   O     O_2   0.316481 0.443389 0.475051 -0.300339
O34   O     O_2   0.421679 0.516813 0.499077 -0.311714
O35   O     O_3   0.383163 0.274609 0.409650 -0.442527
H21   H     H_    0.374152 0.377637 0.378616 0.431880
S6    S     S_3+6 0.487875 0.651860 0.360371 0.080869
O36   O     O_2   0.429809 0.731843 0.367046 -0.249124
O37   O     O_2   0.483581 0.596194 0.291382 -0.306136
O38   O     O_3   0.502809 0.464674 0.407252 -0.475658
H22   H     H_    0.541146 0.419189 0.400297 0.337681
S7    S     S_3+6 0.988486 0.842562 0.866940 0.059334
O39   O     O_2   0.976176 0.928577 0.926962 -0.293193
O40   O     O_2   0.005009 0.991592 0.825202 -0.314197
O41   O     O_3   0.927095 0.737042 0.826961 -0.454056
H23   H     H_    0.938663 0.676890 0.789699 0.346279
S8    S     S_3+6 0.011348 0.156472 0.132947 0.074193
O42   O     O_2   0.066668 0.251703 0.167027 -0.257757
O43   O     O_2   0.995714 0.011347 0.176717 -0.317682
O44   O     O_3   0.023786 0.055490 0.065935 -0.455339
H24   H     H_    0.991926 0.963401 0.053989 0.372419

loop_
_geom_bond_atom_site_label_1
_geom_bond_atom_site_label_2
_ccdc_geom_bond_type
O17   V3    S    
C16   H3    S    
C30   C34   A    
C27   C31   A    
O19   V1    S    
O13   V1    S    
C45   C46   D    
O3    C7    A    
O15   V3    S    
C40   S8    S    
S4    O31   D    
C4    C21   S    
C5    C12   S    
O1    C5    A    
C6    C11   S    
C1    C24   S    
C22   C26   A    
C9    C18   T    
C36   C40   A    
O9    V1    S    
C44   H7    S    
S5    O34   D    
O16   V4    S    
O4    C8    A    
C21   C25   A    
C47   H12   S    
O1    V3    S    
C29   H14   S    
O2    V4    S    
C13   C18   S    
O3    V1    S    
C31   H16   S    
C43   H8    S    
C14   H1    S    
C1    O15   A    
C16   C19   S    
C2    O16   A    
O2    C6    A    
O32   H20   S    
O14   V2    S    
S1    O22   D    
C39   C43   A    
O8    C4    A    
O11   C7    A    
O12   C8    A    
C21   C41   A    
C42   H5    S    
O35   H21   S    
C41   H6    S    
S2    O24   D    
C10   C17   T    
C23   C43   A    
O10   V2    S    
C2    C23   S    
C48   H11   S    
S4    O30   D    
C32   H15   S    
O26   H18   S    
O5    V1    S    
S7    O40   D    
C35   C39   A    
O7    V3    S    
C34   C38   A    
O8    V4    S    
C28   S4    S    
C14   C17   S    
S5    O35   S    
C15   C16   D    
C25   C29   A    
O18   V4    S    
S2    O26   S    
C33   C45   S    
O11   V3    S    
C28   C32   A    
O7    C3    A    
C47   C48   D    
O5    C1    A    
C13   C14   D    
C24   C44   A    
S3    O27   D    
C40   C44   A    
C7    C10   S    
C36   C48   S    
O9    C5    A    
S1    O23   S    
S2    O25   D    
C11   C20   T    
C37   S5    S    
S8    O44   S    
O6    V2    S    
C25   S1    S    
C46   H9    S    
C4    O14   A    
O44   H24   S    
S1    O21   D    
C30   H13   S    
C45   H10   S    
S8    O43   D    
C26   C30   A    
S7    O41   S    
C3    O13   A    
C38   S6    S    
S3    O28   D    
C15   H4    S    
O6    C2    A    
S6    O37   D    
S7    O39   D    
C29   C33   A    
C15   C20   S    
O12   V4    S    
C31   C35   A    
C8    C9    S    
C32   C36   A    
O10   C6    A    
O20   V2    S    
C22   C42   A    
C3    C22   S    
O38   H22   S    
C38   C42   A    
C35   C47   S    
C37   C41   A    
O23   H17   S    
C23   C27   A    
S6    O36   D    
O29   H19   S    
C26   S2    S    
S6    O38   S    
C33   C37   A    
S3    O29   S    
C27   S3    S    
O41   H23   S    
C34   C46   S    
C12   C19   T    
C13   H2    S    
S5    O33   D    
C39   S7    S    
S4    O32   S    
O4    V2    S    
C24   C28   A    
S8    O42   D    
