data_mof_unit_49128.cif
_audit_creation_date              2012-12-11T14:17:49-0500
_audit_creation_method            fapswitch 2.2
_symmetry_space_group_name_H-M    P1
_symmetry_Int_Tables_number       1
_space_group_crystal_system       triclinic
_cell_length_a                    6.93982
_cell_length_b                    13.608663
_cell_length_c                    20.406696
_cell_angle_alpha                 102.026828
_cell_angle_beta                  90.222675
_cell_angle_gamma                 90.455298
_cell_volume                      1884.85000686

loop_
_atom_site_label
_atom_site_type_symbol
_atom_type_description
_atom_site_fract_x
_atom_site_fract_y
_atom_site_fract_z
_atom_type_partial_charge
O1    O     O_R   0.506860 0.599390 0.449240 -0.532050
O2    O     O_R   0.180220 0.594600 0.586780 -0.536685
O3    O     O_R   0.004500 0.400610 0.550760 -0.541744
C1    C     C_R   0.348701 0.619174 0.612411 0.800236
O4    O     O_R   0.177490 0.611290 0.451970 -0.542112
O5    O     O_R   0.001750 0.417420 0.414990 -0.545674
C2    C     C_R   0.346669 0.638761 0.435670 0.759013
O6    O     O_R   0.509610 0.582580 0.585010 -0.530910
O7    O     O_3   0.337420 0.436370 0.488020 -0.376374
V1    V     V_3+5 0.064680 0.511800 0.502220 1.502031
O8    O     O_R   0.671710 0.405400 0.413220 -0.543527
C3    C     C_R   0.839320 0.384282 0.386577 0.758561
O9    O     O_R   0.674440 0.388710 0.548030 -0.539462
C4    C     C_R   0.843186 0.361783 0.564686 0.702613
V2    V     V_3+5 0.564010 0.488200 0.497780 1.514169
O10   O     O_3   0.841140 0.563630 0.511980 -0.364845
C5    C     C_R   0.879524 0.111704 0.613997 -0.109575
H1    H     H_    0.870719 0.160708 0.520667 0.151742
H2    H     H_    0.900404 0.987849 0.698086 0.150004
H3    H     H_    0.891216 0.033311 0.589386 0.159820
C6    C     C_R   0.852188 0.285184 0.605270 -0.056111
C7    C     C_R   0.842133 0.319773 0.930743 -0.079305
C8    C     C_R   0.836028 0.395389 0.893172 0.321388
C9    C     C_R   0.843801 0.370668 0.823426 -0.207579
C10   C     C_R   0.857571 0.270022 0.788037 0.036079
C11   C     C_R   0.867154 0.193145 0.825728 0.056127
C12   C     C_R   0.861100 0.243188 0.716358 0.100253
C13   C     C_R   0.876419 0.140258 0.684228 0.109705
C14   C     C_R   0.888206 0.066405 0.722254 -0.188012
C15   C     C_R   0.883350 0.092117 0.791687 -0.163495
C16   C     C_R   0.849015 0.314744 0.675134 -0.210928
C17   C     C_R   0.867576 0.183834 0.574770 -0.104367
C18   C     C_R   0.859257 0.218342 0.896813 -0.195002
H4    H     H_    0.837032 0.394127 0.695310 0.103805
H5    H     H_    0.836945 0.432818 0.798478 0.150367
H6    H     H_    0.891874 0.031403 0.818402 0.111447
C19   C     C_2   0.004739 0.294097 0.284986 -0.137031
C20   C     C_2   0.841331 0.315911 0.320054 -0.335917
H7    H     H_    0.138806 0.327655 0.306996 0.174023
H8    H     H_    0.704185 0.283935 0.300544 0.162365
C21   C     C_2   0.020340 0.225743 0.217907 0.303943
C22   C     C_2   0.865436 0.184417 0.180591 -0.348899
H9    H     H_    0.721551 0.201450 0.199391 0.156701
C23   C     C_2   0.208065 0.804015 0.778926 -0.175407
C24   C     C_2   0.365054 0.820478 0.818421 -0.295992
H10   H     H_    0.073988 0.838572 0.798793 0.160153
H11   H     H_    0.503930 0.791971 0.799713 0.162708
C25   C     C_2   0.206745 0.747591 0.707453 0.008941
C26   C     C_2   0.355639 0.687893 0.679465 -0.317325
H12   H     H_    0.485613 0.683011 0.708002 0.156906
C27   C     C_R   0.381933 0.894690 0.389727 0.229255
H13   H     H_    0.382209 0.018241 0.301274 0.193889
C28   C     C_R   0.357780 0.718900 0.397377 -0.151664
C29   C     C_R   0.353795 0.684396 0.072821 -0.154030
C30   C     C_R   0.350319 0.607690 0.108971 0.017395
C31   C     C_R   0.350773 0.632904 0.179279 -0.208703
C32   C     C_R   0.355403 0.734425 0.214772 0.085447
C33   C     C_R   0.360113 0.811010 0.176752 0.063319
C34   C     C_R   0.358585 0.762356 0.286643 0.057558
C35   C     C_R   0.371704 0.865810 0.318771 0.059011
C36   C     C_R   0.375196 0.938865 0.279344 -0.125249
C37   C     C_R   0.368667 0.912154 0.210068 -0.199624
C38   C     C_R   0.349914 0.690734 0.327623 -0.226819
C39   C     C_R   0.374281 0.821002 0.429241 -0.079321
C40   C     C_R   0.358212 0.785097 0.105847 -0.109150
H14   H     H_    0.335333 0.611454 0.307140 0.115412
H15   H     H_    0.353747 0.666020 0.018496 0.168037
H16   H     H_    0.350315 0.571335 0.204785 0.155521
H17   H     H_    0.372078 0.972254 0.182705 0.155380
O11   O     O_R   0.203230 0.917310 0.915020 -0.546010
O12   O     O_R   0.535500 0.888690 0.048040 -0.538974
O13   O     O_R   0.711080 0.082610 0.085000 -0.526616
C41   C     C_R   0.366717 0.862048 0.065028 0.705928
O14   O     O_R   0.532630 0.905370 0.913230 -0.547507
O15   O     O_R   0.708190 0.099410 0.949230 -0.525854
C42   C     C_R   0.364583 0.884910 0.886327 0.744946
O16   O     O_R   0.206120 0.900510 0.050790 -0.537741
O17   O     O_3   0.375360 0.063570 0.011990 -0.349798
V3    V     V_3+5 0.648170 0.988200 0.997780 1.524434
O18   O     O_R   0.038240 0.111390 0.951940 -0.548257
C43   C     C_R   0.869322 0.138628 0.935624 0.733908
O19   O     O_R   0.041120 0.094710 0.086750 -0.514658
C44   C     C_R   0.873919 0.115936 0.113653 0.807919
V4    V     V_3+5 0.148810 0.011930 0.002180 1.525477
O20   O     O_3   0.871750 0.936430 0.988010 -0.378873
Br1   Br    Br    0.283455 0.203203 0.188966 -0.592477
C45   C     C_2   0.032334 0.762899 0.668194 0.762494
O21   O     O_2   0.872679 0.762904 0.693381 -0.578739
O22   O     O_R   0.050992 0.781616 0.603688 -0.653752
H18   H     H_    0.922229 0.792248 0.582680 0.315591
C46   C     C_2   0.383691 0.850649 0.503592 0.832199
O23   O     O_2   0.492462 0.807161 0.535106 -0.571140
O24   O     O_R   0.267280 0.927963 0.537643 -0.627342
H19   H     H_    0.288440 0.942004 0.587940 0.312074
Br2   Br    Br    0.422083 0.034370 0.433211 -0.553301
C47   C     C_2   0.346755 0.500618 0.073336 0.883292
O25   O     O_2   0.356765 0.478679 0.012181 -0.524364
O26   O     O_R   0.330489 0.424279 0.109562 -0.651258
H20   H     H_    0.325521 0.354797 0.079561 0.334888
C48   C     C_2   0.828117 0.346665 0.005075 0.814504
O27   O     O_2   0.924141 0.416226 0.036958 -0.521477
O28   O     O_R   0.704272 0.292703 0.038686 -0.663406
H21   H     H_    0.707156 0.318414 0.089023 0.301795
Br3   Br    Br    0.804967 0.535130 0.934117 -0.488335

loop_
_geom_bond_atom_site_label_1
_geom_bond_atom_site_label_2
_ccdc_geom_bond_type
C33   C37   A    
C45   O21   D    
O24   H19   S    
C21   C22   D    
O18   V4    S    
O12   V3    S    
C29   C40   A    
C21   Br1   S    
C6    C16   A    
C19   C20   D    
O14   C42   A    
C24   C42   S    
C4    C6    S    
C13   C14   A    
O13   V3    S    
H13   C36   S    
O5    C3    A    
O18   C43   A    
C28   C39   A    
C32   C34   A    
V2    O10   S    
O26   H20   S    
C5    H3    S    
C40   C41   S    
C31   C32   A    
C26   H12   S    
C11   C18   A    
O8    V2    S    
C47   O26   S    
C8    C9    A    
O1    V2    S    
O11   V4    S    
O7    V1    S    
C1    O6    A    
C38   H14   S    
C34   C35   A    
O9    C4    A    
C3    C20   S    
C36   C37   A    
C23   H10   S    
C24   H11   S    
C6    C17   A    
C16   H4    S    
C9    H5    S    
C7    C48   S    
C27   C39   A    
C12   C16   A    
C9    C10   A    
C46   O23   D    
O4    C2    A    
O17   V3    S    
O15   C43   A    
C29   H15   S    
O16   V4    S    
C10   C11   A    
C31   H16   S    
C37   H17   S    
C35   C36   A    
O2    C1    A    
C14   C15   A    
C46   O24   S    
C33   C40   A    
C8    Br3   S    
C47   O25   D    
C30   C31   A    
C48   O28   S    
C25   C45   S    
V4    O20   S    
O3    C4    A    
C25   C26   D    
C11   C15   A    
O6    V2    S    
O19   V4    S    
O14   V3    S    
C45   O22   S    
O11   C42   A    
H1    C17   S    
C22   H9    S    
C2    C28   S    
O2    V1    S    
V3    O20   S    
C23   C24   D    
O12   C41   A    
C7    C18   A    
C29   C30   A    
O1    C2    A    
C5    C13   A    
C22   C44   S    
C30   C47   S    
O5    V1    S    
O8    C3    A    
C10   C12   A    
C34   C38   A    
C15   H6    S    
C1    C26   S    
O9    V2    S    
O7    V2    S    
O4    V1    S    
C19   H7    S    
O3    V1    S    
V1    O10   S    
C20   H8    S    
C28   C38   A    
C32   C33   A    
O15   V3    S    
C48   O27   D    
C19   C21   S    
O28   H21   S    
O13   C44   A    
O17   V4    S    
O19   C44   A    
C12   C13   A    
C5    C17   A    
C41   O16   A    
C7    C8    A    
C27   C35   A    
C39   C46   S    
O22   H18   S    
C18   C43   S    
C23   C25   S    
C27   Br2   S    
H2    C14   S    
