data_mof_unit_21183.cif
_audit_creation_date              2013-03-05T15:54:25-0500
_audit_creation_method            fapswitch 2.2
_symmetry_space_group_name_H-M    P1
_symmetry_Int_Tables_number       1
_space_group_crystal_system       triclinic
_cell_length_a                    15.727283
_cell_length_b                    10.729693
_cell_length_c                    9.891632
_cell_angle_alpha                 89.304322
_cell_angle_beta                  89.913205
_cell_angle_gamma                 91.686376
_cell_volume                      1668.35333246

loop_
_atom_site_label
_atom_site_type_symbol
_atom_site_description
_atom_site_fract_x
_atom_site_fract_y
_atom_site_fract_z
_atom_type_partial_charge
O1    O     O_R   0.500000 0.316780 0.614690 -0.655316
O2    O     O_R   0.499990 0.316750 0.385360 -0.641174
C1    C     C_R   0.505168 0.259859 0.501890 0.868398
O3    O     O_R   0.376780 0.500000 0.614650 -0.642146
O4    O     O_R   0.376770 0.499980 0.385310 -0.620704
C2    C     C_R   0.337983 0.499545 0.500078 0.881058
Zn1   Zn    Zn3+2 0.500010 0.500020 0.653130 0.928734
Zn2   Zn    Zn3+2 0.499990 0.499980 0.346870 0.944996
O5    O     O_R   0.500010 0.683250 0.614640 -0.624901
O6    O     O_R   0.500000 0.683220 0.385310 -0.620448
O7    O     O_R   0.623230 0.500020 0.614690 -0.611820
O8    O     O_R   0.623220 0.500000 0.385350 -0.606878
C3    C     C_R   0.491404 0.738904 0.499802 0.879682
C4    C     C_R   0.662044 0.500163 0.499908 0.915034
C5    C     C_3   0.968783 0.378456 0.524230 -0.223167
C6    C     C_3   0.025449 0.419556 0.404461 0.372726
H1    H     H_    0.942097 0.282971 0.543707 0.162897
H2    H     H_    0.948382 0.564665 0.275318 0.161915
C7    C     C_1   0.249088 0.498108 0.500163 -0.149409
C8    C     C_1   0.750955 0.498574 0.499548 -0.182884
C9    C     C_3   0.027053 0.456290 0.620043 -0.208253
C10   C     C_3   0.082903 0.495143 0.498239 0.087608
C11   C     C_3   0.973275 0.572919 0.594170 -0.125882
C12   C     C_3   0.917042 0.495464 0.498093 0.148427
C13   C     C_3   0.030474 0.611547 0.472119 -0.213966
C14   C     C_3   0.972256 0.534401 0.375690 -0.219841
C15   C     C_1   0.173793 0.496640 0.499551 0.013664
C16   C     C_1   0.826223 0.496990 0.498926 -0.031118
H3    H     H_    0.057386 0.706697 0.451419 0.162966
H4    H     H_    0.949504 0.636378 0.672626 0.147792
H5    H     H_    0.051192 0.424965 0.719866 0.170677
H6    H     H_    0.516277 0.113761 0.288261 0.171230
C17   C     C_R   0.516109 0.107671 0.761420 -0.161440
H7    H     H_    0.553550 0.192318 0.775875 0.173437
C18   C     C_R   0.488369 0.044741 0.878324 -0.147724
H8    H     H_    0.500150 0.085023 0.976627 0.143600
C19   C     C_R   0.443586 0.931797 0.868121 -0.154666
H9    H     H_    0.418535 0.885278 0.958037 0.142650
C20   C     C_R   0.434354 0.876147 0.742299 -0.149342
H10   H     H_    0.399135 0.788147 0.738083 0.162033
C21   C     C_R   0.469805 0.934033 0.624634 0.098494
C22   C     C_R   0.498685 0.058145 0.631450 0.095855
C23   C     C_R   0.508415 0.125863 0.507410 -0.117842
C24   C     C_R   0.507539 0.064253 0.383671 -0.214961
H11   H     H_    0.502915 0.891029 0.284828 0.169814
C25   C     C_R   0.496863 0.937367 0.380972 -0.211861
C26   C     C_R   0.480587 0.871378 0.501011 -0.126926
H12   H     H_    0.594936 0.640997 0.123392 0.148492
C27   C     C_R   0.388242 0.336383 0.142391 -0.150195
H13   H     H_    0.384057 0.330668 0.249582 0.212226
C28   C     C_R   0.333242 0.256036 0.073055 -0.157359
H14   H     H_    0.290402 0.193118 0.128391 0.184543
C29   C     C_R   0.333152 0.256414 0.933178 -0.181213
H15   H     H_    0.290484 0.193483 0.879396 0.164093
C30   C     C_R   0.388257 0.336863 0.861853 -0.157658
H16   H     H_    0.384941 0.330799 0.754745 0.211223
C31   C     C_R   0.445000 0.419399 0.928724 0.149671
C32   C     C_R   0.445016 0.419322 0.073449 0.157790
N1    N     N_R   0.499210 0.498800 0.142780 -0.121031
C33   C     C_R   0.552285 0.577602 0.070406 -0.116797
H17   H     H_    0.594863 0.640994 0.872238 0.155925
C34   C     C_R   0.552259 0.577571 0.927155 -0.111181
N2    N     N_R   0.499180 0.498720 0.857170 -0.126001
N3    N     N_R   0.053232 0.335165 0.299926 0.203071
O9    O     O_R   0.996989 0.275964 0.226692 -0.394257
O10   O     O_R   0.133720 0.318642 0.278739 -0.412362

loop_
_geom_bond_atom_site_label_1
_geom_bond_atom_site_label_2
_geom_bond_distance
_ccdc_geom_bond_type
O4    Zn2   1.974299 S    
C28   C29   1.383578 A    
C23   C24   1.398023 A    
H12   C33   1.081761 S    
C34   N2    1.366131 A    
C28   H14   1.082795 S    
C7    C15   1.183850 T    
C21   C22   1.396745 A    
C8    C16   1.184396 T    
C18   H8    1.082914 S    
H2    C14   1.110248 S    
Zn2   O8    1.975658 S    
Zn1   N2    2.018188 S    
N3    O9    1.300277 A    
C30   H16   1.063529 S    
C30   C31   1.409859 A    
O2    C1    1.301549 A    
C21   C26   1.414942 A    
N1    C33   1.366062 A    
C20   C21   1.418229 A    
C13   C14   1.552590 S    
O1    Zn1   2.007062 S    
H11   C25   1.083823 S    
Zn1   O7    1.974301 S    
C2    C7    1.397710 S    
C9    H5    1.110257 S    
C17   C18   1.394860 A    
C1    C23   1.440517 S    
C31   C32   1.431561 A    
C19   H9    1.082598 S    
O3    Zn1   1.975658 S    
O4    C2    1.287838 A    
C17   C22   1.421046 A    
O3    C2    1.287925 A    
C5    C12   1.535604 S    
C18   C19   1.388441 A    
C12   C14   1.535492 S    
O8    C4    1.288015 A    
C31   N2    1.375590 A    
C10   C15   1.429146 S    
C29   C30   1.390412 A    
Zn2   N1    2.019029 S    
C6    C14   1.533680 S    
H17   C34   1.081764 S    
C19   C20   1.392878 A    
O7    C4    1.288229 A    
C22   C23   1.424091 A    
C5    H1    1.110210 S    
C11   C12   1.534423 S    
C5    C6    1.534026 S    
C11   H4    1.110222 S    
C4    C8    1.398932 S    
C5    C9    1.553166 S    
C11   C13   1.549570 S    
C17   H7    1.078884 S    
H6    C24   1.083926 S    
C13   H3    1.110225 S    
C33   C34   1.416990 A    
C27   H13   1.063145 S    
C20   H10   1.081811 S    
Zn1   O5    1.997983 S    
O5    C3    1.286086 A    
C25   C26   1.394533 A    
C6    C10   1.520660 S    
C6    N3    1.457635 S    
C27   C28   1.390717 A    
C32   N1    1.377390 A    
C9    C10   1.536233 S    
C3    C26   1.436701 S    
C9    C11   1.549842 S    
O6    C3    1.295593 A    
Zn2   O6    2.007061 S    
O2    Zn2   1.997984 S    
C27   C32   1.410988 A    
C12   C16   1.428923 S    
C29   H15   1.082777 S    
C24   C25   1.367439 A    
O1    C1    1.282097 A    
C10   C13   1.536247 S    
N3    O10   1.300406 A    
