data_mof_unit_40343.cif
_audit_creation_date              2012-12-10T17:51:25-0500
_audit_creation_method            fapswitch 2.2
_symmetry_space_group_name_H-M    P1
_symmetry_Int_Tables_number       1
_space_group_crystal_system       triclinic
_cell_length_a                    14.68475
_cell_length_b                    14.758158
_cell_length_c                    17.349869
_cell_angle_alpha                 105.819718
_cell_angle_beta                  73.206254
_cell_angle_gamma                 114.867307
_cell_volume                      3216.14417787

loop_
_atom_site_label
_atom_site_type_symbol
_atom_type_description
_atom_site_fract_x
_atom_site_fract_y
_atom_site_fract_z
_atom_type_partial_charge
C1    C     C_R   0.118726 0.687885 0.513305 0.805399
C2    C     C_R   0.881321 0.312051 0.485705 0.806378
C3    C     C_R   0.186010 0.794914 0.515334 -0.057841
C4    C     C_R   0.814672 0.204403 0.475194 -0.059092
C5    C     C_R   0.214929 0.969020 0.516494 -0.178667
C6    C     C_R   0.788767 0.026557 0.447945 -0.179694
C7    C     C_R   0.147794 0.869479 0.521394 -0.174975
C8    C     C_R   0.854376 0.127949 0.455992 -0.174042
C9    C     C_R   0.291290 0.821066 0.505820 -0.243115
C10   C     C_R   0.709414 0.178466 0.484435 -0.248554
C11   C     C_R   0.361015 0.919657 0.496722 0.091286
C12   C     C_R   0.641996 0.076815 0.473910 0.091469
C13   C     C_R   0.320978 0.994564 0.503929 0.158036
C14   C     C_R   0.683031 0.000505 0.457713 0.158463
C15   C     C_R   0.468935 0.945846 0.481458 0.067538
C16   C     C_R   0.534885 0.049248 0.481487 0.068400
C17   C     C_R   0.491839 0.121280 0.487492 -0.215065
C18   C     C_R   0.513208 0.871927 0.464285 -0.217155
C19   C     C_R   0.387004 0.094028 0.497996 -0.217569
C20   C     C_R   0.618266 0.899023 0.451893 -0.219233
C21   C     C_R   0.291802 0.324696 0.364145 -0.117736
C22   C     C_R   0.708113 0.675330 0.635575 -0.116987
C23   C     C_R   0.990516 0.504645 0.652621 0.798229
C24   C     C_R   0.009480 0.495351 0.347380 0.797575
C25   C     C_R   0.209380 0.357060 0.386171 0.017199
C26   C     C_R   0.790267 0.642634 0.614066 0.017288
C27   C     C_R   0.287771 0.491881 0.485619 0.001211
C28   C     C_R   0.712809 0.508683 0.513698 0.002545
C29   C     C_R   0.374660 0.464437 0.466961 -0.031914
C30   C     C_R   0.626293 0.536574 0.531708 -0.032872
C31   C     C_R   0.373936 0.376806 0.406815 0.078845
C32   C     C_R   0.626772 0.624005 0.592025 0.077411
C33   C     C_R   0.460201 0.519144 0.507459 0.092020
C34   C     C_R   0.541195 0.482329 0.490657 0.095428
C35   C     C_R   0.533599 0.391561 0.434330 -0.250210
C36   C     C_R   0.468254 0.610418 0.563198 -0.250291
C37   C     C_R   0.452610 0.340685 0.393425 -0.159480
C38   C     C_R   0.548795 0.660839 0.604622 -0.149453
C39   C     C_R   0.988927 0.511704 0.738541 -0.035675
C40   C     C_R   0.011044 0.488262 0.261464 -0.034843
C41   C     C_R   0.069014 0.502214 0.760162 -0.196210
C42   C     C_R   0.930909 0.497671 0.239848 -0.196837
C43   C     C_R   0.068312 0.509285 0.841647 -0.136621
C44   C     C_R   0.931581 0.490562 0.158362 -0.137051
C45   C     C_R   0.986753 0.524712 0.902561 0.184550
C46   C     C_R   0.013154 0.475170 0.097447 0.184693
C47   C     C_R   0.908371 0.537316 0.881384 -0.156171
C48   C     C_R   0.091583 0.462645 0.118620 -0.156207
C49   C     C_R   0.909086 0.530424 0.799695 -0.181341
C50   C     C_R   0.090901 0.469581 0.200309 -0.181350
C51   C     C_2   0.981469 0.527685 0.988647 -0.219441
C52   C     C_2   0.018412 0.472169 0.011361 -0.219102
Cu1   Cu    Cu3+1 0.916740 0.524770 0.521640 0.947210
Cu2   Cu    Cu3+1 0.083260 0.475230 0.478360 0.947345
H1    H     H_    0.132615 0.489899 0.714263 0.157526
H2    H     H_    0.867293 0.509952 0.285750 0.156907
H3    H     H_    0.537277 0.199281 0.481766 0.139122
H4    H     H_    0.469236 0.791635 0.457473 0.145555
H5    H     H_    0.451182 0.270288 0.352816 0.183526
H6    H     H_    0.550476 0.731417 0.645036 0.183317
H7    H     H_    0.721309 0.447031 0.465863 0.125860
H8    H     H_    0.279498 0.553613 0.533474 0.125633
H9    H     H_    0.853901 0.681518 0.645478 0.156544
H10   H     H_    0.145281 0.317711 0.355291 0.155377
H11   H     H_    0.588749 0.356384 0.421007 0.127700
H12   H     H_    0.413904 0.646374 0.575504 0.131185
H13   H     H_    0.153033 0.460949 0.215498 0.160340
H14   H     H_    0.846991 0.539120 0.784505 0.160336
H15   H     H_    0.056255 0.425396 0.965962 0.150889
H16   H     H_    0.943625 0.574457 0.034050 0.150533
H17   H     H_    0.845614 0.550440 0.927956 0.133828
H18   H     H_    0.154353 0.449552 0.072045 0.133980
H19   H     H_    0.867797 0.496221 0.143333 0.132430
H20   H     H_    0.132067 0.503571 0.856676 0.132738
H21   H     H_    0.357411 0.151572 0.501932 0.150887
H22   H     H_    0.648884 0.839949 0.438710 0.150300
H23   H     H_    0.681415 0.239296 0.502267 0.151033
H24   H     H_    0.316792 0.762867 0.506500 0.144373
H25   H     H_    0.935720 0.146437 0.448372 0.168056
H26   H     H_    0.066427 0.850712 0.528844 0.166955
H27   H     H_    0.184050 0.025859 0.521427 0.144498
H28   H     H_    0.820607 0.968424 0.434621 0.143172
N1    N     N_R   0.208390 0.438070 0.445820 -0.188776
N2    N     N_R   0.791610 0.561930 0.554180 -0.189300
O1    O     O_R   0.020090 0.662480 0.528530 -0.585481
O2    O     O_R   0.979910 0.337520 0.471470 -0.585904
O3    O     O_R   0.160710 0.620650 0.491980 -0.590124
O4    O     O_R   0.839290 0.379350 0.508020 -0.590507
O5    O     O_R   0.921540 0.523360 0.633990 -0.586550
O6    O     O_R   0.078460 0.476640 0.366010 -0.586707
O7    O     O_R   0.062170 0.481520 0.597440 -0.587298
O8    O     O_R   0.937830 0.518480 0.402560 -0.588239
C53   C     C_2   0.289670 0.238221 0.295564 0.807573
O9    O     O_2   0.209283 0.165841 0.289354 -0.600636
O10   O     O_R   0.378049 0.241332 0.235984 -0.763540
H29   H     H_    0.366240 0.178435 0.192053 0.340626
C54   C     C_2   0.709568 0.761209 0.704612 0.809816
O11   O     O_2   0.789985 0.833087 0.712059 -0.597465
O12   O     O_R   0.620417 0.758038 0.763235 -0.764365
H30   H     H_    0.631794 0.820464 0.807626 0.340557

loop_
_geom_bond_atom_site_label_1
_geom_bond_atom_site_label_2
_ccdc_geom_bond_type
C1    O3    A    
C15   C18   A    
C53   O9    D    
C6    H28   S    
C49   H14   S    
C29   C33   A    
C28   N2    A    
O10   H29   S    
C4    C8    A    
C54   O11   D    
C39   C41   A    
Cu1   Cu2   S    
C21   C31   A    
C22   C32   A    
Cu1   N2    S    
C35   C37   A    
Cu2   O6    S    
C3    C7    A    
Cu2   O3    S    
C36   H12   S    
C27   C29   A    
C35   H11   S    
C15   C16   A    
C46   C52   S    
C33   C36   A    
C20   H22   S    
C34   C35   A    
C41   H1    S    
C52   H15   S    
C42   H2    S    
C11   C15   A    
C18   H4    S    
C12   C16   A    
C16   C17   A    
C8    H25   S    
C23   O5    A    
C2    O4    A    
C51   H16   S    
C32   C38   A    
C50   H13   S    
C5    C13   A    
C28   H7    S    
C43   H20   S    
C40   C42   A    
C53   O10   S    
C22   C54   S    
C41   C43   A    
C42   C44   A    
C48   H18   S    
C24   O8    A    
Cu2   N1    S    
C54   O12   S    
C10   H23   S    
C44   C46   A    
C45   C47   A    
C1    O1    A    
C46   C48   A    
C30   C34   A    
C51   C52   D    
C14   C20   A    
C47   C49   A    
Cu2   O2    S    
C13   C19   A    
C17   C19   A    
C6    C8    A    
C31   C37   A    
C1    C3    S    
C25   H10   S    
C2    C4    S    
C26   H9    S    
C3    C9    A    
C27   H8    S    
C6    C14   A    
C5    H27   S    
O12   H30   S    
Cu1   O8    S    
C33   C34   A    
C9    C11   A    
C47   H17   S    
C37   H5    S    
C10   C12   A    
C38   H6    S    
C39   C49   A    
C12   C14   A    
Cu1   O5    S    
C23   O7    A    
C4    C10   A    
C36   C38   A    
C5    C7    A    
C21   C25   A    
C26   N2    A    
C24   O6    A    
C19   H21   S    
C28   C30   A    
C43   C45   A    
C30   C32   A    
C11   C13   A    
C21   C53   S    
C40   C50   A    
C48   C50   A    
C24   C40   S    
C2    O2    A    
Cu1   O4    S    
C18   C20   A    
C9    H24   S    
C44   H19   S    
C27   N1    A    
Cu2   O7    S    
C29   C31   A    
C22   C26   A    
C25   N1    A    
C45   C51   S    
Cu1   O1    S    
C23   C39   S    
C17   H3    S    
C7    H26   S    
