data_mof_unit_26146.cif
_audit_creation_date              2012-12-10T17:47:02-0500
_audit_creation_method            fapswitch 2.2
_symmetry_space_group_name_H-M    P1
_symmetry_Int_Tables_number       1
_space_group_crystal_system       triclinic
_cell_length_a                    9.963056
_cell_length_b                    10.612768
_cell_length_c                    13.586333
_cell_angle_alpha                 89.658672
_cell_angle_beta                  83.574236
_cell_angle_gamma                 89.797655
_cell_volume                      1427.50293099

loop_
_atom_site_label
_atom_site_type_symbol
_atom_type_description
_atom_site_fract_x
_atom_site_fract_y
_atom_site_fract_z
_atom_type_partial_charge
C1    C     C_R   0.499841 0.739124 0.499807 0.874795
C2    C     C_1   0.458410 0.507165 0.788993 -0.196062
C3    C     C_R   0.451013 0.869537 0.321746 -0.217429
C4    C     C_R   0.427594 0.934223 0.234852 0.256629
C5    C     C_R   0.428351 0.067359 0.234202 0.245171
C6    C     C_R   0.452165 0.131585 0.320317 -0.232297
C7    C     C_R   0.475206 0.066135 0.407684 0.046014
C8    C     C_R   0.474673 0.934712 0.408646 0.002494
C9    C     C_R   0.500214 0.871897 0.496704 -0.082904
C10   C     C_R   0.528017 0.936158 0.582231 0.176183
C11   C     C_R   0.529088 0.065668 0.579716 -0.207520
C12   C     C_R   0.476179 0.501273 0.685379 0.886933
C13   C     C_R   0.501637 0.128700 0.494395 -0.106403
C14   C     C_R   0.855068 0.479273 0.682744 0.249635
C15   C     C_R   0.902578 0.537039 0.764928 -0.182402
C16   C     C_R   0.023331 0.604627 0.752978 -0.242839
C17   C     C_R   0.104754 0.599447 0.662474 -0.141203
C18   C     C_R   0.058327 0.536926 0.582249 0.135917
C19   C     C_R   0.918609 0.509320 0.587267 0.141266
C20   C     C_R   0.941376 0.482996 0.415298 -0.121749
C21   C     C_R   0.084193 0.475493 0.416557 -0.108313
C22   C     C_R   0.500422 0.260926 0.498908 0.871040
C23   C     C_R   0.523745 0.499612 0.314596 0.865468
C24   C     C_1   0.541249 0.497230 0.210895 -0.194275
C25   C     C_2   0.557127 0.494097 0.019183 -0.165309
C26   C     C_2   0.442944 0.516034 0.980566 -0.158437
C27   C     C_1   0.446499 0.512191 0.876715 0.002588
C28   C     C_1   0.553216 0.495265 0.123090 -0.003844
H1    H     H_    0.348368 0.535581 0.026088 0.155631
H2    H     H_    0.852862 0.520593 0.838898 0.148113
H3    H     H_    0.147338 0.453264 0.348900 0.151897
H4    H     H_    0.651554 0.474067 0.973667 0.149176
H5    H     H_    0.451638 0.767693 0.320515 0.150018
H6    H     H_    0.453625 0.233488 0.317875 0.152403
N1    N     N_R   0.857120 0.501200 0.500900 -0.117737
N2    N     N_R   0.142720 0.501280 0.500940 -0.111296
O1    O     O_R   0.385310 0.683220 0.500000 -0.629092
O2    O     O_R   0.614640 0.683250 0.500010 -0.602205
O3    O     O_R   0.368830 0.499960 0.640340 -0.621660
O4    O     O_R   0.598160 0.499980 0.640350 -0.604657
O5    O     O_R   0.385360 0.316750 0.499990 -0.601849
O6    O     O_R   0.614690 0.316780 0.500000 -0.624054
O7    O     O_R   0.401840 0.500020 0.359650 -0.623921
O8    O     O_R   0.631170 0.500040 0.359660 -0.609876
Zn1   Zn    Zn3+2 0.346870 0.499980 0.499990 0.942426
Zn2   Zn    Zn3+2 0.653130 0.500020 0.500010 0.943867
C29   C     C_3   0.790949 0.351687 0.701780 -0.858032
H7    H     H_    0.760810 0.309859 0.633270 0.269520
H8    H     H_    0.865732 0.286541 0.729721 0.219147
H9    H     H_    0.702611 0.357233 0.759106 0.230649
H10   H     H_    0.059572 0.650675 0.815748 0.162639
H11   H     H_    0.199802 0.648545 0.654721 0.188704
C30   C     C_3   0.553634 0.868218 0.676532 -0.891626
H12   H     H_    0.568340 0.934988 0.737047 0.235956
H13   H     H_    0.466127 0.807197 0.702091 0.222901
H14   H     H_    0.646030 0.809208 0.663235 0.258093
C31   C     C_3   0.403142 0.859466 0.144558 -0.925207
H15   H     H_    0.405834 0.756337 0.158653 0.240803
H16   H     H_    0.302123 0.882936 0.122242 0.244865
H17   H     H_    0.482378 0.881267 0.082738 0.248488
C32   C     C_3   0.405642 0.145274 0.144239 -0.920193
H18   H     H_    0.317265 0.208350 0.162403 0.241513
H19   H     H_    0.496103 0.204173 0.122355 0.246557
H20   H     H_    0.386461 0.088133 0.079393 0.250909
H21   H     H_    0.549276 0.118286 0.644739 0.140374
H22   H     H_    0.898858 0.468468 0.346459 0.153608

loop_
_geom_bond_atom_site_label_1
_geom_bond_atom_site_label_2
_ccdc_geom_bond_type
C4    C31   S    
C12   O4    A    
C32   H20   S    
C23   C24   S    
C14   C29   S    
O7    Zn1   S    
C9    C10   A    
C6    C7    A    
C29   H7    S    
C16   H10   S    
C1    O1    A    
O3    Zn1   S    
C2    C12   S    
C21   H3    S    
C12   O3    A    
C7    C13   A    
C17   C18   A    
C26   C27   S    
C5    C32   S    
N2    Zn1   S    
C29   H8    S    
C21   N2    A    
C19   N1    A    
C30   H12   S    
C25   C28   S    
O4    Zn2   S    
C4    C5    A    
C11   C13   A    
C31   H15   S    
C2    C27   T    
C1    O2    A    
C15   H2    S    
C5    C6    A    
C17   H11   S    
C20   H22   S    
O8    Zn2   S    
C13   C22   S    
C18   C19   A    
C29   H9    S    
C30   H13   S    
C32   H18   S    
C31   H16   S    
C22   O5    A    
O2    Zn2   S    
C10   C11   A    
C3    H5    S    
O1    Zn1   S    
C15   C16   A    
C6    H6    S    
C7    C8    A    
C1    C9    S    
C20   C21   A    
C26   H1    S    
C3    C8    A    
O6    Zn2   S    
C30   H14   S    
C22   O6    A    
C32   H19   S    
C10   C30   S    
O5    Zn1   S    
C14   C15   A    
C16   C17   A    
C31   H17   S    
C25   C26   D    
C23   O7    A    
C18   N2    A    
C14   C19   A    
C20   N1    A    
C3    C4    A    
C11   H21   S    
C24   C28   T    
C8    C9    A    
C23   O8    A    
C25   H4    S    
N1    Zn2   S    
