data_mof_unit_52257.cif
_audit_creation_date              2012-10-26T18:30:16-0400
_audit_creation_method            fapswitch 2.2
_symmetry_space_group_name_H-M    P1
_symmetry_Int_Tables_number       1
_space_group_crystal_system       triclinic
_cell_length_a                    10.614074
_cell_length_b                    13.116491
_cell_length_c                    11.652804
_cell_angle_alpha                 101.255019
_cell_angle_beta                  93.517986
_cell_angle_gamma                 90.739136
_cell_volume                      1587.58560579

loop_
_atom_site_label
_atom_site_type_symbol
_atom_type_description
_atom_site_fract_x
_atom_site_fract_y
_atom_site_fract_z
_atom_type_partial_charge
C1    C     C_R   0.501587 0.298555 0.476666 0.553411
C2    C     C_R   0.630244 0.562995 0.851899 0.058542
C3    C     C_R   0.567787 0.523230 0.154949 0.049978
C4    C     C_R   0.432213 0.476773 0.845052 0.050082
C5    C     C_R   0.555902 0.521875 0.032358 -0.004105
C6    C     C_R   0.444087 0.478152 0.967647 -0.004054
C7    C     C_R   0.259111 0.500063 0.500578 0.562789
C8    C     C_R   0.740889 0.499935 0.499422 0.562786
C9    C     C_3   0.047524 0.505529 0.610772 -0.120215
C10   C     C_3   0.952474 0.494465 0.389228 -0.120195
C11   C     C_3   0.959252 0.417374 0.540934 -0.118650
C12   C     C_R   0.498363 0.701443 0.523336 0.553481
C13   C     C_3   0.040747 0.582620 0.459065 -0.118642
C14   C     C_3   0.877540 0.499792 0.498489 0.046627
C15   C     C_3   0.122459 0.500202 0.501510 0.046643
C16   C     C_3   0.963495 0.587944 0.568254 -0.131191
C17   C     C_3   0.036504 0.412050 0.431745 -0.131157
C18   C     C_R   0.496322 0.816235 0.539990 -0.019650
C19   C     C_R   0.503481 0.183761 0.460028 -0.019649
C20   C     C_R   0.429957 0.013702 0.354272 -0.107403
C21   C     C_R   0.569628 0.986324 0.645816 -0.107470
C22   C     C_R   0.451539 0.118964 0.354390 -0.040558
C23   C     C_R   0.551154 0.138329 0.554348 0.046433
C24   C     C_R   0.548088 0.881057 0.645685 -0.040548
C25   C     C_2   0.373687 0.797584 0.344122 0.577391
C26   C     C_2   0.626305 0.202339 0.655790 0.577398
C27   C     C_3   0.578539 0.838788 0.757841 -0.238815
C28   C     C_3   0.615522 0.919156 0.870494 -0.333818
C29   C     C_3   0.620686 0.869141 0.978477 -0.447057
C30   C     C_3   0.420986 0.161255 0.242268 -0.238826
C31   C     C_3   0.383601 0.080938 0.129677 -0.333760
C32   C     C_3   0.378472 0.130939 0.021683 -0.447186
C33   C     C_3   0.222885 0.395489 0.960866 -0.283035
C34   C     C_R   0.448642 0.861653 0.445658 0.046363
C35   C     C_3   0.117840 0.367673 0.035952 -0.314921
C36   C     C_3   0.996515 0.332207 0.960648 -0.436632
C37   C     C_3   0.777032 0.604687 0.039182 -0.283025
C38   C     C_3   0.881989 0.632790 0.964168 -0.314921
C39   C     C_3   0.003209 0.668493 0.039536 -0.436584
C40   C     C_R   0.531044 0.031211 0.550059 -0.012785
C41   C     C_R   0.468649 0.968792 0.449983 -0.012767
C42   C     C_R   0.347793 0.436821 0.026931 -0.044951
C43   C     C_R   0.652177 0.563246 0.973083 -0.044966
C44   C     C_R   0.369739 0.437039 0.148106 0.058584
Cu1   Cu    Cu3+1 0.509400 0.507730 0.615930 0.951089
Cu2   Cu    Cu3+1 0.490600 0.492270 0.384070 0.951150
H1    H     H_    0.923086 0.349706 0.574307 0.166110
H2    H     H_    0.649064 0.559706 0.208098 0.125948
H3    H     H_    0.699365 0.596028 0.804932 0.125860
H4    H     H_    0.300609 0.404012 0.195070 0.125839
H5    H     H_    0.364929 0.730198 0.172563 0.331203
H6    H     H_    0.635314 0.269849 0.827311 0.331213
H7    H     H_    0.525758 0.838550 0.991949 0.170113
H8    H     H_    0.687681 0.804612 0.968180 0.155932
H9    H     H_    0.652946 0.927859 0.057306 0.154018
H10   H     H_    0.709982 0.954298 0.863718 0.162401
H11   H     H_    0.544750 0.981272 0.883327 0.174695
H12   H     H_    0.076904 0.650291 0.425694 0.166107
H13   H     H_    0.492111 0.797615 0.776261 0.182139
H14   H     H_    0.656552 0.782964 0.742588 0.154637
H15   H     H_    0.311924 0.195787 0.032187 0.155927
H16   H     H_    0.473528 0.161110 0.007932 0.170047
H17   H     H_    0.345684 0.072331 0.942928 0.153911
H18   H     H_    0.454130 0.018638 0.116714 0.174731
H19   H     H_    0.289050 0.046028 0.136629 0.162373
H20   H     H_    0.343132 0.217216 0.257664 0.154627
H21   H     H_    0.507457 0.202279 0.223687 0.182151
H22   H     H_    0.963356 0.393705 0.913686 0.159494
H23   H     H_    0.088961 0.510015 0.701534 0.108889
H24   H     H_    0.012755 0.260414 0.895503 0.166753
H25   H     H_    0.921646 0.315447 0.017367 0.141344
H26   H     H_    0.147231 0.303634 0.080558 0.144936
H27   H     H_    0.097478 0.436498 0.103774 0.159133
H28   H     H_    0.185314 0.456395 0.914630 0.136666
H29   H     H_    0.242154 0.325560 0.893971 0.154108
H30   H     H_    0.986687 0.740110 0.104837 0.166698
H31   H     H_    0.036696 0.606966 0.086303 0.159567
H32   H     H_    0.077970 0.685633 0.982912 0.141371
H33   H     H_    0.902572 0.564054 0.896319 0.159023
H34   H     H_    0.911038 0.489979 0.298465 0.108903
H35   H     H_    0.852364 0.696788 0.919590 0.144947
H36   H     H_    0.757621 0.674523 0.106152 0.154140
H37   H     H_    0.814749 0.543771 0.085328 0.136674
H38   H     H_    0.930213 0.659795 0.624026 0.104965
H39   H     H_    0.069786 0.340199 0.375973 0.104954
H40   H     H_    0.381860 0.965996 0.278370 0.153689
H41   H     H_    0.617590 0.034059 0.721773 0.153686
H42   H     H_    0.350948 0.440275 0.791901 0.125977
N1    N     N_R   0.523540 0.519360 0.790140 -0.242150
N2    N     N_R   0.476460 0.480640 0.209860 -0.242139
O1    O     O_R   0.506670 0.354460 0.582000 -0.458401
O2    O     O_R   0.423705 0.775916 0.233915 -0.721022
O3    O     O_2   0.730117 0.237567 0.641592 -0.546337
O4    O     O_R   0.576339 0.224283 0.766010 -0.720880
O5    O     O_R   0.493330 0.645540 0.418000 -0.458385
O6    O     O_R   0.490800 0.341410 0.386200 -0.531688
O7    O     O_R   0.509200 0.658590 0.613800 -0.531718
O8    O     O_R   0.324790 0.506500 0.597880 -0.520475
O9    O     O_R   0.675210 0.493500 0.402120 -0.520443
O10   O     O_R   0.308910 0.493440 0.402080 -0.505567
O11   O     O_R   0.691090 0.506560 0.597920 -0.505626
O12   O     O_2   0.270020 0.762037 0.358240 -0.546275

loop_
_geom_bond_atom_site_label_1
_geom_bond_atom_site_label_2
_ccdc_geom_bond_type
C26   O4    S    
Cu2   O9    S    
C21   H41   S    
C7    O8    A    
C11   H1    S    
C35   C36   S    
C24   C27   S    
C20   C41   A    
C28   H10   S    
Cu1   Cu2   S    
C3    N2    A    
C17   H39   S    
C33   C42   S    
C39   H31   S    
C28   C29   S    
C9    C16   S    
C9    H23   S    
C32   H15   S    
Cu1   O8    S    
C5    C6    A    
C11   C14   S    
C25   O12   D    
C38   H33   S    
C10   C17   S    
C23   C40   A    
C3    H2    S    
C16   H38   S    
C15   C17   S    
C23   C26   S    
C33   H29   S    
C35   H27   S    
Cu2   O5    S    
C20   H40   S    
C12   O5    A    
H6    O4    S    
C18   C24   A    
Cu1   N1    S    
C8    O11   A    
C30   H21   S    
C36   H25   S    
C25   C34   S    
C26   O3    D    
C7    C15   S    
C5    C43   A    
C1    O1    A    
C34   C41   A    
C42   C44   A    
C36   H24   S    
C38   C39   S    
C1    C19   S    
C7    O10   A    
C39   H32   S    
C19   C22   A    
C4    C6    A    
C10   C14   S    
C10   H34   S    
C13   H12   S    
C29   H9    S    
C28   H11   S    
C37   C43   S    
C2    N1    A    
C19   C23   A    
C37   C38   S    
C2    H3    S    
H5    O2    S    
C9    C11   S    
C31   C32   S    
C2    C43   A    
C39   H30   S    
C18   C34   A    
C12   O7    A    
C30   H20   S    
Cu1   O11   S    
Cu2   N2    S    
C40   C41   A    
C20   C22   A    
C35   H26   S    
C13   C15   S    
C38   H35   S    
C6    C42   A    
C14   C16   S    
C37   H36   S    
C21   C24   A    
C44   N2    A    
C4    N1    A    
C44   H4    S    
C31   H19   S    
Cu2   O10   S    
C11   C17   S    
C25   O2    S    
C8    C14   S    
C22   C30   S    
C31   H18   S    
C8    O9    A    
C32   H17   S    
C3    C5    A    
C10   C13   S    
C36   H22   S    
C4    H42   S    
C27   H14   S    
C9    C15   S    
C32   H16   S    
C27   H13   S    
C30   C31   S    
C21   C40   A    
C29   H7    S    
C1    O6    A    
C33   C35   S    
Cu1   O1    S    
C33   H28   S    
Cu2   O6    S    
C29   H8    S    
C13   C16   S    
C12   C18   S    
C27   C28   S    
C37   H37   S    
Cu1   O7    S    
