data_mof_unit_67751.cif
_audit_creation_date              2012-12-10T16:48:00-0500
_audit_creation_method            fapswitch 2.2
_symmetry_space_group_name_H-M    P1
_symmetry_Int_Tables_number       1
_space_group_crystal_system       triclinic
_cell_length_a                    7.779783
_cell_length_b                    8.648695
_cell_length_c                    10.789891
_cell_angle_alpha                 92.114487
_cell_angle_beta                  85.34667
_cell_angle_gamma                 93.741924
_cell_volume                      721.697246288

loop_
_atom_site_label
_atom_site_type_symbol
_atom_type_description
_atom_site_fract_x
_atom_site_fract_y
_atom_site_fract_z
_atom_type_partial_charge
C1    C     C_R   0.544192 0.794653 0.496530 0.910507
C2    C     C_2   0.556319 0.954275 0.470838 -0.244860
C3    C     C_R   0.369261 0.624349 0.091874 0.155937
C4    C     C_R   0.192015 0.579978 0.109161 -0.147632
C5    C     C_R   0.069802 0.683118 0.083934 -0.140500
C6    C     C_R   0.123515 0.830018 0.041504 -0.082724
C7    C     C_R   0.299503 0.874398 0.023648 -0.161574
C8    C     C_R   0.422178 0.771220 0.047154 -0.144653
C9    C     C_R   0.668447 0.002080 0.358159 0.152597
C10   C     C_R   0.846170 0.034685 0.364736 -0.068480
C11   C     C_R   0.947003 0.098838 0.264069 -0.160595
C12   C     C_2   0.433178 0.045995 0.524631 -0.246338
C13   C     C_R   0.870031 0.132068 0.156419 -0.145687
C14   C     C_R   0.693483 0.097157 0.147961 -0.160601
C15   C     C_R   0.592637 0.033282 0.248712 -0.168694
C16   C     C_R   0.294932 0.006178 0.625086 0.160080
C17   C     C_R   0.301639 0.084883 0.741247 -0.139846
C18   C     C_R   0.152275 0.096072 0.821251 -0.138074
C19   C     C_R   0.996961 0.020111 0.790547 -0.102825
C20   C     C_R   0.990250 0.935418 0.678472 -0.190023
C21   C     C_R   0.136930 0.932260 0.594507 -0.090273
C22   C     C_R   0.500289 0.492890 0.736575 0.924575
C23   C     C_R   0.454436 0.205945 0.501780 0.913480
C24   C     C_R   0.498904 0.501166 0.262550 0.884884
C25   C     C_2   0.633562 0.473353 0.057108 -0.257659
C26   C     C_2   0.499988 0.523087 0.131717 -0.147095
C27   C     C_2   0.642902 0.485945 0.923781 -0.194181
C28   C     C_2   0.498762 0.464602 0.865383 -0.312311
H1    H     H_    0.739562 0.419631 0.094507 0.178500
H2    H     H_    0.558234 0.807209 0.034415 0.139112
H3    H     H_    0.903624 0.018926 0.450070 0.119741
H4    H     H_    0.083826 0.126275 0.270647 0.119521
H5    H     H_    0.947059 0.185191 0.079651 0.107804
H6    H     H_    0.634186 0.122487 0.064288 0.128511
H7    H     H_    0.454653 0.012502 0.243302 0.125026
H8    H     H_    0.419863 0.147688 0.765434 0.105637
H9    H     H_    0.157215 0.164617 0.906893 0.102996
H10   H     H_    0.881545 0.027966 0.853055 0.115804
H11   H     H_    0.869096 0.878521 0.654114 0.137869
H12   H     H_    0.768098 0.513153 0.874578 0.180421
H13   H     H_    0.124996 0.878590 0.503146 0.140978
H14   H     H_    0.376083 0.426255 0.913151 0.154380
H15   H     H_    0.014157 0.385314 0.403659 0.190982
H16   H     H_    0.985573 0.613245 0.597280 0.188545
H17   H     H_    0.148951 0.466764 0.143715 0.120072
H18   H     H_    0.933600 0.650791 0.099375 0.145688
H19   H     H_    0.028060 0.909172 0.023517 0.137310
H20   H     H_    0.341980 0.989588 0.994335 0.125251
N1    N     N_2   0.950320 0.457950 0.466680 -0.171751
N2    N     N_2   0.049680 0.542050 0.533320 -0.179201
O1    O     O_R   0.389250 0.738570 0.508180 -0.616131
O2    O     O_R   0.678390 0.711630 0.486820 -0.636240
O3    O     O_R   0.355470 0.513470 0.691600 -0.607462
O4    O     O_R   0.644610 0.486520 0.670240 -0.629312
O5    O     O_R   0.321610 0.288370 0.513180 -0.625213
O6    O     O_R   0.610750 0.261430 0.491820 -0.601825
O7    O     O_R   0.355390 0.513480 0.329760 -0.632860
O8    O     O_R   0.644530 0.486530 0.308400 -0.612671
Zn1   Zn    Zn3+2 0.306940 0.517990 0.514260 0.946026
Zn2   Zn    Zn3+2 0.693060 0.482010 0.485740 0.945057

loop_
_geom_bond_atom_site_label_1
_geom_bond_atom_site_label_2
_ccdc_geom_bond_type
C14   H6    S    
C13   H5    S    
C6    C7    A    
C17   H8    S    
O5    Zn1   S    
C25   C27   S    
C11   C13   A    
C5    H18   S    
C19   C20   A    
H16   N2    S    
C27   H12   S    
C2    C12   D    
C7    H20   S    
C17   C18   A    
O3    Zn1   S    
C8    H2    S    
C7    C8    A    
C22   O4    A    
O4    Zn2   S    
C13   C14   A    
C23   O5    A    
C4    C5    A    
C1    O1    A    
C12   C23   S    
C16   C21   A    
N1    Zn2   S    
C21   H13   S    
N2    Zn1   S    
C9    C10   A    
C28   H14   S    
C19   H10   S    
C18   H9    S    
C24   C26   S    
C11   H4    S    
C18   C19   A    
C22   O3    A    
C4    H17   S    
C3    C8    A    
C9    C15   A    
C5    C6    A    
C1    O2    A    
O7    Zn1   S    
O1    Zn1   S    
C6    H19   S    
O8    Zn2   S    
C3    C4    A    
C12   C16   S    
C23   O6    A    
C20   C21   A    
C25   H1    S    
C24   O8    A    
C1    C2    S    
C10   C11   A    
C15   H7    S    
C27   C28   D    
N1    N2    D    
C20   H11   S    
C14   C15   A    
H15   N1    S    
C22   C28   S    
O2    Zn2   S    
C25   C26   D    
C2    C9    S    
C10   H3    S    
C3    C26   S    
O6    Zn2   S    
C16   C17   A    
C24   O7    A    
