data_mof_unit_11217.cif
_audit_creation_date              2012-12-10T18:06:40-0500
_audit_creation_method            fapswitch 2.2
_symmetry_space_group_name_H-M    P1
_symmetry_Int_Tables_number       1
_space_group_crystal_system       triclinic
_cell_length_a                    12.617627
_cell_length_b                    13.172534
_cell_length_c                    15.257137
_cell_angle_alpha                 83.866069
_cell_angle_beta                  98.874748
_cell_angle_gamma                 96.733123
_cell_volume                      2477.98798102

loop_
_atom_site_label
_atom_site_type_symbol
_atom_type_description
_atom_site_fract_x
_atom_site_fract_y
_atom_site_fract_z
_atom_type_partial_charge
C1    C     C_R   0.445337 0.308230 0.514510 0.846009
C2    C     C_R   0.697758 0.546401 0.931241 0.160459
C3    C     C_R   0.592239 0.570013 0.895741 0.086061
C4    C     C_R   0.435881 0.515478 0.334776 0.919199
C5    C     C_R   0.762683 0.510900 0.876670 -0.182399
C6    C     C_R   0.720394 0.491801 0.789220 -0.208301
C7    C     C_R   0.548089 0.539704 0.811919 -0.247609
C8    C     C_R   0.730246 0.938753 0.542145 -0.244699
C9    C     C_R   0.593534 0.801488 0.497767 -0.141478
C10   C     C_R   0.302645 0.163155 0.516795 -0.189441
C11   C     C_R   0.270116 0.058685 0.519945 -0.131084
C12   C     C_R   0.472210 0.589264 0.096275 0.045400
C13   C     C_R   0.346884 0.989179 0.530127 -0.184366
C14   C     C_R   0.458437 0.023849 0.541186 0.094544
C15   C     C_R   0.490297 0.127856 0.554147 0.081884
C16   C     C_R   0.556858 0.692249 0.490767 0.897107
C17   C     C_R   0.539588 0.960299 0.535966 0.073849
C18   C     C_R   0.649802 0.996890 0.556962 0.106422
C19   C     C_R   0.677909 0.092993 0.588870 -0.246079
C20   C     C_R   0.598850 0.158169 0.587521 -0.188649
C21   C     C_R   0.513949 0.863996 0.504452 -0.308989
C22   C     C_R   0.702750 0.842430 0.510100 0.388541
C23   C     C_R   0.372493 0.626182 0.059024 -0.030467
C24   C     C_R   0.412820 0.198578 0.531231 -0.113363
C25   C     C_R   0.141173 0.637849 0.630153 -0.295101
C26   C     C_R   0.762737 0.389002 0.385583 0.241701
C27   C     C_R   0.860707 0.386354 0.351814 0.132967
C28   C     C_R   0.565688 0.490205 0.664435 0.843169
C29   C     C_R   0.953392 0.435081 0.395115 -0.230869
C30   C     C_R   0.952803 0.482914 0.472312 -0.027547
C31   C     C_R   0.853080 0.495238 0.498672 0.189294
C32   C     C_R   0.049045 0.524681 0.520095 0.016849
C33   C     C_R   0.045535 0.589412 0.587631 0.182806
C34   C     C_R   0.554484 0.589881 0.042686 0.077673
C35   C     C_R   0.946689 0.605429 0.610676 -0.215579
C36   C     C_R   0.851751 0.558225 0.567047 -0.118128
C37   C     C_R   0.149748 0.503059 0.503580 0.002008
C38   C     C_R   0.238280 0.619214 0.605965 0.007964
C39   C     C_R   0.404748 0.544150 0.238462 -0.220188
C40   C     C_R   0.611673 0.503973 0.757180 -0.057502
C41   C     C_R   0.288393 0.620366 0.111433 0.347881
C42   C     C_R   0.304126 0.579180 0.200989 0.347576
C43   C     C_R   0.484809 0.546146 0.184348 -0.303113
C44   C     C_3   0.664062 0.324514 0.342280 -0.372010
C45   C     C_R   0.528041 0.609117 0.949677 0.046531
C46   C     C_3   0.672337 0.209047 0.363511 -0.836457
C47   C     C_3   0.872329 0.336101 0.268683 -0.404000
C48   C     C_3   0.937686 0.243654 0.291951 -0.822985
C49   C     C_3   0.431510 0.733664 0.828236 -0.427282
C50   C     C_3   0.528153 0.815171 0.828009 -0.797985
C51   C     C_R   0.438053 0.664766 0.915524 0.124036
C52   C     C_R   0.359926 0.669715 0.970470 -0.192043
C53   C     C_R   0.661433 0.569506 0.077847 -0.213113
C54   C     C_R   0.733753 0.552800 0.021795 -0.212580
Cl1   Cl    Cl    0.806905 0.781774 0.480354 -0.627962
Cl2   Cl    Cl    0.161628 0.662807 0.065465 -0.577026
Cl3   Cl    Cl    0.195259 0.570900 0.262958 -0.569716
H1    H     H_    0.289522 0.708577 0.943427 0.196031
H2    H     H_    0.313309 0.656729 0.636889 0.123895
H3    H     H_    0.462269 0.538268 0.790881 0.158446
H4    H     H_    0.942516 0.655416 0.661803 0.165772
H5    H     H_    0.140811 0.689522 0.680793 0.149469
H6    H     H_    0.160421 0.446679 0.460323 0.133687
H7    H     H_    0.025492 0.437263 0.364865 0.197113
H8    H     H_    0.778758 0.577764 0.584686 0.217681
H9    H     H_    0.771867 0.465391 0.747642 0.158982
H10   H     H_    0.814777 0.536535 0.050369 0.173548
H11   H     H_    0.557449 0.511732 0.211771 0.181020
H12   H     H_    0.844846 0.495641 0.902177 0.156485
H13   H     H_    0.691476 0.567875 0.148145 0.161509
H14   H     H_    0.709504 0.177884 0.312276 0.260308
H15   H     H_    0.720854 0.193010 0.429557 0.267757
H16   H     H_    0.590639 0.167222 0.364263 0.255959
H17   H     H_    0.588908 0.338543 0.360989 0.272270
H18   H     H_    0.650065 0.344859 0.269312 0.159145
H19   H     H_    0.022572 0.268360 0.318866 0.255462
H20   H     H_    0.902264 0.188102 0.342195 0.262970
H21   H     H_    0.937763 0.204457 0.231048 0.258654
H22   H     H_    0.795045 0.311246 0.228558 0.208186
H23   H     H_    0.761517 0.120189 0.609759 0.151193
H24   H     H_    0.914498 0.393406 0.223446 0.229613
H25   H     H_    0.534964 0.860966 0.886053 0.265033
H26   H     H_    0.603885 0.779084 0.830478 0.262509
H27   H     H_    0.517514 0.867598 0.765941 0.246558
H28   H     H_    0.424809 0.690874 0.769196 0.196342
H29   H     H_    0.357740 0.774611 0.817848 0.204957
H30   H     H_    0.814352 0.969248 0.553469 0.170033
H31   H     H_    0.431226 0.835928 0.483616 0.186035
H32   H     H_    0.241524 0.216213 0.501445 0.157844
H33   H     H_    0.316762 0.909065 0.530343 0.141429
H34   H     H_    0.185087 0.031648 0.510451 0.158425
H35   H     H_    0.623961 0.232793 0.611548 0.175442
N1    N     N_R   0.239390 0.551900 0.544730 -0.099410
N2    N     N_R   0.759950 0.448600 0.455730 -0.155345
O1    O     O_R   0.374950 0.371210 0.521360 -0.614021
O2    O     O_R   0.542050 0.338030 0.492790 -0.629417
O3    O     O_R   0.368720 0.526070 0.390200 -0.546958
O4    O     O_R   0.535820 0.492890 0.361630 -0.645197
O5    O     O_R   0.457950 0.661970 0.507210 -0.619354
O6    O     O_R   0.625050 0.628790 0.478640 -0.569439
O7    O     O_R   0.464180 0.507110 0.638370 -0.617333
O8    O     O_R   0.631280 0.473930 0.609800 -0.650110
Zn1   Zn    Zn3+2 0.388420 0.522150 0.519080 0.968679
Zn2   Zn    Zn3+2 0.611580 0.477850 0.480920 0.936321

loop_
_geom_bond_atom_site_label_1
_geom_bond_atom_site_label_2
_ccdc_geom_bond_type
C26   N2    A    
O5    Zn1   S    
C4    O4    A    
C13   H33   S    
C27   C29   A    
C41   C42   A    
C48   H19   S    
C19   C20   A    
C47   H22   S    
N1    Zn1   S    
C50   H27   S    
C53   C54   A    
C20   H35   S    
C12   C23   A    
C26   C27   A    
C9    C16   S    
C12   C43   A    
C3    C7    A    
C30   C31   A    
C9    C22   A    
C45   C51   A    
O6    Zn2   S    
C18   C19   A    
C48   H21   S    
C5    H12   S    
C28   O7    A    
C35   C36   A    
C10   H32   S    
C44   C46   S    
C43   H11   S    
C49   C51   S    
C8    C22   A    
C7    C40   A    
C46   H15   S    
C21   H31   S    
N2    Zn2   S    
O7    Zn1   S    
C13   C14   A    
C14   C17   A    
C53   H13   S    
C42   Cl3   S    
C37   H6    S    
O1    Zn1   S    
C50   H26   S    
C39   C42   A    
C15   C20   A    
C26   C44   S    
C51   C52   A    
C49   H28   S    
C2    C54   A    
C36   H8    S    
C16   O6    A    
C39   C43   A    
C54   H10   S    
C10   C24   A    
C3    C45   A    
C8    C18   A    
C48   H20   S    
C44   H18   S    
O8    Zn2   S    
C41   Cl2   S    
C29   C30   A    
C28   O8    A    
C25   C38   A    
C47   C48   S    
C4    C39   S    
C1    O1    A    
C17   C18   A    
C37   N1    A    
C35   H4    S    
C34   C45   A    
C32   C37   A    
C44   H17   S    
C46   H14   S    
O3    Zn1   S    
C52   H1    S    
C34   C53   A    
C15   C24   A    
O2    Zn2   S    
C6    C40   A    
C2    C5    A    
C12   C34   A    
C7    H3    S    
C50   H25   S    
C27   C47   S    
C31   C36   A    
C49   H29   S    
C16   O5    A    
C22   Cl1   S    
C31   N2    A    
C23   C41   A    
C8    H30   S    
C32   C33   A    
C2    C3    A    
C30   C32   A    
C11   C13   A    
C9    C21   A    
C23   C52   A    
C5    C6    A    
C1    O2    A    
O4    Zn2   S    
C38   N1    A    
C33   C35   A    
C25   H5    S    
C47   H24   S    
C19   H23   S    
C17   C21   A    
C29   H7    S    
C10   C11   A    
C38   H2    S    
C11   H34   S    
C6    H9    S    
C1    C24   S    
C49   C50   S    
C28   C40   S    
C14   C15   A    
C4    O3    A    
C46   H16   S    
C25   C33   A    
