data_mof_unit_20139.cif
_audit_creation_date              2012-12-10T20:31:58-0500
_audit_creation_method            fapswitch 2.2
_symmetry_space_group_name_H-M    P1
_symmetry_Int_Tables_number       1
_space_group_crystal_system       triclinic
_cell_length_a                    9.867858
_cell_length_b                    10.662785
_cell_length_c                    15.422648
_cell_angle_alpha                 90.118648
_cell_angle_beta                  68.03945
_cell_angle_gamma                 90.157958
_cell_volume                      1505.00215521

loop_
_atom_site_label
_atom_site_type_symbol
_atom_type_description
_atom_site_fract_x
_atom_site_fract_y
_atom_site_fract_z
_atom_type_partial_charge
C1    C     C_R   0.498271 0.740150 0.503345 0.888840
C2    C     C_R   0.706704 0.621449 0.043326 0.146224
C3    C     C_R   0.568935 0.564882 0.093453 0.050769
C4    C     C_R   0.408360 0.502499 0.676157 0.868998
C5    C     C_R   0.811775 0.628054 0.085277 -0.213560
C6    C     C_R   0.779686 0.582336 0.175518 -0.219555
C7    C     C_R   0.546386 0.508475 0.179291 -0.237902
C8    C     C_R   0.360302 0.935366 0.533944 0.081772
C9    C     C_R   0.489197 0.871303 0.520809 -0.105297
C10   C     C_R   0.607849 0.935661 0.529201 -0.228299
C11   C     C_R   0.606958 0.065230 0.530114 -0.216084
C12   C     C_R   0.395176 0.564466 0.917976 0.115011
C13   C     C_R   0.487039 0.128873 0.523154 -0.139297
C14   C     C_R   0.358028 0.063475 0.536710 0.140983
C15   C     C_3   0.253034 0.070583 0.487368 -0.031095
C16   C     C_R   0.497304 0.259901 0.504428 0.881196
C17   C     C_3   0.258343 0.927845 0.482765 -0.478849
C18   C     C_R   0.902265 0.591109 0.546683 0.227232
C19   C     C_R   0.959119 0.417826 0.446333 -0.140171
C20   C     C_R   0.103244 0.418109 0.446081 -0.147771
C21   C     C_R   0.045164 0.591651 0.546031 0.215742
C22   C     C_3   0.994294 0.619632 0.647655 -0.510060
C23   C     C_R   0.252780 0.520620 0.972376 0.181943
C24   C     C_3   0.839762 0.615875 0.649324 -0.534216
C25   C     C_R   0.591136 0.501571 0.323760 0.867549
C26   C     C_R   0.348686 0.514988 0.777765 -0.052611
C27   C     C_R   0.645124 0.524449 0.223218 -0.060241
C28   C     C_R   0.157041 0.482890 0.929065 -0.223654
C29   C     C_R   0.205324 0.479033 0.831862 -0.208478
C30   C     C_R   0.439062 0.562936 0.820739 -0.269288
C31   C     C_3   0.103752 0.122126 0.550367 -0.864339
C32   C     C_3   0.875746 0.737915 0.898607 -0.934404
C33   C     C_R   0.494430 0.595964 0.961567 0.014841
C34   C     C_R   0.458088 0.562769 0.056018 0.066473
C35   C     C_R   0.311685 0.528912 0.110166 -0.217026
C36   C     C_R   0.210142 0.510179 0.068836 -0.252600
C37   C     C_R   0.629657 0.656209 0.913433 -0.238565
C38   C     C_R   0.734633 0.670965 0.953551 0.180064
H1    H     H_    0.100313 0.480715 0.111883 0.147765
H2    H     H_    0.018027 0.542639 0.688348 0.219649
H3    H     H_    0.449557 0.453451 0.214967 0.146267
H4    H     H_    0.029013 0.714553 0.661130 0.196512
H5    H     H_    0.777158 0.534261 0.689289 0.223412
H6    H     H_    0.783192 0.707890 0.666349 0.190685
H7    H     H_    0.857426 0.596319 0.209018 0.157184
H8    H     H_    0.047516 0.450681 0.970196 0.151969
H9    H     H_    0.132681 0.444105 0.799273 0.153411
H10   H     H_    0.546818 0.591908 0.776536 0.146933
H11   H     H_    0.272145 0.518014 0.185127 0.147942
H12   H     H_    0.917219 0.671813 0.050322 0.162189
H13   H     H_    0.653902 0.696670 0.845260 0.153305
H14   H     H_    0.058895 0.070087 0.617584 0.242923
H15   H     H_    0.113916 0.222344 0.566325 0.263107
H16   H     H_    0.025993 0.113938 0.513979 0.232970
H17   H     H_    0.890193 0.819685 0.939031 0.243308
H18   H     H_    0.969187 0.672739 0.883881 0.250835
H19   H     H_    0.877212 0.773473 0.830648 0.245026
H20   H     H_    0.705467 0.887408 0.527209 0.169535
H21   H     H_    0.704386 0.114194 0.528219 0.172471
H22   H     H_    0.300025 0.116677 0.417746 0.161993
H23   H     H_    0.154043 0.880133 0.524699 0.206789
H24   H     H_    0.312466 0.891241 0.410386 0.184953
H25   H     H_    0.928959 0.349659 0.404650 0.144872
H26   H     H_    0.181775 0.350134 0.404165 0.149168
N1    N     N_R   0.856900 0.500860 0.500610 -0.102816
N2    N     N_R   0.142540 0.500820 0.500610 -0.105019
O1    O     O_R   0.385310 0.683210 0.499990 -0.610220
O2    O     O_R   0.614650 0.683240 0.500000 -0.622659
O3    O     O_R   0.319830 0.499970 0.632240 -0.618311
O4    O     O_R   0.549170 0.500000 0.632250 -0.612926
O5    O     O_R   0.385350 0.316760 0.500000 -0.622189
O6    O     O_R   0.614690 0.316790 0.500010 -0.618084
O7    O     O_R   0.450830 0.500000 0.367750 -0.614449
O8    O     O_R   0.680170 0.500030 0.367760 -0.613610
Zn1   Zn    Zn3+2 0.346870 0.499980 0.499990 0.932756
Zn2   Zn    Zn3+2 0.653130 0.500020 0.500010 0.938077

loop_
_geom_bond_atom_site_label_1
_geom_bond_atom_site_label_2
_ccdc_geom_bond_type
C6    H7    S    
C21   N2    A    
C18   C21   A    
C15   H22   S    
C35   C36   A    
C16   O6    A    
C31   H14   S    
O6    Zn2   S    
C4    O4    A    
C18   N1    A    
C12   C23   A    
C28   H8    S    
N1    Zn2   S    
O8    Zn2   S    
C29   H9    S    
C18   C24   S    
C20   N2    A    
C28   C29   A    
C10   H20   S    
C34   C35   A    
C3    C7    A    
C5    C6    A    
C37   H13   S    
C1    O2    A    
C7    C27   A    
C25   O8    A    
C17   H23   S    
C19   C20   A    
C19   H25   S    
C8    C9    A    
C35   H11   S    
C19   N1    A    
C32   C38   S    
C9    C10   A    
C32   H17   S    
C13   C14   A    
O7    Zn1   S    
C16   O5    A    
C32   H19   S    
C11   H21   S    
C4    O3    A    
C1    C9    S    
C3    C34   A    
C33   C37   A    
C20   H26   S    
C37   C38   A    
C17   H24   S    
C2    C38   A    
C6    C27   A    
C22   H2    S    
C33   C34   A    
C23   C28   A    
C31   H15   S    
C26   C30   A    
O4    Zn2   S    
C24   H6    S    
C22   C24   S    
C5    H12   S    
C2    C5    A    
C25   C27   S    
C30   H10   S    
C15   C17   S    
C8    C14   A    
C12   C30   A    
C36   H1    S    
C4    C26   S    
C15   C31   S    
O2    Zn2   S    
C8    C17   S    
C2    C3    A    
O5    Zn1   S    
C11   C13   A    
C22   H4    S    
N2    Zn1   S    
C1    O1    A    
O3    Zn1   S    
C25   O7    A    
C7    H3    S    
C31   H16   S    
C10   C11   A    
O1    Zn1   S    
C26   C29   A    
C23   C36   A    
C13   C16   S    
C24   H5    S    
C14   C15   S    
C12   C33   A    
C21   C22   S    
C32   H18   S    
