data_mof_unit_67135.cif
_audit_creation_date              2013-03-05T15:58:56-0500
_audit_creation_method            fapswitch 2.2
_symmetry_space_group_name_H-M    P1
_symmetry_Int_Tables_number       1
_space_group_crystal_system       triclinic
_cell_length_a                    8.381018
_cell_length_b                    12.928939
_cell_length_c                    14.950723
_cell_angle_alpha                 96.819727
_cell_angle_beta                  96.930672
_cell_angle_gamma                 99.631084
_cell_volume                      1569.4640861

loop_
_atom_site_label
_atom_site_type_symbol
_atom_site_description
_atom_site_fract_x
_atom_site_fract_y
_atom_site_fract_z
_atom_type_partial_charge
P1    P     P_3+3 0.998730 0.403530 0.291970 0.511792
O1    O     O_2   0.827880 0.435260 0.277750 -0.344750
O2    O     O_3   0.100280 0.438960 0.391170 -0.372606
O3    O     O_3   0.625580 0.634130 0.333250 -0.417098
O4    O     O_2   0.719036 0.561457 0.179150 -0.422103
O5    O     O_3   0.947263 0.264118 0.268104 -0.579672
O6    O     O_3   0.623518 0.747235 0.187004 -0.512663
H1    H     H_    0.773100 0.818602 0.306321 0.144249
C1    C     C_3   0.646890 0.933030 0.249806 -0.943444
H2    H     H_    0.701689 0.988907 0.312237 0.209899
H3    H     H_    0.713118 0.951425 0.192739 0.287375
P2    P     P_3+3 0.687380 0.751030 0.571310 0.473274
P3    P     P_3+3 0.113893 0.829704 0.379714 0.435006
O7    O     O_2   0.857130 0.766340 0.543890 -0.378184
O8    O     O_3   0.056550 0.691050 0.379010 -0.319309
O9    O     O_2   0.012234 0.880447 0.446385 -0.404324
O10   O     O_3   0.737453 0.780052 0.688855 -0.541538
O11   O     O_3   0.054245 0.881423 0.276606 -0.589835
C2    C     C_3   0.090608 0.838410 0.189199 0.432476
C3    C     C_3   0.132595 0.936900 0.135534 -0.361189
C4    C     C_3   0.153083 0.782168 0.671806 0.364741
H4    H     H_    0.163738 0.756362 0.599423 0.121078
H5    H     H_    0.025803 0.762683 0.685315 0.177041
C5    C     C_3   0.207705 0.901886 0.691608 -0.862663
H6    H     H_    0.336094 0.925737 0.680289 0.222566
H7    H     H_    0.132200 0.939635 0.644339 0.255348
H8    H     H_    0.194882 0.931229 0.762868 0.287240
Ba1   Ba    Ba6+2 0.843750 0.550210 0.455600 1.574327
C6    C     C_3   0.970274 0.214529 0.345914 0.383544
H9    H     H_    0.849637 0.192937 0.368188 0.094777
H10   H     H_    0.061532 0.261424 0.401274 0.184345
C7    C     C_3   0.031808 0.112947 0.323157 -0.960036
H11   H     H_    0.941571 0.059809 0.271678 0.286262
H12   H     H_    0.047117 0.073908 0.385002 0.270618
H13   H     H_    0.149788 0.128602 0.296534 0.265110
C8    C     C_3   0.599540 0.800339 0.727485 0.440019
H14   H     H_    0.568892 0.742093 0.774333 0.138659
H15   H     H_    0.491206 0.797748 0.676740 0.076249
C9    C     C_3   0.639970 0.908517 0.782485 -1.013579
H16   H     H_    0.749294 0.913753 0.833811 0.289251
H17   H     H_    0.535470 0.924752 0.817597 0.270731
H18   H     H_    0.665451 0.966249 0.734644 0.235509
P4    P     P_3+3 0.190990 0.596560 0.708040 0.458464
O12   O     O_2   0.361830 0.564780 0.722310 -0.406048
O13   O     O_3   0.089430 0.561130 0.608830 -0.400214
O14   O     O_3   0.564130 0.365960 0.666760 -0.294263
O15   O     O_3   0.251847 0.734337 0.729833 -0.589629
P5    P     P_3+3 0.087600 0.170714 0.621740 0.448241
O16   O     O_3   0.601940 0.368240 0.453770 -0.358228
O17   O     O_3   0.133170 0.309040 0.621000 -0.380547
O18   O     O_2   0.207559 0.121113 0.566609 -0.374313
O19   O     O_3   0.140961 0.143435 0.732404 -0.530936
Ba2   Ba    Ba6+2 0.346090 0.449880 0.544410 1.596071
P6    P     P_3+3 0.585924 0.617512 0.215248 0.421095
C10   C     C_3   0.652512 0.820496 0.268366 0.574349
H19   H     H_    0.559497 0.802942 0.313439 0.024189
H20   H     H_    0.519862 0.945613 0.234215 0.253636
O20   O     O_3   0.587780 0.631850 0.546230 -0.348712
C11   C     C_3   0.430355 0.282031 0.266507 0.434346
H21   H     H_    0.313475 0.300229 0.286262 0.067329
H22   H     H_    0.527986 0.353472 0.285292 0.139565
C12   C     C_3   0.409143 0.252054 0.163641 -1.044663
H23   H     H_    0.307285 0.183761 0.141625 0.250272
H24   H     H_    0.380705 0.319404 0.129110 0.226655
H25   H     H_    0.523529 0.230680 0.142708 0.275843
P7    P     P_3+3 0.506907 0.232770 0.426347 0.436136
O21   O     O_2   0.332590 0.233690 0.456160 -0.387309
O22   O     O_3   0.472797 0.196717 0.307960 -0.584047
H26   H     H_    0.228257 0.990831 0.185905 0.089545
C13   C     C_3   0.142930 0.234123 0.794788 0.474428
H27   H     H_    0.237436 0.300599 0.783815 0.169190
H28   H     H_    0.021849 0.258903 0.787982 0.041708
C14   C     C_3   0.185208 0.209930 0.891290 -0.963916
H29   H     H_    0.308647 0.189100 0.900727 0.302455
H30   H     H_    0.183686 0.280277 0.941288 0.221542
H31   H     H_    0.096113 0.142092 0.905010 0.259032
P8    P     P_3+3 0.614653 0.382195 0.787003 0.477294
C15   C     C_3   0.637766 0.184724 0.782394 0.447517
H32   H     H_    0.712681 0.212000 0.730262 0.083679
O23   O     O_2   0.496479 0.449220 0.825836 -0.419339
O24   O     O_3   0.549270 0.258546 0.819566 -0.526324
H33   H     H_    0.547922 0.114250 0.747796 0.106599
H34   H     H_    0.832934 0.221073 0.897432 0.272155
C16   C     C_3   0.748030 0.152041 0.858463 -1.099541
H35   H     H_    0.825912 0.099663 0.829329 0.254151
H36   H     H_    0.673878 0.111505 0.905235 0.296910
C17   C     C_R   0.832781 0.443828 0.837438 0.143538
C18   C     C_R   0.906373 0.437298 0.926163 -0.031491
C19   C     C_R   0.048630 0.443296 0.109648 -0.016385
C20   C     C_R   0.885556 0.393900 0.078510 -0.102360
C21   C     C_R   0.814641 0.393946 0.989595 -0.204963
C22   C     C_R   0.116823 0.453153 0.202562 0.281343
H37   H     H_    0.808692 0.355569 0.122289 0.172199
H38   H     H_    0.686142 0.360360 0.971612 0.194249
C23   C     C_R   0.283430 0.495026 0.228147 -0.483932
C24   C     C_R   0.089955 0.538870 0.802906 0.161862
C25   C     C_R   0.167524 0.533927 0.891983 -0.024989
C26   C     C_R   0.074142 0.484037 0.954345 0.002696
C27   C     C_R   0.328418 0.586088 0.923943 -0.025605
C28   C     C_R   0.400309 0.584165 0.012642 -0.111424
C29   C     C_R   0.310980 0.535735 0.075205 -0.010752
C30   C     C_R   0.145503 0.486105 0.046154 -0.002303
C31   C     C_R   0.379828 0.539767 0.167099 0.257541
C32   C     C_R   0.920893 0.512280 0.788353 -0.367966
H39   H     H_    0.526040 0.623764 0.031865 0.176955
H40   H     H_    0.400126 0.631518 0.881822 0.163251
H41   H     H_    0.336574 0.500115 0.298567 0.162509
C33   C     C_R   0.772264 0.179016 0.534824 -0.507694
C34   C     C_R   0.420894 0.811442 0.470793 -0.493169
C35   C     C_R   0.395235 0.985342 0.433550 -0.220482
C36   C     C_R   0.328457 0.878948 0.430865 0.248516
C37   C     C_R   0.581034 0.849162 0.515291 0.196630
C38   C     C_R   0.648110 0.959957 0.521343 -0.051437
C39   C     C_R   0.552847 0.028412 0.479449 -0.010717
C40   C     C_R   0.616023 0.138795 0.486223 0.169971
C41   C     C_R   0.871138 0.112732 0.571394 0.148250
C42   C     C_R   0.806851 0.004537 0.567069 -0.201980
H42   H     H_    0.320419 0.034097 0.400930 0.184178
H43   H     H_    0.880837 0.956287 0.600320 0.180907
H44   H     H_    0.366348 0.728995 0.468559 0.174914
N1    N     N_2   0.945357 0.764054 0.144267 -0.099124
H45   H     H_    0.907530 0.714939 0.189504 0.255946
C43   C     C_3   0.942710 0.703928 0.055181 -0.798710
H46   H     H_    0.856527 0.627382 0.047698 0.254568
H47   H     H_    0.064472 0.686638 0.044638 0.256925
H48   H     H_    0.896534 0.746034 0.000328 0.291436
C44   C     C_2   0.835972 0.591480 0.757952 0.984699
O25   O     O_2   0.850342 0.676054 0.807101 -0.641771
O26   O     O_R   0.720971 0.563205 0.681526 -0.707341
H49   H     H_    0.622055 0.593865 0.692162 0.358037
C45   C     C_2   0.833353 0.292754 0.549807 1.142472
O27   O     O_2   0.886943 0.337803 0.489894 -0.608065
O28   O     O_R   0.844465 0.348246 0.635367 -0.816799
H50   H     H_    0.876347 0.425775 0.631792 0.351539
C46   C     C_2   0.230162 0.778322 0.197581 0.797013
O29   O     O_2   0.339604 0.791729 0.151363 -0.632347
O30   O     O_R   0.219602 0.695465 0.248043 -0.774437
H51   H     H_    0.327527 0.694442 0.285266 0.294242
C47   C     C_2   0.214068 0.922360 0.049295 1.135109
O31   O     O_2   0.142379 0.864064 0.981195 -0.595151
O32   O     O_R   0.372164 0.976362 0.045884 -0.764394
H52   H     H_    0.425110 0.023880 0.104173 0.289375
N2    N     N_2   0.999570 0.996116 0.121466 -0.098178
H53   H     H_    0.041461 0.076641 0.126738 0.185889
C48   C     C_3   0.866577 0.960915 0.046893 -0.795836
H54   H     H_    0.781312 0.018091 0.048284 0.242078
H55   H     H_    0.794472 0.883499 0.054178 0.285702
H56   H     H_    0.912149 0.959101 0.980345 0.252407

loop_
_geom_bond_atom_site_label_1
_geom_bond_atom_site_label_2
_geom_bond_distance
_ccdc_geom_bond_type
P7    O22   1.751896 S    
C17   C18   1.411994 A    
C29   C30   1.419311 A    
Ba2   O20   2.831222 S    
C19   C30   1.423745 A    
O2    Ba2   2.863526 S    
C14   H29   1.108937 S    
C2    C3    1.596837 S    
C5    H8    1.111662 S    
O6    C10   1.419125 S    
C10   H19   1.103275 S    
C35   H42   1.076945 S    
C39   C40   1.423800 A    
C20   C21   1.389265 A    
C43   H46   1.108458 S    
C9    H17   1.110406 S    
C28   H39   1.080069 S    
C12   H23   1.108000 S    
P3    O11   1.801130 S    
P2    Ba1   3.474258 S    
C33   C40   1.402099 A    
O2    Ba1   2.970633 S    
C5    H7    1.102456 S    
P1    O1    1.551650 D    
C6    C7    1.506472 S    
C34   C36   1.398798 A    
C43   H47   1.105892 S    
C2    C46   1.509635 S    
N2    H53   1.031935 S    
C25   C26   1.431044 A    
C41   C42   1.403272 A    
C46   O30   1.378737 S    
O11   C2    1.445712 S    
C15   H33   1.108718 S    
C35   C36   1.389563 A    
C33   C45   1.454949 S    
C12   H24   1.108188 S    
C48   H55   1.103749 S    
O12   Ba2   2.865273 S    
P4    Ba2   3.429495 S    
P5    O18   1.546486 D    
H34   C16   1.098316 S    
C24   C32   1.384929 A    
P2    O10   1.737245 S    
P1    Ba1   3.428933 S    
C13   H27   1.109060 S    
C1    C10   1.520450 S    
O10   C8    1.401754 S    
C1    H2    1.108786 S    
C35   C39   1.403654 A    
P5    C41   1.871128 S    
P2    O20   1.602669 S    
P5    O17   1.766798 S    
P7    O21   1.579531 D    
O13   Ba2   2.971499 S    
C11   H21   1.110224 S    
C29   C31   1.415916 A    
C4    H4    1.112626 S    
C14   H30   1.109447 S    
C3    N2    1.463084 S    
H1    C10   1.103267 S    
C37   C38   1.436537 A    
C25   C27   1.401833 A    
C23   C31   1.402624 A    
C48   H54   1.110960 S    
C9    H18   1.106638 S    
C4    H5    1.102875 S    
Ba1   O13   2.862751 S    
C11   H22   1.109773 S    
O17   Ba2   2.777115 S    
P7    C40   1.883193 S    
P1    O5    1.764136 S    
C7    H13   1.106459 S    
P6    C31   1.859894 S    
C46   O29   1.215337 D    
C5    H6    1.107649 S    
O16   P7    1.775954 S    
C34   C37   1.403643 A    
C9    H16   1.109133 S    
C15   H32   1.111466 S    
C43   H48   1.103894 S    
C26   C30   1.424883 A    
C22   C23   1.399331 A    
P1    O2    1.592916 S    
C7    H12   1.109070 S    
P4    O12   1.551896 D    
C44   O26   1.373068 S    
C6    H9    1.104522 S    
C11   O22   1.402750 S    
P4    O13   1.593072 S    
Ba1   O16   2.831774 S    
O4    P6    1.544044 D    
C27   C28   1.393637 A    
C18   C21   1.400922 A    
P8    O24   1.746160 S    
Ba1   Ba2   4.558205 S    
C24   C25   1.423203 A    
C13   C14   1.525072 S    
P4    C24   1.901240 S    
C16   H35   1.104914 S    
C19   C22   1.419349 A    
C1    H3    1.100408 S    
N1    H45   1.023500 S    
C23   H41   1.082461 S    
C38   C42   1.414179 A    
P2    O7    1.515602 D    
P1    C22   1.867750 S    
P3    O8    1.775020 S    
O28   H50   1.002766 S    
C14   H31   1.108813 S    
C3    H26   1.112946 S    
P3    O9    1.544850 D    
C44   O25   1.222225 D    
P2    C37   1.885772 S    
C48   H56   1.107018 S    
C3    C47   1.536826 S    
C20   H37   1.077472 S    
C38   C39   1.435440 A    
P8    O23   1.541236 D    
N2    C48   1.449958 S    
C27   H40   1.078799 S    
C2    N1    1.454328 S    
C11   C12   1.521980 S    
C12   H25   1.110793 S    
O3    P6    1.735985 S    
C8    C9    1.499392 S    
C16   H36   1.110323 S    
C45   O28   1.375002 S    
O14   P8    1.775409 S    
C13   H28   1.111036 S    
C47   O31   1.218318 D    
Ba1   O20   2.944812 S    
O30   H51   1.006138 S    
C7    H11   1.093807 S    
C33   C41   1.399851 A    
C42   H43   1.072135 S    
O26   H49   0.998248 S    
C6    H10   1.100232 S    
O32   H52   1.010985 S    
C21   H38   1.080085 S    
C47   O32   1.400330 S    
C15   O24   1.407223 S    
O8    Ba1   2.776530 S    
C32   C44   1.427582 S    
O16   Ba2   2.944040 S    
P3    C36   1.842093 S    
O14   Ba2   2.861942 S    
C8    H15   1.103914 S    
C28   C29   1.406679 A    
C1    H20   1.105122 S    
Ba2   O21   2.923792 S    
N1    C43   1.456010 S    
O19   C13   1.405355 S    
C17   C32   1.390489 A    
C15   C16   1.522214 S    
P5    O19   1.753451 S    
O5    C6    1.402100 S    
P8    C17   1.892832 S    
C8    H14   1.107979 S    
O3    Ba1   2.862622 S    
C4    C5    1.521295 S    
O1    Ba1   2.864721 S    
O6    P6    1.764662 S    
O7    Ba1   2.923474 S    
C19   C20   1.405815 A    
P4    O15   1.748553 S    
C18   C26   1.425475 A    
C45   O27   1.215238 D    
C34   H44   1.082209 S    
C4    O15   1.394852 S    
