data_mof_unit_20018.cif
_audit_creation_date              2013-03-05T16:10:40-0500
_audit_creation_method            fapswitch 2.2
_symmetry_space_group_name_H-M    P1
_symmetry_Int_Tables_number       1
_space_group_crystal_system       triclinic
_cell_length_a                    9.851841
_cell_length_b                    10.708728
_cell_length_c                    15.65162
_cell_angle_alpha                 90.198438
_cell_angle_beta                  67.168721
_cell_angle_gamma                 89.950621
_cell_volume                      1521.86960939

loop_
_atom_site_label
_atom_site_type_symbol
_atom_site_description
_atom_site_fract_x
_atom_site_fract_y
_atom_site_fract_z
_atom_type_partial_charge
O1    O     O_R   0.385370 0.683250 0.500010 -0.564343
O2    O     O_R   0.614630 0.316750 0.499990 -0.564352
O3    O     O_R   0.614700 0.683220 0.500000 -0.643993
O4    O     O_R   0.385300 0.316780 0.500000 -0.643992
C1    C     C_R   0.499939 0.740081 0.500100 0.881889
C2    C     C_R   0.500061 0.259919 0.499901 0.881922
O5    O     O_R   0.319830 0.500020 0.632250 -0.584311
O6    O     O_R   0.680170 0.499980 0.367750 -0.584313
O7    O     O_R   0.549160 0.499990 0.632240 -0.570218
O8    O     O_R   0.450840 0.500010 0.367760 -0.570196
C3    C     C_R   0.407779 0.496843 0.675703 0.920642
C4    C     C_R   0.592221 0.503162 0.324296 0.920602
Zn1   Zn    Zn3+2 0.346870 0.500020 0.500000 1.047468
Zn2   Zn    Zn3+2 0.653130 0.499980 0.500000 1.047457
C5    C     C_R   0.349239 0.503530 0.776592 -0.155960
C6    C     C_R   0.650765 0.496496 0.223405 -0.156015
C7    C     C_R   0.214912 0.635800 0.906442 -0.190094
C8    C     C_R   0.785196 0.364296 0.093525 -0.190090
C9    C     C_R   0.231726 0.584646 0.821490 -0.232392
C10   C     C_R   0.768335 0.415434 0.178492 -0.232338
C11   C     C_R   0.433310 0.453788 0.823670 0.244053
C12   C     C_R   0.566678 0.546213 0.176327 0.243991
C13   C     C_R   0.412084 0.501079 0.912817 -0.034145
C14   C     C_R   0.587975 0.498958 0.087161 -0.034124
C15   C     C_R   0.312540 0.602628 0.947833 0.123586
C16   C     C_R   0.687562 0.397442 0.052132 0.123582
C17   C     C_R   0.496509 0.461200 0.963967 0.072291
C18   C     C_R   0.503566 0.538839 0.036004 0.072328
C19   C     C_R   0.427464 0.653847 0.053450 -0.122750
C20   C     C_R   0.572635 0.346199 0.946520 -0.122741
C21   C     C_R   0.322816 0.678871 0.017100 -0.193326
C22   C     C_R   0.677308 0.321199 0.982858 -0.193373
H1    H     H_    0.258015 0.763797 0.037874 0.153224
H2    H     H_    0.742133 0.236285 0.962077 0.153235
H3    H     H_    0.834360 0.378748 0.214254 0.202851
H4    H     H_    0.165718 0.621353 0.785724 0.202837
H5    H     H_    0.134506 0.709603 0.935469 0.155175
H6    H     H_    0.865645 0.290525 0.064485 0.155176
H7    H     H_    0.447385 0.726653 0.094823 0.188573
H8    H     H_    0.552714 0.273378 0.905162 0.188624
C23   C     C_R   0.605658 0.936086 0.522382 -0.200828
C24   C     C_R   0.394340 0.063914 0.477619 -0.200836
H9    H     H_    0.687149 0.887303 0.540497 0.161445
H10   H     H_    0.312850 0.112697 0.459505 0.161445
C25   C     C_R   0.605784 0.064025 0.522256 -0.123773
C26   C     C_R   0.394215 0.935975 0.477745 -0.123808
H11   H     H_    0.687342 0.112899 0.540284 0.188818
H12   H     H_    0.312657 0.887101 0.459718 0.188830
C27   C     C_R   0.500107 0.127472 0.499892 -0.021148
C28   C     C_R   0.499893 0.872528 0.500109 -0.021161
C29   C     C_R   0.963889 0.423611 0.440732 0.532768
C30   C     C_R   0.036111 0.576389 0.559268 0.532755
C31   C     C_R   0.108375 0.423886 0.441217 -0.219205
C32   C     C_R   0.891625 0.576115 0.558782 -0.219248
H13   H     H_    0.192967 0.363407 0.394539 0.155672
H14   H     H_    0.807034 0.636595 0.605459 0.155657
N1    N     N_R   0.142780 0.500030 0.500020 -0.097746
N2    N     N_R   0.857220 0.499970 0.499980 -0.097742
N3    N     N_R   0.444335 0.626390 0.226870 0.187018
O9    O     O_R   0.466327 0.729154 0.264260 -0.429462
O10   O     O_R   0.310117 0.587579 0.247485 -0.396077
N4    N     N_R   0.555561 0.373525 0.773139 0.186966
O11   O     O_R   0.689821 0.412259 0.752460 -0.396077
O12   O     O_R   0.533442 0.270763 0.735804 -0.429483
O13   O     O_3   0.928297 0.347619 0.381295 -0.746488
H15   H     H_    0.016686 0.298737 0.343043 0.310884
O14   O     O_3   0.071702 0.652381 0.618704 -0.746491
H16   H     H_    0.983314 0.701263 0.656957 0.310876

loop_
_geom_bond_atom_site_label_1
_geom_bond_atom_site_label_2
_geom_bond_distance
_ccdc_geom_bond_type
C15   C21   1.389759 A    
O5    C3    1.293014 A    
O7    Zn2   1.920385 S    
C21   H1    1.084546 S    
C16   C22   1.389765 A    
N4    O11   1.302309 A    
C13   C17   1.426051 A    
O7    C3    1.291861 A    
C26   C28   1.396890 A    
C5    C11   1.410059 A    
N4    O12   1.301812 A    
C8    C16   1.398396 A    
C25   C27   1.396890 A    
O6    C4    1.293023 A    
C7    C15   1.398394 A    
C19   H7    1.077547 S    
C11   C13   1.419696 A    
C8    H6    1.084309 S    
O3    C1    1.283154 A    
C20   H8    1.077511 S    
N3    O9    1.301841 A    
C19   C21   1.383536 A    
C29   N2    1.367457 A    
C7    H5    1.084292 S    
C17   C20   1.410956 A    
C20   C22   1.383574 A    
C23   H9    1.083871 S    
C14   C16   1.421825 A    
C11   N4    1.438449 S    
O2    C2    1.283269 A    
O3    Zn2   1.998138 S    
C24   H10   1.083871 S    
O1    C1    1.283269 A    
O8    C4    1.291864 A    
C12   C14   1.419682 A    
C18   C19   1.410921 A    
C7    C9    1.385393 A    
C30   C32   1.426429 A    
Zn2   N2    2.010541 S    
C8    C10   1.385426 A    
C9    H4    1.083688 S    
C31   H13   1.082144 S    
C2    C27   1.418343 S    
C32   N2    1.365354 A    
O2    Zn2   1.998816 S    
C32   H14   1.082142 S    
C1    C28   1.418343 S    
N3    O10   1.302341 A    
O1    Zn1   1.998816 S    
C30   N1    1.367455 A    
C24   C27   1.397144 A    
C6    C10   1.396960 A    
O14   H16   0.991562 S    
C26   H12   1.083877 S    
C24   C26   1.370072 A    
C23   C28   1.397144 A    
O5    Zn1   1.981828 S    
C13   C15   1.421838 A    
Zn1   N1    2.010541 S    
C14   C18   1.426001 A    
O4    C2    1.283154 A    
O13   H15   0.991563 S    
C29   O13   1.378040 S    
C25   H11   1.083876 S    
C12   N3    1.438505 S    
C23   C25   1.370073 A    
C6    C12   1.410081 A    
O6    Zn2   1.981830 S    
C29   C31   1.426430 A    
C22   H2    1.084560 S    
C5    C9    1.396910 A    
C10   H3    1.083689 S    
C3    C5    1.457263 S    
C4    C6    1.457283 S    
O4    Zn1   1.998138 S    
C30   O14   1.378039 S    
C17   C18   1.421896 A    
O8    Zn1   1.920388 S    
C31   N1    1.365355 A    
