data_mof_unit_22379.cif
_audit_creation_date              2012-12-10T18:55:56-0500
_audit_creation_method            fapswitch 2.2
_symmetry_space_group_name_H-M    P1
_symmetry_Int_Tables_number       1
_space_group_crystal_system       triclinic
_cell_length_a                    10.617821
_cell_length_b                    9.982439
_cell_length_c                    14.954264
_cell_angle_alpha                 89.495909
_cell_angle_beta                  93.260853
_cell_angle_gamma                 90.57333
_cell_volume                      1582.32934115

loop_
_atom_site_label
_atom_site_type_symbol
_atom_type_description
_atom_site_fract_x
_atom_site_fract_y
_atom_site_fract_z
_atom_type_partial_charge
C1    C     C_R   0.261209 0.499194 0.501343 0.927713
C2    C     C_R   0.739093 0.500649 0.499669 0.926030
C3    C     C_R   0.509456 0.500645 0.327317 0.837265
C4    C     C_R   0.492547 0.499176 0.672492 0.829717
C5    C     C_R   0.591484 0.071889 0.548865 0.200954
C6    C     C_R   0.404783 0.927658 0.454965 0.185977
C7    C     C_R   0.407866 0.071240 0.451649 0.204972
C8    C     C_R   0.595745 0.928552 0.544376 0.185974
C9    C     C_R   0.071926 0.473704 0.582209 0.140719
C10   C     C_R   0.929089 0.522817 0.418875 0.135408
C11   C     C_R   0.940727 0.478874 0.582808 0.156809
C12   C     C_R   0.060163 0.519274 0.418429 0.163040
C13   C     C_R   0.612918 0.618942 0.098636 -0.215681
C14   C     C_R   0.596324 0.393993 0.900556 -0.192342
C15   C     C_R   0.518505 0.619594 0.909790 -0.195627
C16   C     C_R   0.567088 0.383287 0.092260 -0.201672
C17   C     C_R   0.582842 0.622956 0.188256 0.152103
C18   C     C_R   0.531292 0.379669 0.818059 0.152760
C19   C     C_R   0.477070 0.616713 0.819690 0.149263
C20   C     C_R   0.546082 0.378503 0.182871 0.132763
C21   C     C_R   0.543750 0.501410 0.231970 -0.129086
C22   C     C_R   0.492563 0.497118 0.770815 -0.151122
C23   C     C_R   0.595527 0.502755 0.048872 0.067855
C24   C     C_R   0.580747 0.509743 0.950477 0.057539
C25   C     C_R   0.872181 0.502062 0.500787 -0.134692
C26   C     C_R   0.128540 0.496914 0.500471 -0.133920
H1    H     H_    0.640273 0.710557 0.065117 0.131464
H2    H     H_    0.642421 0.307036 0.930566 0.135378
H3    H     H_    0.496242 0.706235 0.948780 0.140591
H4    H     H_    0.553245 0.292174 0.054510 0.127886
N1    N     N_R   0.500000 0.857200 0.500000 -0.115000
N2    N     N_R   0.500000 0.142800 0.500000 -0.116771
O1    O     O_R   0.316770 0.614620 0.499990 -0.623364
O2    O     O_R   0.683230 0.385380 0.500010 -0.618926
O3    O     O_R   0.683230 0.614620 0.500010 -0.627978
O4    O     O_R   0.316770 0.385380 0.499990 -0.621827
O5    O     O_R   0.499990 0.614660 0.369060 -0.618403
O6    O     O_R   0.500010 0.385340 0.630940 -0.641645
O7    O     O_R   0.500010 0.614660 0.630940 -0.605066
O8    O     O_R   0.499990 0.385340 0.369060 -0.618982
Zn1   Zn    Zn3+2 0.500000 0.653120 0.500000 0.914120
Zn2   Zn    Zn3+2 0.500000 0.346880 0.500000 0.912840
C27   C     C_3   0.689370 0.143797 0.608236 -0.840878
H5    H     H_    0.666826 0.247472 0.621078 0.294783
H6    H     H_    0.695110 0.097756 0.676004 0.192800
H7    H     H_    0.782828 0.140076 0.578626 0.237571
C28   C     C_3   0.293394 0.852221 0.411805 -0.805530
H8    H     H_    0.325108 0.762315 0.378157 0.280408
H9    H     H_    0.226013 0.827171 0.463576 0.248461
H10   H     H_    0.238583 0.906233 0.358370 0.200445
C29   C     C_3   0.306207 0.142612 0.395590 -0.834355
H11   H     H_    0.326074 0.248039 0.384162 0.287955
H12   H     H_    0.298604 0.102046 0.326778 0.187599
H13   H     H_    0.214219 0.131995 0.426870 0.235181
C30   C     C_3   0.709721 0.854795 0.584171 -0.811099
H14   H     H_    0.681055 0.764461 0.620990 0.272951
H15   H     H_    0.771618 0.829821 0.529546 0.245715
H16   H     H_    0.770162 0.911264 0.633306 0.202269
C31   C     C_3   0.584689 0.762808 0.228208 -0.373150
C32   C     C_3   0.455572 0.827789 0.212941 -0.855450
H17   H     H_    0.379422 0.758273 0.232184 0.261546
H18   H     H_    0.451817 0.920646 0.252834 0.250221
H19   H     H_    0.438518 0.854193 0.140977 0.242584
H20   H     H_    0.619032 0.766356 0.299193 0.228039
H21   H     H_    0.654346 0.827765 0.195151 0.181588
C33   C     C_3   0.486014 0.239207 0.792499 -0.386760
C34   C     C_3   0.403651 0.179440 0.864006 -0.919911
H22   H     H_    0.461735 0.153035 0.925575 0.250251
H23   H     H_    0.329927 0.251750 0.880963 0.272539
H24   H     H_    0.355570 0.087046 0.838582 0.256001
H25   H     H_    0.425484 0.236936 0.729963 0.244357
H26   H     H_    0.568273 0.173676 0.784840 0.203056
C35   C     C_3   0.405284 0.737712 0.782739 -0.386428
C36   C     C_3   0.492841 0.858698 0.773589 -0.843287
H27   H     H_    0.518633 0.901547 0.840488 0.244750
H28   H     H_    0.580643 0.829569 0.742871 0.271038
H29   H     H_    0.445083 0.936542 0.730806 0.250362
H30   H     H_    0.353424 0.717586 0.717886 0.222195
H31   H     H_    0.331015 0.763563 0.829009 0.187280
C37   C     C_3   0.520990 0.238784 0.219754 -0.379236
C38   C     C_3   0.637110 0.181522 0.271527 -0.790029
H32   H     H_    0.713045 0.164517 0.224909 0.234687
H33   H     H_    0.674376 0.249409 0.325080 0.279238
H34   H     H_    0.612384 0.084252 0.302806 0.234457
H35   H     H_    0.436330 0.237749 0.258422 0.215996
H36   H     H_    0.495317 0.166749 0.165218 0.179339
C39   C     C_3   0.153945 0.445199 0.667013 -0.892579
H37   H     H_    0.212492 0.355590 0.657158 0.246118
H38   H     H_    0.216734 0.532403 0.681963 0.213384
H39   H     H_    0.101233 0.424961 0.727402 0.247632
C40   C     C_3   0.847572 0.547742 0.333678 -0.892147
H40   H     H_    0.784687 0.460129 0.320445 0.229582
H41   H     H_    0.790196 0.638046 0.342494 0.231497
H42   H     H_    0.899827 0.565245 0.272756 0.249908
C41   C     C_3   0.875411 0.462491 0.670338 -0.911587
H43   H     H_    0.772039 0.476677 0.664072 0.226275
H44   H     H_    0.892173 0.360308 0.698142 0.243843
H45   H     H_    0.912500 0.538492 0.719072 0.243699
C42   C     C_3   0.125602 0.536468 0.330934 -0.923918
H46   H     H_    0.229344 0.525641 0.337386 0.224209
H47   H     H_    0.090842 0.458753 0.282665 0.244640
H48   H     H_    0.106264 0.637759 0.302422 0.242859

loop_
_geom_bond_atom_site_label_1
_geom_bond_atom_site_label_2
_ccdc_geom_bond_type
C2    O3    A    
C30   H14   S    
C14   H2    S    
C35   C36   S    
C14   C18   A    
O4    Zn2   S    
C41   H43   S    
O2    Zn2   S    
C39   H37   S    
C38   H32   S    
C41   H45   S    
C1    O1    A    
O7    Zn1   S    
C15   C19   A    
C31   H20   S    
C36   H28   S    
C32   H19   S    
O6    Zn2   S    
C11   C25   A    
C16   H4    S    
C13   C23   A    
C32   H18   S    
C14   C24   A    
C12   C42   S    
C37   H36   S    
C39   H39   S    
C33   H26   S    
C28   H8    S    
C36   H29   S    
C23   C24   S    
C5    N2    A    
C2    O2    A    
O8    Zn2   S    
C6    N1    A    
C5    C27   S    
C31   C32   S    
C8    C30   S    
C38   H33   S    
C9    C26   A    
C15   H3    S    
C28   H10   S    
C36   H27   S    
C20   C37   S    
C34   H22   S    
C19   C35   S    
C19   C22   A    
C28   H9    S    
C6    C28   S    
C40   H40   S    
C35   H30   S    
C17   C21   A    
C29   H11   S    
C12   C26   A    
C32   H17   S    
C29   H12   S    
C27   H5    S    
C37   H35   S    
C40   H41   S    
C4    C22   S    
C33   H25   S    
C4    O7    A    
C16   C20   A    
C35   H31   S    
C27   H6    S    
C10   C12   A    
C17   C31   S    
C10   C25   A    
C15   C24   A    
C42   H47   S    
C4    O6    A    
C10   C40   S    
C16   C23   A    
C9    C11   A    
C1    C26   S    
C3    C21   S    
C38   H34   S    
C11   C41   S    
C7    N2    A    
N1    Zn1   S    
C18   C22   A    
C8    N1    A    
C37   C38   S    
C3    O8    A    
C5    C8    A    
C41   H44   S    
C6    C7    A    
C18   C33   S    
C42   H46   S    
C13   C17   A    
C29   H13   S    
O1    Zn1   S    
C34   H24   S    
C30   H15   S    
C7    C29   S    
C31   H21   S    
C40   H42   S    
C33   C34   S    
C2    C25   S    
O5    Zn1   S    
O3    Zn1   S    
C27   H7    S    
C42   H48   S    
C20   C21   A    
C3    O5    A    
C30   H16   S    
C39   H38   S    
N2    Zn2   S    
C13   H1    S    
C34   H23   S    
C9    C39   S    
C1    O4    A    
