data_mof_unit_67799.cif
_audit_creation_date              2013-03-05T15:41:22-0500
_audit_creation_method            fapswitch 2.2
_symmetry_space_group_name_H-M    P1
_symmetry_Int_Tables_number       1
_space_group_crystal_system       triclinic
_cell_length_a                    7.876114
_cell_length_b                    8.59581
_cell_length_c                    10.677114
_cell_angle_alpha                 92.759295
_cell_angle_beta                  84.804598
_cell_angle_gamma                 93.993812
_cell_volume                      717.502606111

loop_
_atom_site_label
_atom_site_type_symbol
_atom_site_description
_atom_site_fract_x
_atom_site_fract_y
_atom_site_fract_z
_atom_type_partial_charge
O1    O     O_R   0.389250 0.738570 0.508370 -0.657817
O2    O     O_R   0.678390 0.711620 0.486510 -0.561051
C1    C     C_R   0.546756 0.794274 0.504965 0.844885
O3    O     O_R   0.355430 0.513500 0.696140 -0.557792
O4    O     O_R   0.644580 0.486550 0.674270 -0.621068
C2    C     C_R   0.498244 0.498366 0.742084 0.948210
Zn1   Zn    Zn3+2 0.306940 0.517990 0.514600 1.014393
Zn2   Zn    Zn3+2 0.693060 0.482010 0.485400 1.065082
O5    O     O_R   0.321610 0.288380 0.513490 -0.591930
O6    O     O_R   0.610750 0.261430 0.491630 -0.531585
O7    O     O_R   0.355420 0.513450 0.325730 -0.664594
O8    O     O_R   0.644570 0.486500 0.303860 -0.600665
C3    C     C_R   0.456240 0.206723 0.511659 0.977631
C4    C     C_R   0.499395 0.501143 0.258443 0.937357
C5    C     C_3   0.326349 0.568863 0.946112 0.310915
H1    H     H_    0.320208 0.686581 0.907983 0.156103
C6    C     C_3   0.341719 0.589364 0.088975 0.248273
H2    H     H_    0.225428 0.535138 0.141500 0.174483
H3    H     H_    0.362008 0.269997 0.101346 0.161271
C7    C     C_3   0.500463 0.326434 0.921271 0.252649
C8    C     C_3   0.648406 0.600416 0.921601 0.240152
C9    C     C_3   0.491253 0.496483 0.879756 -0.286747
H4    H     H_    0.761972 0.552430 0.868906 0.204782
C10   C     C_3   0.496394 0.500482 0.122178 -0.199201
C11   C     C_3   0.488324 0.327459 0.067509 0.188728
C12   C     C_3   0.659631 0.586725 0.064177 -0.344839
H5    H     H_    0.680370 0.703148 0.112450 0.214704
H6    H     H_    0.768569 0.518577 0.081416 0.256530
H7    H     H_    0.627405 0.286615 0.881875 0.150267
C13   C     C_2   0.576790 0.957551 0.525469 0.254771
C14   C     C_2   0.439231 0.043214 0.520699 -0.568396
H8    H     H_    0.311338 0.990882 0.510500 0.183892
N1    N     N_2   0.950330 0.457950 0.465890 -0.125124
H9    H     H_    0.013380 0.387969 0.398661 0.219634
N2    N     N_2   0.049670 0.542050 0.534110 -0.143408
H10   H     H_    0.986655 0.609451 0.602992 0.235971
S1    S     S_3+6 0.119027 0.471884 0.926273 -0.025440
O9    O     O_2   0.008337 0.603311 0.960472 -0.480164
O10   O     O_2   0.085443 0.407709 0.796917 -0.219823
O11   O     O_3   0.069741 0.329084 0.028502 -0.579894
H11   H     H_    0.955687 0.284044 0.008632 0.404878
O12   O     O_3   0.629645 0.250396 0.103473 -0.636587
C15   C     C_3   0.578596 0.129438 0.186185 -0.259256
H12   H     H_    0.543803 0.020730 0.132191 0.207436
H13   H     H_    0.472240 0.159698 0.256711 0.126369
H14   H     H_    0.688873 0.106236 0.238442 0.230591
S2    S     S_3+6 0.792245 0.028113 0.554934 0.017233
O13   O     O_2   0.882075 0.090160 0.435549 -0.324352
O14   O     O_2   0.790422 0.155551 0.656559 -0.304731
O15   O     O_3   0.905721 0.885642 0.599731 -0.599878
H15   H     H_    0.016535 0.938300 0.619790 0.366465
O16   O     O_3   0.367631 0.750711 0.124400 -0.631757
C16   C     C_3   0.215373 0.812338 0.179361 -0.277483
H16   H     H_    0.165530 0.751125 0.265910 0.198215
H17   H     H_    0.117213 0.808457 0.110961 0.202396
H18   H     H_    0.243056 0.936644 0.207585 0.179466
O17   O     O_3   0.364520 0.230567 0.873485 -0.549851
C17   C     C_3   0.403732 0.072931 0.859196 -0.184231
H19   H     H_    0.422022 0.024482 0.950792 0.193328
H20   H     H_    0.516982 0.057908 0.791394 0.181345
H21   H     H_    0.294301 0.004429 0.820484 0.180004
O18   O     O_3   0.632089 0.758217 0.892133 -0.633192
C18   C     C_3   0.791445 0.844823 0.886751 -0.146580
H22   H     H_    0.887044 0.790318 0.818733 0.208683
H23   H     H_    0.840601 0.861369 0.980949 0.164291
H24   H     H_    0.774430 0.962794 0.854547 0.206054

loop_
_geom_bond_atom_site_label_1
_geom_bond_atom_site_label_2
_geom_bond_distance
_ccdc_geom_bond_type
C11   O12   1.424693 S    
O4    Zn2   2.017174 S    
C15   H12   1.105301 S    
C18   H23   1.109390 S    
C5    C6    1.541769 S    
S1    O9    1.486428 D    
C1    C13   1.416770 S    
C8    O18   1.424116 S    
C12   H6    1.105529 S    
C14   H8    1.086688 S    
S2    O15   1.677390 S    
Zn2   O8    2.011907 S    
C17   H21   1.109419 S    
C8    H4    1.106637 S    
C6    H2    1.115062 S    
C12   H5    1.112046 S    
C18   H24   1.106950 S    
S2    O14   1.504144 D    
S1    O10   1.501442 D    
O1    Zn1   1.962872 S    
C16   H16   1.112328 S    
C10   C11   1.570576 S    
Zn1   O7    2.017172 S    
C15   H13   1.110697 S    
C13   C14   1.357703 D    
O17   C17   1.408746 S    
O18   C18   1.411982 S    
O3    Zn1   2.011907 S    
C6    O16   1.425572 S    
O3    C2    1.284229 A    
O11   H11   0.989957 S    
N1    N2    1.280253 D    
C8    C12   1.543415 S    
O8    C4    1.297969 A    
O2    C1    1.292521 A    
S1    O11   1.683649 S    
O1    C1    1.296259 A    
C7    H7    1.118640 S    
C16   H17   1.108367 S    
O4    C2    1.311890 A    
H3    C11   1.117105 S    
C15   H14   1.108189 S    
C17   H19   1.106218 S    
C6    C10   1.558023 S    
C7    C11   1.555298 S    
C17   H20   1.107453 S    
C5    H1    1.114457 S    
C2    C9    1.466810 S    
S2    O13   1.503133 D    
C13   S2    1.811476 S    
N1    H9    1.029170 S    
O16   C16   1.412154 S    
Zn2   O6    1.962871 S    
O12   C15   1.410130 S    
C16   H18   1.108379 S    
C4    C10   1.456978 S    
O7    C4    1.294242 A    
Zn1   O5    1.984486 S    
O5    C3    1.309972 A    
C5    S1    1.806134 S    
N2    H10   1.027530 S    
O15   H15   0.990956 S    
C7    O17   1.421739 S    
C8    C9    1.561247 S    
Zn1   N2    2.042007 S    
C3    C14   1.409667 S    
C5    C9    1.574614 S    
O2    Zn2   1.984486 S    
C18   H22   1.109598 S    
C7    C9    1.556053 S    
Zn2   N1    2.042007 S    
C10   C12   1.534043 S    
O6    C3    1.276962 A    
