data_mof_unit_29852.cif
_audit_creation_date              2012-12-10T18:06:45-0500
_audit_creation_method            fapswitch 2.2
_symmetry_space_group_name_H-M    P1
_symmetry_Int_Tables_number       1
_space_group_crystal_system       triclinic
_cell_length_a                    12.626581
_cell_length_b                    13.13874
_cell_length_c                    15.495132
_cell_angle_alpha                 83.730719
_cell_angle_beta                  99.200733
_cell_angle_gamma                 96.697899
_cell_volume                      2509.43709808

loop_
_atom_site_label
_atom_site_type_symbol
_atom_type_description
_atom_site_fract_x
_atom_site_fract_y
_atom_site_fract_z
_atom_type_partial_charge
Br1   Br    Br    0.206118 0.000800 0.659834 -0.498224
Br2   Br    Br    0.093108 0.493173 0.086923 -0.510988
C1    C     C_R   0.442177 0.308801 0.506683 0.879773
C2    C     C_R   0.649292 0.410990 0.939380 0.111925
C3    C     C_R   0.544450 0.437603 0.903157 0.081877
C4    C     C_R   0.435916 0.514948 0.335889 0.883960
C5    C     C_R   0.725655 0.404572 0.882918 -0.002162
C6    C     C_R   0.698994 0.429939 0.792568 -0.225630
C7    C     C_R   0.522280 0.466480 0.813657 -0.248950
C8    C     C_R   0.639470 0.941295 0.367032 -0.175392
C9    C     C_R   0.581095 0.800888 0.468292 -0.056407
C10   C     C_R   0.331078 0.159837 0.567197 -0.222286
C11   C     C_R   0.309586 0.054260 0.584705 0.335292
C12   C     C_R   0.429941 0.475853 0.100689 0.001265
C13   C     C_R   0.367463 0.988066 0.550814 -0.230739
C14   C     C_R   0.444075 0.027265 0.494635 0.038233
C15   C     C_R   0.452087 0.132850 0.466056 0.094109
C16   C     C_R   0.555671 0.691529 0.488843 0.857064
C17   C     C_R   0.512926 0.965264 0.465675 0.104899
C18   C     C_R   0.573992 0.004454 0.397694 0.171838
C19   C     C_R   0.567140 0.105318 0.360499 -0.240931
C20   C     C_R   0.507303 0.169147 0.394589 -0.183244
C21   C     C_R   0.524145 0.865662 0.503915 -0.239414
C22   C     C_R   0.641569 0.838826 0.401294 -0.181296
C23   C     C_R   0.318012 0.474649 0.068122 0.077467
C24   C     C_R   0.405050 0.199532 0.510363 -0.158936
C25   C     C_R   0.141584 0.631465 0.632286 -0.093498
C26   C     C_R   0.756127 0.371825 0.403115 -0.018505
C27   C     C_R   0.848561 0.325476 0.400527 -0.027869
C28   C     C_R   0.564089 0.484844 0.663959 0.871008
C29   C     C_R   0.945120 0.363532 0.448375 -0.213792
C30   C     C_R   0.951378 0.453883 0.491836 0.001636
C31   C     C_R   0.853260 0.489339 0.501039 0.235338
C32   C     C_R   0.049309 0.507811 0.529390 -0.048518
C33   C     C_R   0.045461 0.581158 0.590346 0.123881
C34   C     C_R   0.500461 0.444640 0.048505 0.085716
C35   C     C_R   0.945661 0.605018 0.606047 -0.251043
C36   C     C_R   0.851539 0.562759 0.559350 -0.200409
C37   C     C_R   0.150703 0.498158 0.505363 0.057319
C38   C     C_R   0.238407 0.614827 0.607920 -0.055264
C39   C     C_R   0.395719 0.516716 0.241610 -0.165713
C40   C     C_R   0.597640 0.462298 0.758190 -0.073492
C41   C     C_R   0.245857 0.493703 0.123846 0.272279
C42   C     C_R   0.284872 0.510598 0.210930 -0.211230
C43   C     C_R   0.468249 0.513001 0.182701 -0.083577
C44   C     C_1   0.831477 0.372373 0.915379 0.187415
C45   C     C_R   0.466218 0.442226 0.957945 0.083699
C46   C     C_1   0.143654 0.698787 0.700504 0.184581
C47   C     C_1   0.165475 0.438395 0.436367 0.235872
C48   C     C_1   0.843787 0.236739 0.352565 0.175389
C49   C     C_1   0.576937 0.564361 0.200431 0.212700
C50   C     C_R   0.355204 0.444136 0.925384 -0.233022
C51   C     C_R   0.281880 0.456319 0.980520 -0.149364
C52   C     C_R   0.602185 0.411776 0.084623 -0.204831
C53   C     C_R   0.674763 0.393265 0.030817 -0.200777
H1    H     H_    0.197467 0.454490 0.952934 0.198699
H2    H     H_    0.446860 0.496637 0.786603 0.164905
H3    H     H_    0.939540 0.660546 0.651333 0.173736
H4    H     H_    0.679331 0.341794 0.368968 0.129855
H5    H     H_    0.011784 0.317715 0.455023 0.165417
H6    H     H_    0.778238 0.587951 0.571135 0.212736
H7    H     H_    0.757291 0.424641 0.749301 0.170699
H8    H     H_    0.752326 0.369498 0.061455 0.178031
H9    H     H_    0.228232 0.519796 0.254222 0.205269
H10   H     H_    0.322460 0.431254 0.858213 0.155185
H11   H     H_    0.625529 0.397877 0.154843 0.154641
H12   H     H_    0.685412 0.788351 0.372556 0.173391
H13   H     H_    0.609537 0.135498 0.306178 0.156104
H14   H     H_    0.685403 0.969941 0.314480 0.161832
H15   H     H_    0.485691 0.834825 0.559941 0.147209
H16   H     H_    0.292170 0.210625 0.599928 0.186952
H17   H     H_    0.348658 0.906731 0.567312 0.161267
H18   H     H_    0.503034 0.246715 0.363573 0.154165
H19   H     H_    0.313951 0.651684 0.639075 0.144754
N1    N     N_R   0.239390 0.551900 0.544730 -0.129289
N2    N     N_R   0.759950 0.448600 0.455730 -0.135582
N3    N     N_1   0.916169 0.346314 0.941108 -0.139248
N4    N     N_1   0.145330 0.752272 0.755396 -0.121950
N5    N     N_1   0.176749 0.389168 0.381520 -0.201280
N6    N     N_1   0.840247 0.165496 0.314006 -0.198842
N7    N     N_1   0.663271 0.605481 0.214586 -0.183549
O1    O     O_R   0.374950 0.371210 0.521360 -0.609435
O2    O     O_R   0.542050 0.338030 0.492790 -0.611703
O3    O     O_R   0.368720 0.526070 0.390200 -0.604679
O4    O     O_R   0.535820 0.492890 0.361630 -0.618124
O5    O     O_R   0.457950 0.661970 0.507210 -0.608615
O6    O     O_R   0.625050 0.628790 0.478640 -0.634259
O7    O     O_R   0.464180 0.507110 0.638370 -0.621689
O8    O     O_R   0.631280 0.473930 0.609800 -0.630403
Zn1   Zn    Zn3+2 0.388420 0.522150 0.519080 0.954985
Zn2   Zn    Zn3+2 0.611580 0.477850 0.480920 0.939783

loop_
_geom_bond_atom_site_label_1
_geom_bond_atom_site_label_2
_ccdc_geom_bond_type
C25   C46   S    
C9    C16   S    
O6    Zn2   S    
C17   C18   A    
C23   C41   A    
O4    Zn2   S    
C5    C6    A    
C42   H9    S    
C13   H17   S    
C3    C45   A    
C7    C40   A    
C16   O5    A    
C4    O4    A    
C15   C24   A    
C26   C27   A    
C33   C35   A    
C6    C40   A    
C28   O8    A    
C12   C34   A    
C51   H1    S    
C43   C49   S    
C13   C14   A    
C9    C22   A    
C34   C45   A    
C32   C33   A    
C46   N4    T    
N1    Zn1   S    
C8    C18   A    
C14   C15   A    
C4    C39   S    
C53   H8    S    
C37   N1    A    
O8    Zn2   S    
Br2   C41   S    
C35   H3    S    
C22   H12   S    
C36   H6    S    
C19   C20   A    
C21   H15   S    
O3    Zn1   S    
C2    C5    A    
C12   C43   A    
C27   C48   S    
C4    O3    A    
C32   C37   A    
C5    C44   S    
O5    Zn1   S    
C8    C22   A    
C47   N5    T    
C10   C24   A    
C30   C32   A    
C29   H5    S    
C17   C21   A    
C41   C42   A    
C3    C7    A    
C35   C36   A    
C31   N2    A    
C29   C30   A    
C25   C38   A    
C1    O1    A    
C10   C11   A    
C37   C47   S    
C10   H16   S    
O7    Zn1   S    
C11   C13   A    
C19   H13   S    
C1    O2    A    
C39   C42   A    
Br1   C11   S    
C28   O7    A    
C26   N2    A    
C50   C51   A    
C26   H4    S    
C49   N7    T    
C52   C53   A    
C1    C24   S    
C16   O6    A    
C23   C51   A    
C2    C3    A    
C48   N6    T    
C44   N3    T    
C45   C50   A    
C52   H11   S    
O2    Zn2   S    
C15   C20   A    
O1    Zn1   S    
C38   N1    A    
C25   C33   A    
C30   C31   A    
C2    C53   A    
C14   C17   A    
C9    C21   A    
C38   H19   S    
C7    H2    S    
C12   C23   A    
C34   C52   A    
N2    Zn2   S    
C8    H14   S    
C18   C19   A    
C27   C29   A    
C39   C43   A    
C28   C40   S    
C31   C36   A    
C20   H18   S    
C50   H10   S    
C6    H7    S    
