data_mof_unit_47892.cif
_audit_creation_date              2012-12-10T18:10:46-0500
_audit_creation_method            fapswitch 2.2
_symmetry_space_group_name_H-M    P1
_symmetry_Int_Tables_number       1
_space_group_crystal_system       triclinic
_cell_length_a                    12.653528
_cell_length_b                    13.069579
_cell_length_c                    15.739309
_cell_angle_alpha                 90.963909
_cell_angle_beta                  102.936912
_cell_angle_gamma                 81.857901
_cell_volume                      2510.96865536

loop_
_atom_site_label
_atom_site_type_symbol
_atom_type_description
_atom_site_fract_x
_atom_site_fract_y
_atom_site_fract_z
_atom_type_partial_charge
C1    C     C_R   0.437720 0.691829 0.485279 0.848872
C2    C     C_R   0.600709 0.199629 0.503475 -0.075506
C3    C     C_R   0.287822 0.847031 0.475099 0.104311
C4    C     C_R   0.501389 0.500020 0.661520 0.908175
C5    C     C_R   0.268416 0.953469 0.489959 -0.164340
C6    C     C_R   0.350992 0.014215 0.496376 -0.234208
C7    C     C_R   0.454509 0.972681 0.483048 0.070720
C8    C     C_R   0.470200 0.869322 0.457074 0.070158
C9    C     C_R   0.539167 0.033412 0.486413 0.052223
C10   C     C_R   0.622435 0.999838 0.440514 0.142010
C11   C     C_R   0.629862 0.901344 0.405067 -0.262676
C12   C     C_3   0.430025 0.593437 0.037261 -0.398300
C13   C     C_R   0.556268 0.835761 0.415070 -0.193451
C14   C     C_R   0.543286 0.127823 0.531382 0.029441
C15   C     C_R   0.679618 0.168416 0.454997 -0.232443
C16   C     C_R   0.561550 0.308758 0.508906 0.831465
C17   C     C_R   0.396100 0.803093 0.469695 -0.185408
C18   C     C_R   0.076817 0.376491 0.354987 -0.008177
C19   C     C_R   0.802693 0.623940 0.608761 0.369120
C20   C     C_R   0.909591 0.646850 0.634289 -0.295250
C21   C     C_R   0.988602 0.602555 0.591270 -0.261387
C22   C     C_R   0.961747 0.534059 0.522224 0.035217
C23   C     C_3   0.496775 0.492394 0.081911 0.324218
C24   C     C_R   0.853272 0.509250 0.501295 0.185948
C25   C     C_R   0.038489 0.487569 0.474526 -0.029706
C26   C     C_R   0.002912 0.422184 0.403911 0.125915
C27   C     C_R   0.896355 0.396982 0.387647 -0.294349
C28   C     C_R   0.498901 0.499347 0.338521 0.869675
C29   C     C_R   0.824924 0.436787 0.437829 -0.194249
C30   C     C_R   0.149472 0.502737 0.494273 -0.111998
C31   C     C_R   0.189150 0.375049 0.391502 0.207755
C32   C     C_3   0.431822 0.593680 0.939627 -0.401336
C33   C     C_3   0.620510 0.489646 0.974944 -0.413784
C34   C     C_3   0.449596 0.395907 0.036115 -0.038277
C35   C     C_3   0.616761 0.487889 0.072249 -0.432388
C36   C     C_1   0.497034 0.496201 0.249154 -0.196657
C37   C     C_3   0.503305 0.494880 0.917777 0.342218
C38   C     C_3   0.506274 0.148053 0.617234 -0.398549
C39   C     C_3   0.548242 0.057359 0.682533 -0.330505
C40   C     C_3   0.522111 0.084481 0.771017 -0.910966
C41   C     C_3   0.193187 0.783277 0.459818 -0.375794
C42   C     C_3   0.077880 0.846202 0.433047 -0.397595
C43   C     C_3   0.990587 0.776978 0.398994 -0.872221
C44   C     C_3   0.263530 0.276277 0.379159 -0.386697
C45   C     C_3   0.453350 0.399084 0.937956 -0.407410
C46   C     C_3   0.327307 0.281500 0.307084 -0.291764
C47   C     C_3   0.347985 0.176234 0.265533 -0.939669
C48   C     C_3   0.037568 0.324956 0.267707 -0.443127
C49   C     C_3   0.968333 0.404056 0.198917 -0.323508
C50   C     C_3   0.915876 0.350769 0.116356 -0.927409
C51   C     C_3   0.699338 0.780040 0.650250 -0.792587
C52   C     C_3   0.332700 0.385951 0.047576 -0.418998
C53   C     C_3   0.300224 0.279202 0.020400 -0.349348
C54   C     C_3   0.186372 0.270141 0.034159 -0.900227
C55   C     C_1   0.496538 0.493777 0.173646 -0.136439
C56   C     C_1   0.505739 0.497020 0.826681 -0.117059
C57   C     C_1   0.504898 0.498732 0.751153 -0.199859
C58   C     C_R   0.694793 0.066775 0.428019 -0.206766
H1    H     H_    0.465822 0.661528 0.068632 0.171156
H2    H     H_    0.464766 0.663756 0.923548 0.168610
H3    H     H_    0.563678 0.760545 0.385375 0.170297
H4    H     H_    0.867565 0.342545 0.338484 0.159558
H5    H     H_    0.181583 0.556221 0.542572 0.139424
H6    H     H_    0.069247 0.624154 0.613070 0.150885
H7    H     H_    0.931576 0.699035 0.687417 0.155774
H8    H     H_    0.748242 0.407955 0.426660 0.205824
H9    H     H_    0.672971 0.418984 0.959858 0.170020
H10   H     H_    0.658130 0.557697 0.960967 0.172591
H11   H     H_    0.653532 0.554692 0.105268 0.181884
H12   H     H_    0.346639 0.597697 0.899819 0.165279
H13   H     H_    0.667333 0.416320 0.104142 0.171295
H14   H     H_    0.370096 0.401826 0.894986 0.171690
H15   H     H_    0.503187 0.327147 0.921955 0.147650
H16   H     H_    0.562529 0.151382 0.799158 0.258523
H17   H     H_    0.432201 0.103753 0.764166 0.263514
H18   H     H_    0.552583 0.017305 0.816470 0.248481
H19   H     H_    0.509595 0.988319 0.658121 0.230769
H20   H     H_    0.638442 0.037310 0.691229 0.225399
H21   H     H_    0.540573 0.216543 0.649042 0.193690
H22   H     H_    0.416773 0.169353 0.607717 0.194334
H23   H     H_    0.344038 0.601953 0.045046 0.161296
H24   H     H_    0.007563 0.734405 0.340726 0.257269
H25   H     H_    0.988564 0.720962 0.450232 0.278709
H26   H     H_    0.908969 0.824991 0.380524 0.242307
H27   H     H_    0.056705 0.888469 0.490203 0.222093
H28   H     H_    0.075826 0.902810 0.380526 0.227483
H29   H     H_    0.201791 0.730189 0.405116 0.229884
H30   H     H_    0.198608 0.737030 0.519579 0.197933
H31   H     H_    0.392134 0.117600 0.316140 0.280105
H32   H     H_    0.269394 0.151042 0.231452 0.261969
H33   H     H_    0.399192 0.181569 0.217456 0.254120
H34   H     H_    0.504850 0.325833 0.066795 0.136335
H35   H     H_    0.282576 0.338955 0.255680 0.210391
H36   H     H_    0.408695 0.303852 0.334883 0.253039
H37   H     H_    0.317279 0.248966 0.441590 0.207222
H38   H     H_    0.213245 0.212110 0.365039 0.173270
H39   H     H_    0.979312 0.302283 0.089150 0.271597
H40   H     H_    0.857516 0.301218 0.130940 0.257064
H41   H     H_    0.870519 0.409935 0.066674 0.251977
H42   H     H_    0.902080 0.451062 0.224093 0.230625
H43   H     H_    0.021693 0.457613 0.182063 0.218365
H44   H     H_    0.106723 0.288820 0.240153 0.213803
H45   H     H_    0.726281 0.223342 0.435136 0.148018
H46   H     H_    0.991956 0.260884 0.276731 0.195652
H47   H     H_    0.736000 0.639443 0.716304 0.209649
H48   H     H_    0.622489 0.805187 0.672365 0.233978
H49   H     H_    0.688700 0.809296 0.582716 0.268305
H50   H     H_    0.766934 0.814155 0.693680 0.210702
H51   H     H_    0.184002 0.282129 0.103702 0.266462
H52   H     H_    0.124251 0.328532 0.993305 0.262861
H53   H     H_    0.165618 0.191894 0.015471 0.249549
H54   H     H_    0.300233 0.265803 0.950543 0.222486
H55   H     H_    0.360202 0.217877 0.059635 0.216677
H56   H     H_    0.692776 0.874843 0.369818 0.147232
H57   H     H_    0.328859 0.396847 0.116981 0.210935
H58   H     H_    0.271882 0.446864 0.008472 0.209520
H59   H     H_    0.756996 0.043022 0.391443 0.137247
H60   H     H_    0.328391 0.095446 0.503231 0.133974
H61   H     H_    0.189304 0.991458 0.496922 0.135085
N1    N     N_R   0.222200 0.444690 0.455710 -0.119247
N2    N     N_R   0.776960 0.554780 0.543830 -0.148747
N3    N     N_2   0.722106 0.668288 0.653582 -0.246882
O1    O     O_R   0.366740 0.627160 0.478850 -0.626620
O2    O     O_R   0.544830 0.662520 0.507140 -0.574787
O3    O     O_R   0.410920 0.482310 0.608710 -0.611456
O4    O     O_R   0.589010 0.517670 0.637000 -0.599858
O5    O     O_R   0.455170 0.337480 0.492860 -0.624259
O6    O     O_R   0.633260 0.372840 0.521150 -0.629669
O7    O     O_R   0.410990 0.482330 0.363000 -0.620753
O8    O     O_R   0.589080 0.517690 0.391290 -0.632945
Zn1   Zn    Zn3+2 0.381090 0.476390 0.481110 0.917647
Zn2   Zn    Zn3+2 0.618910 0.523610 0.518890 0.938689

loop_
_geom_bond_atom_site_label_1
_geom_bond_atom_site_label_2
_ccdc_geom_bond_type
C19   N3    S    
C8    C13   A    
C27   C29   A    
N1    Zn1   S    
C43   H25   S    
C41   C42   S    
C19   C20   A    
C18   C26   A    
C7    C8    A    
C53   C54   S    
C12   C23   S    
C54   H52   S    
C50   H41   S    
C30   N1    A    
C4    O3    A    
C5    H61   S    
C39   H19   S    
C10   C58   A    
C49   H43   S    
C38   C39   S    
C38   H21   S    
C48   H46   S    
C56   C57   T    
O2    Zn2   S    
C45   H15   S    
C28   O7    A    
C12   H23   S    
C11   H56   S    
C24   C29   A    
C21   H6    S    
C34   C52   S    
C33   C35   S    
C37   C56   S    
C19   N2    A    
C44   C46   S    
C51   H50   S    
C22   C25   A    
C4    C57   S    
C54   H53   S    
C42   H28   S    
C2    C16   S    
C9    C10   A    
C35   H13   S    
C21   C22   A    
C12   C32   S    
C45   H14   S    
C43   H26   S    
C47   H31   S    
O6    Zn2   S    
C53   H55   S    
C34   H34   S    
C52   H58   S    
C41   H29   S    
C50   H40   S    
C31   C44   S    
C39   H20   S    
C20   H7    S    
C39   C40   S    
C42   H27   S    
C32   H12   S    
C25   C26   A    
C58   H59   S    
C33   C37   S    
C40   H18   S    
C54   H51   S    
O8    Zn2   S    
C9    C14   A    
C1    O1    A    
C44   H38   S    
C27   H4    S    
C14   C38   S    
O3    Zn1   S    
C46   H36   S    
O4    Zn2   S    
C23   C34   S    
C48   H44   S    
C26   C27   A    
C34   C45   S    
C32   C37   S    
C2    C15   A    
C16   O6    A    
C35   H11   S    
C53   H54   S    
C48   C49   S    
C23   C35   S    
C15   C58   A    
C22   C24   A    
C42   C43   S    
C32   H2    S    
N2    Zn2   S    
C37   C45   S    
C52   C53   S    
C33   H9    S    
C52   H57   S    
C25   C30   A    
C7    C9    A    
C41   H30   S    
C46   C47   S    
C3    C41   S    
C50   H39   S    
O1    Zn1   S    
C47   H33   S    
C3    C5    A    
C18   C48   S    
C23   C55   S    
C6    C7    A    
C1    C17   S    
C8    C17   A    
C40   H17   S    
C4    O4    A    
C1    O2    A    
C36   C55   T    
C49   H42   S    
C11   C13   A    
C5    C6    A    
C46   H35   S    
C38   H22   S    
C51   H48   S    
C24   N2    A    
C47   H32   S    
C40   H16   S    
H47   N3    S    
C3    C17   A    
C28   O8    A    
C12   H1    S    
C2    C14   A    
C16   O5    A    
O5    Zn1   S    
C31   N1    A    
C10   C11   A    
C29   H8    S    
C13   H3    S    
C20   C21   A    
C28   C36   S    
C51   H49   S    
C49   C50   S    
C44   H37   S    
C51   N3    S    
C18   C31   A    
C15   H45   S    
C30   H5    S    
C6    H60   S    
C43   H24   S    
C33   H10   S    
O7    Zn1   S    
