data_mof_unit_5547.cif
_audit_creation_date              2013-03-05T15:52:44-0500
_audit_creation_method            fapswitch 2.2
_symmetry_space_group_name_H-M    P1
_symmetry_Int_Tables_number       1
_space_group_crystal_system       triclinic
_cell_length_a                    10.71198
_cell_length_b                    10.784986
_cell_length_c                    16.998261
_cell_angle_alpha                 99.748208
_cell_angle_beta                  99.56242
_cell_angle_gamma                 61.424244
_cell_volume                      1691.42427724

loop_
_atom_site_label
_atom_site_type_symbol
_atom_site_description
_atom_site_fract_x
_atom_site_fract_y
_atom_site_fract_z
_atom_type_partial_charge
O1    O     O_R   0.749250 0.499990 0.439200 -0.468932
O2    O     O_R   0.477870 0.725740 0.440280 -0.437807
C1    C     C_R   0.354208 0.776791 0.402167 0.568248
O3    O     O_R   0.260770 0.742210 0.412610 -0.509955
O4    O     O_R   0.297990 0.466320 0.394220 -0.497637
C2    C     C_R   0.369485 0.346258 0.357291 0.554185
O5    O     O_R   0.487720 0.253870 0.385870 -0.472616
O6    O     O_R   0.721940 0.304340 0.422320 -0.498890
C3    C     C_R   0.776323 0.376949 0.404778 0.559132
O7    O     O_R   0.750770 0.502570 0.614050 -0.464742
O8    O     O_R   0.479280 0.728140 0.602370 -0.492152
C4    C     C_R   0.381439 0.713858 0.631327 0.540990
O9    O     O_R   0.262290 0.744790 0.587460 -0.470874
O10   O     O_R   0.299400 0.468710 0.556310 -0.468593
C5    C     C_R   0.364697 0.345662 0.579466 0.532479
O11   O     O_R   0.489240 0.256450 0.560730 -0.517794
O12   O     O_R   0.723350 0.306730 0.584410 -0.510747
C6    C     C_R   0.771341 0.382126 0.630076 0.581053
Cr1   Cr    Cr6+3 0.608020 0.610770 0.522990 1.129962
Cr2   Cr    Cr6+3 0.289390 0.599570 0.488050 1.095673
Cr3   Cr    Cr6+3 0.602610 0.289690 0.489020 1.083357
O13   O     O_3   0.500010 0.500010 0.500020 -0.315785
C7    C     C_1   0.342978 0.335901 0.273941 -0.029763
C8    C     C_1   0.331389 0.326409 0.203038 -0.031478
C9    C     C_2   0.847662 0.329658 0.332272 -0.103389
C10   C     C_2   0.829683 0.330567 0.159607 -0.109337
C11   C     C_2   0.855012 0.217826 0.195379 -0.161213
C12   C     C_2   0.827359 0.233461 0.278115 -0.165078
H1    H     H_    0.900543 0.110988 0.164736 0.168251
H2    H     H_    0.782943 0.169429 0.292981 0.178802
H3    H     H_    0.780136 0.437538 0.189896 0.128958
H4    H     H_    0.896821 0.389523 0.317460 0.132110
C13   C     C_2   0.326876 0.854816 0.333799 -0.105929
C14   C     C_2   0.340204 0.835971 0.161936 -0.147924
C15   C     C_2   0.412450 0.886962 0.218822 -0.137991
C16   C     C_2   0.430586 0.864263 0.303634 0.170432
H5    H     H_    0.455771 0.951998 0.203947 0.181888
H6    H     H_    0.297414 0.769989 0.175996 0.100934
H7    H     H_    0.224689 0.881420 0.298384 0.080960
C17   C     C_2   0.300663 0.312848 0.636848 0.195364
C18   C     C_2   0.318028 0.309433 0.811769 -0.061083
C19   C     C_2   0.361791 0.194041 0.757430 -0.107097
C20   C     C_2   0.385090 0.199997 0.677092 -0.143844
H8    H     H_    0.394129 0.089029 0.774035 0.159971
H9    H     H_    0.487582 0.119717 0.657474 0.148257
H10   H     H_    0.286102 0.415248 0.796891 0.127112
C21   C     C_1   0.814382 0.343549 0.709233 0.026401
C22   C     C_1   0.841802 0.314396 0.776770 -0.011522
C23   C     C_1   0.358730 0.763480 0.713545 -0.027410
C24   C     C_1   0.326047 0.810903 0.780482 -0.029750
O14   O     O_R   0.170650 0.915100 0.051290 -0.511200
O15   O     O_R   0.941960 0.184500 0.049060 -0.500958
C25   C     C_R   0.894130 0.307980 0.086753 0.550488
O16   O     O_R   0.922640 0.402670 0.071640 -0.503181
O17   O     O_R   0.196880 0.368740 0.083740 -0.495343
C26   C     C_R   0.318990 0.299674 0.119717 0.545612
O18   O     O_R   0.411120 0.181190 0.091480 -0.511568
O19   O     O_R   0.364220 0.944920 0.062310 -0.496168
C27   C     C_R   0.293327 0.893384 0.084841 0.552185
O20   O     O_R   0.158740 0.906940 0.874970 -0.489343
O21   O     O_R   0.930920 0.176940 0.885610 -0.492477
C28   C     C_R   0.884910 0.297161 0.858858 0.548079
O22   O     O_R   0.910730 0.394510 0.895320 -0.497750
O23   O     O_R   0.185840 0.361180 0.920280 -0.477425
C29   C     C_R   0.305219 0.288594 0.890916 0.544483
O24   O     O_R   0.399210 0.173040 0.915160 -0.519531
O25   O     O_R   0.353170 0.937370 0.898860 -0.503704
C30   C     C_R   0.280567 0.880869 0.857220 0.550754
Cr4   Cr    Cr6+3 0.053780 0.052210 0.965970 1.047188
Cr5   Cr    Cr6+3 0.060060 0.372530 0.992430 1.059561
Cr6   Cr    Cr6+3 0.372600 0.061970 0.991430 1.037507
O26   O     O_3   0.162150 0.162240 0.983280 -0.263140
N1    N     N_R   0.154750 0.406083 0.654401 0.068020
O27   O     O_R   0.080052 0.354864 0.677069 -0.343733
O28   O     O_R   0.093545 0.540259 0.644232 -0.303726
N2    N     N_R   0.555848 0.859694 0.352501 0.104970
O29   O     O_R   0.674843 0.810850 0.320306 -0.336511
O30   O     O_R   0.544324 0.928859 0.423776 -0.308274

loop_
_geom_bond_atom_site_label_1
_geom_bond_atom_site_label_2
_geom_bond_distance
_ccdc_geom_bond_type
O17   C26   1.263413 A    
O11   Cr3   2.036035 S    
C11   H1    1.086459 S    
C18   C19   1.348398 D    
C15   C16   1.468678 S    
C6    C21   1.412827 S    
C4    C23   1.426149 S    
C3    C9    1.445773 S    
O4    Cr2   1.939993 S    
C25   O16   1.270995 A    
C17   N1    1.446712 S    
C9    C12   1.340537 D    
O8    Cr1   1.922154 S    
C10   C11   1.342287 D    
C13   H7    1.087212 S    
C15   H5    1.087054 S    
N2    O30   1.301947 A    
O4    C2    1.262158 A    
O19   Cr6   1.926835 S    
C1    C13   1.458372 S    
C5    O11   1.271391 A    
C13   C16   1.350069 D    
C26   O18   1.257180 A    
C14   C15   1.347151 D    
N1    O27   1.300483 A    
O15   Cr4   1.926139 S    
C16   N2    1.439852 S    
C17   C20   1.338127 D    
O24   Cr6   2.042627 S    
O6    C3    1.270718 A    
C7    C8    1.182855 T    
O23   Cr5   1.916991 S    
C9    H4    1.087149 S    
C10   H3    1.087031 S    
Cr3   O13   1.981872 S    
N1    O28   1.301242 A    
C19   H8    1.087563 S    
O6    Cr3   1.918270 S    
O1    Cr1   2.038453 S    
O25   C30   1.265535 A    
O10   Cr2   1.928227 S    
Cr1   O13   1.982970 S    
O1    C3    1.269907 A    
N2    O29   1.301363 A    
C18   C29   1.439653 S    
O19   C27   1.266806 A    
O5    Cr3   2.060749 S    
O12   Cr3   1.940468 S    
Cr4   O26   1.982034 S    
C28   O22   1.250368 A    
C22   C28   1.409411 S    
C21   C22   1.193701 T    
O16   Cr5   2.034205 S    
O22   Cr5   2.057244 S    
O7    Cr1   2.052830 S    
C18   H10   1.085783 S    
O12   C6    1.257621 A    
O18   Cr6   2.061481 S    
C20   H9    1.086607 S    
Cr2   O13   1.971938 S    
C29   O24   1.253942 A    
C14   C27   1.453136 S    
O14   C27   1.268391 A    
C19   C20   1.445548 S    
C1    O3    1.269242 A    
C10   C25   1.445877 S    
O15   C25   1.270404 A    
O21   Cr4   1.933619 S    
O9    Cr2   2.055351 S    
O2    Cr1   1.934727 S    
C14   H6    1.086116 S    
O8    C4    1.309950 A    
C2    O5    1.259031 A    
C8    C26   1.393754 S    
O23   C29   1.272526 A    
C12   H2    1.086487 S    
O2    C1    1.271040 A    
Cr6   O26   1.971163 S    
O20   Cr4   2.045356 S    
O7    C6    1.279138 A    
C2    C7    1.394099 S    
O25   Cr6   1.941090 S    
O21   C28   1.282456 A    
C5    C17   1.455524 S    
O17   Cr5   1.940911 S    
O3    Cr2   2.047251 S    
C4    O9    1.287251 A    
O20   C30   1.274440 A    
C23   C24   1.201152 T    
C11   C12   1.450660 S    
O10   C5    1.265987 A    
Cr5   O26   1.981970 S    
O14   Cr4   2.051658 S    
C24   C30   1.426314 S    
