data_mof_unit_35622.cif
_audit_creation_date              2012-12-11T14:21:17-0500
_audit_creation_method            fapswitch 2.2
_symmetry_space_group_name_H-M    P1
_symmetry_Int_Tables_number       1
_space_group_crystal_system       triclinic
_cell_length_a                    11.565898
_cell_length_b                    11.502327
_cell_length_c                    19.517738
_cell_angle_alpha                 90.608284
_cell_angle_beta                  90.113911
_cell_angle_gamma                 60.015689
_cell_volume                      2248.87936357

loop_
_atom_site_label
_atom_site_type_symbol
_atom_type_description
_atom_site_fract_x
_atom_site_fract_y
_atom_site_fract_z
_atom_type_partial_charge
C1    C     C_R   0.640458 0.117749 0.599132 0.548091
C2    C     C_1   0.652772 0.150287 0.668547 0.004021
C3    C     C_R   0.659778 0.681148 0.190826 0.034324
C4    C     C_R   0.612409 0.745939 0.598562 0.545606
C5    C     C_R   0.533684 0.730716 0.221785 0.016457
C6    C     C_R   0.533216 0.700110 0.290997 0.010892
C7    C     C_R   0.762614 0.653208 0.301972 -0.149286
C8    C     C_R   0.773429 0.643240 0.231482 -0.145379
C9    C     C_R   0.412284 0.787837 0.183881 0.090665
C10   C     C_R   0.303555 0.780725 0.210526 -0.134605
C11   C     C_R   0.310467 0.729929 0.275517 -0.185254
C12   C     C_1   0.641178 0.703836 0.667945 0.005091
C13   C     C_R   0.423814 0.689402 0.315458 -0.104841
C14   C     C_R   0.642645 0.682227 0.332770 0.000011
C15   C     C_R   0.170469 0.181626 0.184787 0.016891
C16   C     C_R   0.240590 0.145554 0.598087 0.557412
C17   C     C_R   0.245484 0.239403 0.208447 0.037183
C18   C     C_R   0.277785 0.230881 0.278814 0.026510
C19   C     C_R   0.200774 0.069328 0.293006 -0.149048
C20   C     C_R   0.150207 0.095944 0.227124 -0.148439
C21   C     C_R   0.279671 0.314736 0.164436 -0.078370
C22   C     C_R   0.311646 0.407028 0.191170 -0.119559
C23   C     C_1   0.127211 0.197991 0.859406 0.007165
C24   C     C_R   0.322695 0.415359 0.261342 -0.146759
C25   C     C_R   0.317414 0.321986 0.303947 -0.100711
C26   C     C_R   0.261786 0.137670 0.320765 0.003489
C27   C     C_R   0.673431 0.185803 0.194517 0.007445
C28   C     C_R   0.648581 0.112003 0.403047 0.536164
C29   C     C_R   0.740265 0.053086 0.219155 0.032806
C30   C     C_R   0.766043 0.033552 0.289620 0.038149
C31   C     C_R   0.615253 0.271731 0.310861 -0.164627
C32   C     C_R   0.617590 0.294117 0.241138 -0.141200
C33   C     C_R   0.796865 0.940386 0.174381 -0.058262
C34   C     C_1   0.171426 0.170213 0.727687 -0.030769
C35   C     C_R   0.901454 0.818182 0.196071 -0.117717
C36   C     C_R   0.943572 0.803667 0.263665 -0.150572
C37   C     C_R   0.876147 0.909159 0.310380 -0.087086
C38   C     C_R   0.683261 0.141203 0.335470 0.001617
C39   C     C_R   0.082287 0.230635 0.928715 0.549142
C40   C     C_R   0.616283 0.736603 0.402514 0.538041
C41   C     C_R   0.683785 0.604613 0.929601 0.553434
C42   C     C_R   0.708313 0.206272 0.930249 0.538857
C43   C     C_R   0.088235 0.232799 0.123358 0.547920
C44   C     C_R   0.681724 0.615719 0.124313 0.572093
C45   C     C_1   0.150465 0.181677 0.798979 -0.029328
C46   C     C_R   0.706859 0.210347 0.126262 0.526417
C47   C     C_R   0.301295 0.116305 0.393521 0.555915
C48   C     C_1   0.670188 0.646849 0.860246 0.006212
C49   C     C_1   0.654679 0.683762 0.728441 -0.030460
C50   C     C_1   0.663272 0.666995 0.799758 -0.030234
C51   C     C_2   0.395804 0.860182 0.118563 0.578711
C52   C     C_1   0.194969 0.161209 0.667295 0.002352
C53   C     C_1   0.678626 0.190616 0.860899 0.004546
C54   C     C_1   0.658335 0.167550 0.729028 -0.030656
C55   C     C_1   0.665580 0.180599 0.800394 -0.030069
Cr1   Cr    Cr6+3 0.404720 0.198220 0.499960 1.010612
Cr2   Cr    Cr6+3 0.698290 0.897110 0.500380 1.021220
Cr3   Cr    Cr6+3 0.396970 0.904720 0.499610 1.023122
Cr4   Cr    Cr6+3 0.926180 0.151990 0.028120 1.064785
Cr5   Cr    Cr6+3 0.921330 0.451820 0.027470 1.021911
Cr6   Cr    Cr6+3 0.626260 0.446870 0.028710 1.043857
H1    H     H_    0.848313 0.635142 0.332450 0.135263
H2    H     H_    0.918177 0.893621 0.361115 0.143229
H3    H     H_    0.872199 0.599143 0.209160 0.144964
H4    H     H_    0.212109 0.816781 0.181639 0.144082
H5    H     H_    0.226317 0.724779 0.295849 0.108921
H6    H     H_    0.426111 0.645801 0.364612 0.138941
H7    H     H_    0.182686 0.002446 0.323964 0.149195
H8    H     H_    0.276219 0.307164 0.109255 0.136549
H9    H     H_    0.089617 0.053576 0.210356 0.145651
H10   H     H_    0.458058 0.959575 0.058068 0.331537
H11   H     H_    0.328609 0.471412 0.157599 0.126592
H12   H     H_    0.347950 0.486349 0.282722 0.109689
H13   H     H_    0.342847 0.328356 0.355944 0.170123
H14   H     H_    0.560118 0.355935 0.345544 0.110221
H15   H     H_    0.766916 0.948981 0.121212 0.140398
H16   H     H_    0.574519 0.396554 0.223602 0.143963
H17   H     H_    0.951507 0.735495 0.160027 0.117109
H18   H     H_    0.027055 0.709491 0.280248 0.105911
O1    O     O_R   0.267740 0.231960 0.575440 -0.500312
O2    O     O_R   0.596130 0.579390 0.952730 -0.490068
O3    O     O_R   0.639060 0.321160 0.958670 -0.496601
O4    O     O_R   0.527280 0.186640 0.570530 -0.494173
O5    O     O_R   0.821240 0.124200 0.104370 -0.522067
O6    O     O_R   0.036890 0.167040 0.097840 -0.474781
O7    O     O_R   0.056180 0.349610 0.102880 -0.536247
O8    O     O_R   0.797660 0.564870 0.097950 -0.510693
O9    O     O_R   0.595880 0.584250 0.104270 -0.511585
O10   O     O_R   0.638830 0.325670 0.099150 -0.507768
O11   O     O_3   0.824590 0.350230 0.028100 -0.260375
O12   O     O_R   0.685970 0.784660 0.430010 -0.496800
O13   O     O_R   0.728090 0.003450 0.576380 -0.503491
O14   O     O_R   0.682970 0.789190 0.570490 -0.492219
O15   O     O_R   0.499290 0.771880 0.575530 -0.506598
O16   O     O_R   0.285330 0.030870 0.569730 -0.488174
O17   O     O_R   0.270980 0.227080 0.423890 -0.533189
O18   O     O_R   0.530280 0.182120 0.430050 -0.530394
O19   O     O_R   0.731330 0.998570 0.424830 -0.527317
O20   O     O_2   0.306580 0.878320 0.078774 -0.524285
O21   O     O_R   0.480274 0.910888 0.103386 -0.723754
O22   O     O_R   0.502530 0.767000 0.423990 -0.534273
O23   O     O_R   0.288330 0.026350 0.429250 -0.495723
O24   O     O_3   0.499990 0.000020 0.499980 -0.265869
O25   O     O_R   0.821500 0.119340 0.952830 -0.505452
O26   O     O_R   0.037130 0.162530 0.957360 -0.477720
O27   O     O_R   0.056440 0.344740 0.951340 -0.512409
O28   O     O_R   0.797900 0.560360 0.957470 -0.495904

loop_
_geom_bond_atom_site_label_1
_geom_bond_atom_site_label_2
_ccdc_geom_bond_type
C28   O18   A    
C39   O27   A    
C23   C45   T    
Cr2   O13   S    
C27   C29   A    
C19   C20   A    
C42   O3    A    
C12   C49   T    
C7    C8    A    
C46   O10   A    
Cr4   O26   S    
Cr4   O25   S    
C36   C37   A    
C1    C2    S    
Cr6   O3    S    
C42   C53   S    
C5    C6    A    
C24   H12   S    
C29   C33   A    
C30   C38   A    
Cr1   O17   S    
C25   H13   S    
C19   C26   A    
C32   H16   S    
C7    C14   A    
C35   C36   A    
C18   C26   A    
C47   O17   A    
Cr3   O23   S    
C4    C12   S    
C44   O8    A    
Cr2   O12   S    
C9    C10   A    
C11   H5    S    
C48   C50   T    
C40   O22   A    
C47   O23   A    
Cr2   O14   S    
C21   C22   A    
C20   H9    S    
C18   C25   A    
Cr1   O18   S    
C22   H11   S    
C37   H2    S    
Cr5   O8    S    
Cr6   O10   S    
C53   C55   T    
C51   O20   D    
C15   C20   A    
Cr2   O24   S    
C3    C44   S    
C43   O6    A    
Cr4   O5    S    
C3    C8    A    
C2    C54   T    
Cr3   O22   S    
Cr5   O7    S    
C17   C21   A    
C30   C37   A    
C21   H8    S    
C16   O1    A    
Cr4   O11   S    
Cr3   O16   S    
Cr4   O6    S    
C7    H1    S    
C5    C9    A    
C29   C30   A    
Cr6   O9    S    
C6    C14   A    
C33   H15   S    
C31   H14   S    
C31   C32   A    
C28   C38   S    
C41   O2    A    
C17   C18   A    
C19   H7    S    
C34   C45   S    
C24   C25   A    
Cr5   O28   S    
C26   C47   S    
C8    H3    S    
C4    O15   A    
C27   C46   S    
C1    O13   A    
C46   O5    A    
Cr5   O27   S    
Cr6   O11   S    
Cr1   O4    S    
C13   H6    S    
C10   H4    S    
C28   O19   A    
C51   O21   S    
C39   O26   A    
C54   C55   S    
C16   O16   A    
C41   O28   A    
C27   C32   A    
C43   O7    A    
C16   C52   S    
Cr1   O24   S    
C3    C5    A    
C36   H18   S    
C42   O25   A    
C15   C17   A    
Cr5   O11   S    
C1    O4    A    
H10   O21   S    
C35   H17   S    
C34   C52   T    
Cr1   O1    S    
C31   C38   A    
C9    C51   S    
Cr3   O15   S    
C15   C43   S    
Cr6   O2    S    
C6    C13   A    
C11   C13   A    
C23   C39   S    
Cr2   O19   S    
C33   C35   A    
C41   C48   S    
C22   C24   A    
C40   O12   A    
C10   C11   A    
C14   C40   S    
C4    O14   A    
C49   C50   S    
Cr3   O24   S    
C44   O9    A    
