data_mof_unit_40766.cif
_audit_creation_date              2012-12-10T20:42:37-0500
_audit_creation_method            fapswitch 2.2
_symmetry_space_group_name_H-M    P1
_symmetry_Int_Tables_number       1
_space_group_crystal_system       triclinic
_cell_length_a                    8.885535
_cell_length_b                    10.682336
_cell_length_c                    9.894088
_cell_angle_alpha                 90.137783
_cell_angle_beta                  90.092566
_cell_angle_gamma                 90.394345
_cell_volume                      939.103510567

loop_
_atom_site_label
_atom_site_type_symbol
_atom_type_description
_atom_site_fract_x
_atom_site_fract_y
_atom_site_fract_z
_atom_type_partial_charge
C1    C     C_R   0.496856 0.260164 0.499870 0.871369
C2    C     C_R   0.444746 0.934675 0.379472 -0.194505
C3    C     C_R   0.471510 0.870989 0.501110 -0.112253
C4    C     C_R   0.470832 0.936537 0.622945 0.061412
C5    C     C_3   0.562875 0.926153 0.749605 -0.220802
C6    C     C_3   0.576267 0.069325 0.746363 -0.152778
C7    C     C_R   0.416148 0.414179 0.070142 0.138591
C8    C     C_R   0.592781 0.577719 0.071658 0.015657
C9    C     C_R   0.592419 0.577539 0.927861 -0.140914
C10   C     C_R   0.419607 0.411823 0.928038 0.183293
C11   C     C_3   0.254843 0.387620 0.917092 -0.531628
C12   C     C_R   0.218828 0.499697 0.499925 0.934285
C13   C     C_3   0.248515 0.395347 0.070695 -0.265660
C14   C     C_R   0.495124 0.739847 0.500219 0.877814
C15   C     C_R   0.781164 0.499905 0.500088 0.938491
C16   C     C_1   0.065462 0.499643 0.499927 -0.201902
C17   C     C_1   0.934529 0.499728 0.500111 -0.196682
C18   C     C_R   0.480105 0.063584 0.621237 0.087434
C19   C     C_R   0.476545 0.128697 0.499944 -0.106554
C20   C     C_R   0.445833 0.064271 0.379150 -0.236276
H1    H     H_    0.432642 0.112820 0.283887 0.173385
H2    H     H_    0.230685 0.292043 0.877568 0.188211
H3    H     H_    0.212910 0.306631 0.120044 0.151143
H4    H     H_    0.432461 0.885470 0.284165 0.187486
H5    H     H_    0.668849 0.873049 0.736693 0.149044
H6    H     H_    0.515663 0.116679 0.830482 0.153023
H7    H     H_    0.664235 0.641933 0.872943 0.142603
H8    H     H_    0.194550 0.463570 0.863049 0.227918
N1    N     N_R   0.499010 0.499140 0.142800 -0.130919
N2    N     N_R   0.499010 0.499180 0.857150 -0.104840
O1    O     O_R   0.500020 0.316790 0.614690 -0.623982
O2    O     O_R   0.500000 0.316760 0.385350 -0.630022
O3    O     O_R   0.285350 0.500020 0.614650 -0.619697
O4    O     O_R   0.285340 0.499980 0.385310 -0.611887
O5    O     O_R   0.500000 0.683240 0.614650 -0.619639
O6    O     O_R   0.499980 0.683210 0.385310 -0.617092
O7    O     O_R   0.714660 0.500020 0.614690 -0.628319
O8    O     O_R   0.714650 0.499980 0.385350 -0.607255
Zn1   Zn    Zn3+2 0.500010 0.500020 0.653130 0.938561
Zn2   Zn    Zn3+2 0.499990 0.499980 0.346870 0.960519
C21   C     C_1   0.164390 0.506035 0.116366 0.295577
N3    N     N_1   0.098113 0.593106 0.151502 -0.194137
C22   C     C_1   0.471113 0.880601 0.863273 0.186119
N4    N     N_1   0.398792 0.845034 0.952641 -0.217092
C23   C     C_3   0.739393 0.120243 0.731409 -0.385974
C24   C     C_3   0.827050 0.076859 0.605407 -0.313974
C25   C     C_3   0.989320 0.125077 0.609486 -0.890411
H9    H     H_    0.991578 0.229003 0.613876 0.259947
H10   H     H_    0.049078 0.087254 0.699087 0.262242
H11   H     H_    0.049645 0.094461 0.517011 0.257899
H12   H     H_    0.829376 0.973255 0.598686 0.221020
H13   H     H_    0.773624 0.113250 0.512293 0.222785
H14   H     H_    0.735664 0.224158 0.731795 0.224521
H15   H     H_    0.802660 0.092209 0.823407 0.204241
C26   C     C_1   0.689461 0.664721 0.141725 0.245845
N5    N     N_1   0.767406 0.735102 0.197552 -0.205238

loop_
_geom_bond_atom_site_label_1
_geom_bond_atom_site_label_2
_ccdc_geom_bond_type
N2    Zn1   S    
C7    C10   A    
O5    Zn1   S    
C22   N4    T    
C15   O8    A    
C7    N1    A    
C6    C23   S    
C21   N3    T    
C10   N2    A    
C11   H2    S    
C19   C20   A    
C7    C13   S    
C26   N5    T    
C4    C18   A    
C13   C21   S    
C2    C3    A    
C5    C22   S    
C23   H14   S    
O7    Zn1   S    
O3    Zn1   S    
C23   C24   S    
O8    Zn2   S    
C11   C13   S    
C13   H3    S    
C6    H6    S    
C3    C14   S    
C11   H8    S    
O4    Zn2   S    
C8    N1    A    
C9    N2    A    
C8    C26   S    
O1    Zn1   S    
C23   H15   S    
C25   H11   S    
O2    Zn2   S    
C2    H4    S    
C5    C6    S    
C6    C18   S    
C5    H5    S    
C1    C19   S    
C16   C17   T    
C10   C11   S    
C12   O4    A    
C3    C4    A    
C24   H13   S    
C1    O1    A    
O6    Zn2   S    
C20   H1    S    
C9    H7    S    
C25   H10   S    
C18   C19   A    
C14   O5    A    
C15   C17   S    
C24   C25   S    
C8    C9    A    
C14   O6    A    
C12   C16   S    
N1    Zn2   S    
C12   O3    A    
C2    C20   A    
C24   H12   S    
C1    O2    A    
C15   O7    A    
C25   H9    S    
C4    C5    S    
