data_mof_unit_15489.cif
_audit_creation_date              2012-12-10T20:26:31-0500
_audit_creation_method            fapswitch 2.2
_symmetry_space_group_name_H-M    P1
_symmetry_Int_Tables_number       1
_space_group_crystal_system       triclinic
_cell_length_a                    10.722903
_cell_length_b                    10.655423
_cell_length_c                    9.865766
_cell_angle_alpha                 90.096059
_cell_angle_beta                  89.8817
_cell_angle_gamma                 90.154
_cell_volume                      1127.22544113

loop_
_atom_site_label
_atom_site_type_symbol
_atom_type_description
_atom_site_fract_x
_atom_site_fract_y
_atom_site_fract_z
_atom_type_partial_charge
C1    C     C_R   0.499733 0.260212 0.500101 0.854909
C2    C     C_R   0.579568 0.574493 0.071937 -0.119919
C3    C     C_R   0.579687 0.574400 0.927938 -0.108608
C4    C     C_R   0.262943 0.490752 0.499980 0.938790
C5    C     C_R   0.411465 0.433983 0.928664 0.159007
C6    C     C_3   0.389525 0.295538 0.922210 -0.083055
C7    C     C_3   0.391325 0.294870 0.076852 -0.521820
C8    C     C_R   0.498534 0.739754 0.500233 0.887348
C9    C     C_R   0.737141 0.499310 0.499638 0.881123
C10   C     C_2   0.931517 0.419164 0.417602 0.087507
C11   C     C_2   0.868857 0.503190 0.495402 -0.191863
C12   C     C_R   0.492138 0.128373 0.502211 -0.099827
C13   C     C_2   0.062755 0.441550 0.392873 0.025707
C14   C     C_2   0.134980 0.453116 0.502684 -0.410160
C15   C     C_R   0.545912 0.064357 0.610011 0.073993
C16   C     C_3   0.872784 0.302158 0.354529 -0.367123
C17   C     C_3   0.945671 0.183824 0.390956 -0.887908
C18   C     C_3   0.262907 0.261964 0.858969 -0.352237
C19   C     C_3   0.239683 0.120690 0.863112 -0.852533
C20   C     C_1   0.924735 0.614989 0.554706 0.127808
C21   C     C_1   0.102075 0.464417 0.254565 0.214012
C22   C     C_1   0.692898 0.125906 0.791861 0.221482
C23   C     C_R   0.424184 0.064744 0.402354 -0.214573
C24   C     C_R   0.423299 0.935011 0.402499 -0.211264
C25   C     C_R   0.489859 0.871541 0.502936 -0.084530
C26   C     C_R   0.544250 0.935945 0.610308 0.103089
C27   C     C_3   0.675507 0.926652 0.659993 -0.510002
C28   C     C_3   0.678737 0.069006 0.656871 -0.214455
C29   C     C_R   0.412348 0.433179 0.071189 0.223334
H1    H     H_    0.743494 0.108644 0.579987 0.154188
H2    H     H_    0.679904 0.884381 0.762959 0.205266
H3    H     H_    0.738996 0.882797 0.584329 0.197187
H4    H     H_    0.039921 0.185898 0.344052 0.263722
H5    H     H_    0.955339 0.175790 0.502702 0.260488
H6    H     H_    0.895396 0.099781 0.352515 0.254029
H7    H     H_    0.775368 0.286787 0.388731 0.207483
H8    H     H_    0.871365 0.312680 0.242519 0.219023
H9    H     H_    0.314270 0.070359 0.806862 0.263371
H10   H     H_    0.237278 0.086946 0.969531 0.263720
H11   H     H_    0.148658 0.099010 0.814855 0.252972
H12   H     H_    0.645501 0.632732 0.126246 0.151813
H13   H     H_    0.185652 0.311277 0.912159 0.221263
H14   H     H_    0.262556 0.292230 0.751354 0.226589
H15   H     H_    0.645734 0.632537 0.873554 0.149083
H16   H     H_    0.468924 0.244718 0.875580 0.201324
H17   H     H_    0.300675 0.271005 0.125369 0.204037
H18   H     H_    0.472777 0.243806 0.118927 0.207445
H19   H     H_    0.096037 0.433364 0.602549 0.158605
H20   H     H_    0.375687 0.114809 0.322946 0.157369
H21   H     H_    0.374840 0.884778 0.322749 0.167197
N1    N     N_R   0.499170 0.499140 0.142800 -0.109212
N2    N     N_R   0.499170 0.499180 0.857150 -0.118968
N3    N     N_1   0.968906 0.704091 0.601927 -0.207924
N4    N     N_1   0.131881 0.483252 0.143668 -0.235863
N5    N     N_1   0.705126 0.170513 0.898067 -0.231316
O1    O     O_R   0.500020 0.316790 0.614690 -0.628223
O2    O     O_R   0.500000 0.316760 0.385350 -0.628599
O3    O     O_R   0.319080 0.500020 0.614640 -0.624175
O4    O     O_R   0.319070 0.499980 0.385300 -0.601804
O5    O     O_R   0.500000 0.683240 0.614650 -0.611342
O6    O     O_R   0.499980 0.683210 0.385310 -0.621639
O7    O     O_R   0.680930 0.500020 0.614700 -0.610308
O8    O     O_R   0.680920 0.499980 0.385360 -0.624518
Zn1   Zn    Zn3+2 0.500010 0.500020 0.653130 0.951268
Zn2   Zn    Zn3+2 0.499990 0.499980 0.346870 0.948216

loop_
_geom_bond_atom_site_label_1
_geom_bond_atom_site_label_2
_ccdc_geom_bond_type
C8    O5    A    
C14   H19   S    
C3    N2    A    
O1    Zn1   S    
C5    N2    A    
C6    C7    S    
C7    C29   S    
C6    H16   S    
C1    O2    A    
C16   H8    S    
O7    Zn1   S    
C2    N1    A    
C12   C15   A    
O5    Zn1   S    
C8    O6    A    
C23   C24   A    
C10   C11   D    
O8    Zn2   S    
C2    C3    A    
C15   C28   S    
C13   C21   S    
C10   C16   S    
C18   H14   S    
O4    Zn2   S    
O3    Zn1   S    
C8    C25   S    
C9    C11   S    
C12   C23   A    
C26   C27   S    
C22   N5    T    
C1    C12   S    
C17   H4    S    
C5    C6    S    
C19   H10   S    
C4    O4    A    
C28   H1    S    
C19   H9    S    
C1    O1    A    
C29   N1    A    
C5    C29   A    
C19   H11   S    
C18   H13   S    
C4    C14   S    
C21   N4    T    
C6    C18   S    
C11   C20   S    
C23   H20   S    
N1    Zn2   S    
C17   H5    S    
C27   H3    S    
C2    H12   S    
C27   H2    S    
C9    O7    A    
C7    H17   S    
O6    Zn2   S    
C24   C25   A    
C18   C19   S    
N2    Zn1   S    
C4    O3    A    
C27   C28   S    
C24   H21   S    
C20   N3    T    
C15   C26   A    
C22   C28   S    
C17   H6    S    
C3    H15   S    
C25   C26   A    
C13   C14   D    
C9    O8    A    
C16   H7    S    
O2    Zn2   S    
C16   C17   S    
C10   C13   S    
C7    H18   S    
