data_mof_unit_41507.cif
_audit_creation_date              2012-12-10T19:46:57-0500
_audit_creation_method            fapswitch 2.2
_symmetry_space_group_name_H-M    P1
_symmetry_Int_Tables_number       1
_space_group_crystal_system       triclinic
_cell_length_a                    11.012653
_cell_length_b                    10.93193
_cell_length_c                    13.089176
_cell_angle_alpha                 91.139888
_cell_angle_beta                  90.180773
_cell_angle_gamma                 89.976175
_cell_volume                      1575.48024811

loop_
_atom_site_label
_atom_site_type_symbol
_atom_type_description
_atom_site_fract_x
_atom_site_fract_y
_atom_site_fract_z
_atom_type_partial_charge
C1    C     C_R   0.504697 0.259428 0.498694 0.832289
C2    C     C_R   0.495327 0.740572 0.501304 0.832374
C3    C     C_R   0.872914 0.500184 0.500205 -0.233907
C4    C     C_R   0.127084 0.499803 0.499799 -0.233944
C5    C     C_R   0.937254 0.528962 0.591248 -0.053562
C6    C     C_R   0.062745 0.471007 0.408761 -0.053533
C7    C     C_R   0.466028 0.128413 0.125990 -0.115617
C8    C     C_R   0.533994 0.871193 0.873921 -0.116034
C9    C     C_R   0.445027 0.089241 0.225379 -0.164767
C10   C     C_R   0.555063 0.910398 0.774550 -0.164429
C11   C     C_R   0.532133 0.110017 0.302459 0.105102
C12   C     C_R   0.467846 0.889965 0.697501 0.105173
C13   C     C_R   0.641190 0.169313 0.278236 -0.062276
C14   C     C_R   0.358622 0.830975 0.721723 -0.062531
C15   C     C_R   0.661664 0.208493 0.178589 -0.085173
C16   C     C_R   0.338063 0.791789 0.821355 -0.084712
C17   C     C_R   0.574112 0.188278 0.102647 -0.121941
C18   C     C_R   0.425722 0.811657 0.897273 -0.122097
C19   C     C_R   0.507784 0.931036 0.409738 -0.193062
C20   C     C_R   0.492315 0.068958 0.590259 -0.192986
C21   C     C_R   0.494677 0.873034 0.503341 -0.096765
C22   C     C_R   0.505395 0.126965 0.496652 -0.096762
C23   C     C_R   0.259415 0.499941 0.499904 0.905894
C24   C     C_R   0.740582 0.500048 0.500096 0.905869
C25   C     C_R   0.485870 0.942674 0.595154 -0.006850
C26   C     C_R   0.514201 0.057323 0.404832 -0.006740
C27   C     C_1   0.500120 0.500073 0.173503 0.220889
C28   C     C_1   0.499879 0.499927 0.826497 0.220923
C29   C     C_1   0.500065 0.500053 0.050695 0.002370
C30   C     C_1   0.499932 0.499948 0.949305 0.002309
C31   C     C_R   0.188163 0.488916 0.139858 -0.220073
C32   C     C_R   0.811863 0.510823 0.860144 -0.220056
C33   C     C_R   0.148416 0.525624 0.237230 0.414304
C34   C     C_R   0.851566 0.474198 0.762736 0.414214
C35   C     C_R   0.124404 0.436978 0.311352 0.113418
C36   C     C_R   0.875598 0.562914 0.688677 0.113480
C37   C     C_R   0.144180 0.312818 0.287473 -0.232955
C38   C     C_R   0.855878 0.687062 0.712651 -0.232884
C39   C     C_R   0.183109 0.276973 0.189912 -0.168917
C40   C     C_R   0.817004 0.722823 0.810248 -0.169098
C41   C     C_R   0.203735 0.364721 0.115719 0.390135
C42   C     C_R   0.796365 0.635004 0.884380 0.390112
C43   C     C_R   0.936156 0.471318 0.409080 0.366006
C44   C     C_R   0.063843 0.528680 0.590923 0.365947
Cu1   Cu    Cu3+1 0.499990 0.499990 0.592680 1.037766
Cu2   Cu    Cu3+1 0.500010 0.500010 0.407320 1.037694
H1    H     H_    0.710742 0.183320 0.335981 0.149295
H2    H     H_    0.289001 0.817230 0.663993 0.149189
H3    H     H_    0.204585 0.556723 0.082305 0.194096
H4    H     H_    0.795430 0.442960 0.917649 0.194064
H5    H     H_    0.124585 0.243608 0.343157 0.171611
H6    H     H_    0.875492 0.756325 0.657016 0.171608
H7    H     H_    0.193955 0.180747 0.171229 0.173956
H8    H     H_    0.806217 0.819038 0.829007 0.173918
H9    H     H_    0.361672 0.041149 0.242103 0.148392
H10   H     H_    0.638557 0.958249 0.757816 0.148325
N1    N     N_1   0.500030 0.500030 0.268070 -0.124642
N2    N     N_1   0.499970 0.499970 0.731930 -0.124614
O1    O     O_R   0.499980 0.319630 0.578260 -0.575655
O2    O     O_R   0.500020 0.680370 0.421740 -0.575689
O3    O     O_R   0.500000 0.319650 0.421740 -0.585733
O4    O     O_R   0.500000 0.680350 0.578260 -0.585642
O5    O     O_R   0.319630 0.500000 0.578260 -0.522691
O6    O     O_R   0.680370 0.500000 0.421740 -0.522750
O7    O     O_R   0.319650 0.500020 0.421740 -0.595622
O8    O     O_R   0.680350 0.499980 0.578260 -0.595634
Cl1   Cl    Cl    0.244482 0.318777 0.991301 -0.598058
Cl2   Cl    Cl    0.755706 0.680836 0.008846 -0.597886
H11   H     H_    0.746047 0.253029 0.159616 0.197880
H12   H     H_    0.253534 0.747518 0.840331 0.197756
H13   H     H_    0.515716 0.877470 0.339379 0.178571
H14   H     H_    0.484391 0.122515 0.660624 0.178592
Cl3   Cl    Cl    0.125275 0.682443 0.263299 -0.583893
Cl4   Cl    Cl    0.874637 0.317392 0.736551 -0.584049
Cl5   Cl    Cl    0.860162 0.432308 0.292565 -0.599833
Cl6   Cl    Cl    0.139841 0.567732 0.707427 -0.599874
H15   H     H_    0.590457 0.218120 0.025538 0.155707
H16   H     H_    0.409318 0.781803 0.974370 0.155646
H17   H     H_    0.399070 0.111043 0.066811 0.184515
H18   H     H_    0.601042 0.888289 0.933082 0.184550

loop_
_geom_bond_atom_site_label_1
_geom_bond_atom_site_label_2
_ccdc_geom_bond_type
C27   C29   S    
C19   H13   S    
C39   C41   A    
Cu1   Cu2   S    
C3    C43   A    
C19   C21   A    
C1    O1    A    
C37   H5    S    
C2    O2    A    
C38   H6    S    
C20   C25   A    
C5    C36   S    
Cu1   O4    S    
C6    C35   S    
C7    C9    A    
C44   Cl6   S    
C19   C26   A    
C7    C17   A    
C31   C33   A    
C9    H9    S    
C10   H10   S    
C24   O8    A    
C40   C42   A    
C1    C22   S    
C24   O6    A    
C42   Cl2   S    
C3    C24   S    
C31   H3    S    
C43   Cl5   S    
C15   H11   S    
Cu1   N2    S    
Cu2   O3    S    
C16   H12   S    
C41   Cl1   S    
Cu2   O7    S    
C4    C6    A    
C27   N1    T    
C13   H1    S    
C4    C23   S    
C14   H2    S    
C4    C44   A    
C11   C26   S    
Cu1   O5    S    
C8    C18   A    
Cu2   O6    S    
C32   C34   A    
C29   C30   T    
C18   H16   S    
C2    C21   S    
C17   H15   S    
C9    C11   A    
C32   H4    S    
C10   C12   A    
C34   Cl4   S    
C33   Cl3   S    
C5    C44   A    
C12   C14   A    
C40   H8    S    
C6    C43   A    
C13   C15   A    
Cu2   N1    S    
C14   C16   A    
C35   C37   A    
C7    H17   S    
C15   C17   A    
C21   C25   A    
Cu1   O1    S    
C31   C41   A    
Cu2   O2    S    
C8    C10   A    
C20   C22   A    
C3    C5    A    
C1    O3    A    
C28   N2    T    
C12   C25   S    
C23   O7    A    
C36   C38   A    
C28   C30   S    
C37   C39   A    
C38   C40   A    
C11   C13   A    
C39   H7    S    
C23   O5    A    
C33   C35   A    
C34   C36   A    
C16   C18   A    
C22   C26   A    
Cu1   O8    S    
C8    H18   S    
C32   C42   A    
C20   H14   S    
C2    O4    A    
