data_mof_unit_68341.cif
_audit_creation_date              2012-12-11T16:32:26-0500
_audit_creation_method            fapswitch 2.2
_symmetry_space_group_name_H-M    P1
_symmetry_Int_Tables_number       1
_space_group_crystal_system       triclinic
_cell_length_a                    7.025153
_cell_length_b                    14.08256
_cell_length_c                    16.246736
_cell_angle_alpha                 90.034243
_cell_angle_beta                  90.522455
_cell_angle_gamma                 89.835584
_cell_volume                      1607.25063567

loop_
_atom_site_label
_atom_site_type_symbol
_atom_type_description
_atom_site_fract_x
_atom_site_fract_y
_atom_site_fract_z
_atom_type_partial_charge
O1    O     O_R   0.361630 0.167340 0.164570 -0.525534
O2    O     O_R   0.638370 0.832660 0.835430 -0.527913
O3    O     O_R   0.690860 0.157560 0.338690 -0.533833
O4    O     O_R   0.309140 0.842440 0.661310 -0.542670
O5    O     O_R   0.861260 0.336420 0.339380 -0.544953
O6    O     O_R   0.138740 0.663580 0.660620 -0.544409
C1    C     C_R   0.523491 0.135643 0.368023 0.723184
C2    C     C_R   0.476531 0.863980 0.631680 0.733320
O7    O     O_R   0.691330 0.156310 0.165190 -0.551547
O8    O     O_R   0.308670 0.843690 0.834810 -0.547959
O9    O     O_R   0.861730 0.335160 0.164640 -0.550202
O10   O     O_R   0.138270 0.664840 0.835360 -0.549605
C3    C     C_R   0.520686 0.132656 0.137626 0.777627
C4    C     C_R   0.478883 0.866633 0.862926 0.793613
O11   O     O_R   0.361150 0.168600 0.339320 -0.511492
O12   O     O_R   0.638850 0.831400 0.660680 -0.510061
O13   O     O_3   0.527950 0.310560 0.252000 -0.373157
O14   O     O_3   0.472050 0.689440 0.748000 -0.376461
V1    V     V_3+5 0.802770 0.240990 0.251980 1.411292
V2    V     V_3+5 0.197230 0.759010 0.748020 1.396029
O15   O     O_R   0.191450 0.346190 0.165260 -0.541503
O16   O     O_R   0.808550 0.653810 0.834740 -0.541353
C5    C     C_R   0.022125 0.363238 0.133531 0.698304
C6    C     C_R   0.977722 0.636623 0.866304 0.702642
O17   O     O_R   0.190980 0.347440 0.338770 -0.528426
O18   O     O_R   0.809020 0.652560 0.661230 -0.538216
C7    C     C_R   0.022486 0.369872 0.366777 0.720176
C8    C     C_R   0.977780 0.629576 0.633736 0.724626
V3    V     V_3+5 0.302780 0.262760 0.251980 1.443558
V4    V     V_3+5 0.697220 0.737240 0.748020 1.421386
O19   O     O_3   0.027730 0.193200 0.251960 -0.354725
O20   O     O_3   0.972270 0.806800 0.748040 -0.358092
C9    C     C_3   0.822183 0.477917 0.473453 -0.239527
C10   C     C_3   0.179036 0.520788 0.527847 -0.192216
C11   C     C_3   0.904237 0.459875 0.560613 0.206405
C12   C     C_3   0.097330 0.538849 0.440736 0.212651
H1    H     H_    0.675394 0.460508 0.452586 0.148798
H2    H     H_    0.325758 0.538185 0.548828 0.130109
C13   C     C_3   0.989620 0.559974 0.564029 -0.097757
C14   C     C_3   0.011653 0.438796 0.437169 -0.097126
C15   C     C_3   0.911592 0.578759 0.476437 0.136998
C16   C     C_3   0.089841 0.420061 0.524774 0.164183
H3    H     H_    0.107297 0.333629 0.748566 0.147387
H4    H     H_    0.856735 0.664555 0.247586 0.124050
C17   C     C_R   0.960844 0.698978 0.044952 0.123415
C18   C     C_R   0.035704 0.300099 0.954290 0.127025
C19   C     C_R   0.911425 0.720883 0.127475 0.259278
C20   C     C_R   0.075288 0.277960 0.870686 0.237646
C21   C     C_R   0.893714 0.648498 0.184642 -0.183406
C22   C     C_R   0.082217 0.349974 0.812619 -0.159061
C23   C     C_R   0.929974 0.555347 0.163606 -0.201108
C24   C     C_R   0.051161 0.443284 0.834413 -0.182863
C25   C     C_R   0.971295 0.528325 0.081943 0.046234
C26   C     C_R   0.021953 0.470741 0.917015 0.032698
C27   C     C_R   0.975156 0.599890 0.019590 -0.002967
C28   C     C_R   0.022199 0.399282 0.979640 -0.003938
C29   C     C_R   0.005604 0.430542 0.063374 -0.140196
C30   C     C_R   0.993117 0.568850 0.936002 -0.140781
H5    H     H_    0.920039 0.504405 0.213086 0.125112
H6    H     H_    0.053956 0.493961 0.784487 0.133112
C31   C     C_3   0.331065 0.015953 0.466605 0.186744
C32   C     C_3   0.668112 0.983632 0.532966 0.241088
C33   C     C_3   0.428046 0.916550 0.469654 -0.294859
C34   C     C_3   0.572131 0.082831 0.529868 -0.231973
H7    H     H_    0.366582 0.849636 0.445241 0.127306
H8    H     H_    0.633851 0.149520 0.554672 0.119164
C35   C     C_3   0.483935 0.935870 0.561642 -0.103249
C36   C     C_3   0.516290 0.063762 0.438022 -0.101088
C37   C     C_3   0.385686 0.034131 0.557171 0.180589
C38   C     C_3   0.614500 0.965607 0.442568 0.187650
C39   C     C_R   0.540872 0.201364 0.964818 0.081382
C40   C     C_R   0.458092 0.799196 0.035683 0.079689
C41   C     C_R   0.581558 0.229613 0.884755 -0.097556
C42   C     C_R   0.415404 0.771401 0.115724 -0.090086
C43   C     C_R   0.605364 0.165148 0.821982 0.136974
C44   C     C_R   0.383291 0.836455 0.177427 0.132780
C45   C     C_R   0.587227 0.067470 0.837746 0.149122
C46   C     C_R   0.396372 0.934104 0.160685 0.132132
C47   C     C_R   0.537164 0.033198 0.918230 -0.009919
C48   C     C_R   0.455908 0.967534 0.081254 -0.006149
C49   C     C_R   0.527311 0.100801 0.984625 -0.027947
C50   C     C_R   0.469931 0.899662 0.015377 -0.031317
C51   C     C_R   0.496951 0.934142 0.933287 -0.121562
C52   C     C_R   0.500706 0.066040 0.066692 -0.118299
H9    H     H_    0.593413 0.304485 0.870130 0.139525
H10   H     H_    0.406542 0.696576 0.130932 0.139765
N1    N     N_3   0.799247 0.415627 0.627063 -0.686280
H11   H     H_    0.751591 0.350029 0.605112 0.226048
H12   H     H_    0.677950 0.456961 0.637253 0.228470
N2    N     N_3   0.207266 0.582124 0.375396 -0.670959
H13   H     H_    0.243215 0.650470 0.395070 0.227371
H14   H     H_    0.116969 0.589651 0.324531 0.221476
N3    N     N_3   0.267367 0.073717 0.621920 -0.716719
H15   H     H_    0.184475 0.019491 0.646419 0.251208
H16   H     H_    0.177199 0.124452 0.595824 0.222104
N4    N     N_3   0.746728 0.928453 0.381928 -0.694799
H17   H     H_    0.696476 0.946326 0.323374 0.225541
H18   H     H_    0.744641 0.854579 0.385955 0.224448
C53   C     C_3   0.336478 0.799837 0.262182 -0.831114
H19   H     H_    0.321535 0.721471 0.262738 0.222215
H20   H     H_    0.453265 0.818274 0.305377 0.210106
H21   H     H_    0.200788 0.830478 0.284541 0.226877
C54   C     C_3   0.647621 0.202564 0.736961 -0.815559
H22   H     H_    0.666130 0.280766 0.737028 0.224636
H23   H     H_    0.780662 0.170907 0.712768 0.218374
H24   H     H_    0.527229 0.186181 0.694896 0.240703
C55   C     C_3   0.500358 0.284789 0.021818 -0.727536
H25   H     H_    0.599781 0.291071 0.073666 0.214801
H26   H     H_    0.506528 0.354755 0.990369 0.187654
H27   H     H_    0.357166 0.280629 0.045815 0.216401
C56   C     C_3   0.502438 0.715755 0.979263 -0.730669
H28   H     H_    0.402295 0.707528 0.927771 0.213011
H29   H     H_    0.644574 0.721970 0.954450 0.217135
H30   H     H_    0.501426 0.646159 0.011462 0.189772
N5    N     N_3   0.629623 0.003648 0.771905 -0.645342
H31   H     H_    0.540834 0.019783 0.722197 0.251804
H32   H     H_    0.771349 0.012607 0.754525 0.249374
N6    N     N_3   0.330915 0.998522 0.222558 -0.633497
H33   H     H_    0.185624 0.987516 0.231842 0.251947
H34   H     H_    0.402950 0.985029 0.277579 0.228430
C57   C     C_3   0.811874 0.669577 0.449636 -0.819393
H35   H     H_    0.762328 0.662768 0.385005 0.210858
H36   H     H_    0.687049 0.682952 0.489450 0.215933
H37   H     H_    0.912575 0.729844 0.455217 0.198653
C58   C     C_3   0.189327 0.329175 0.551437 -0.787508
H38   H     H_    0.238293 0.335436 0.616215 0.212331
H39   H     H_    0.087912 0.269424 0.545243 0.191432
H40   H     H_    0.314313 0.315834 0.511709 0.205351
C59   C     C_3   0.007723 0.782663 0.989251 -0.750927
H41   H     H_    0.892220 0.802180 0.946415 0.206177
H42   H     H_    0.045914 0.848057 0.023192 0.209157
H43   H     H_    0.134069 0.767780 0.953649 0.217568
C60   C     C_3   0.994973 0.216574 0.011160 -0.747283
H44   H     H_    0.867061 0.229890 0.046276 0.216683
H45   H     H_    0.962850 0.149530 0.978549 0.208013
H46   H     H_    0.110943 0.200313 0.054643 0.206307
C61   C     C_3   0.876541 0.821227 0.157158 -0.785993
H47   H     H_    0.810211 0.822924 0.218920 0.203337
H48   H     H_    0.011237 0.860926 0.161028 0.213135
H49   H     H_    0.781385 0.859414 0.114084 0.222792
C62   C     C_3   0.110410 0.177716 0.840672 -0.777551
H50   H     H_    0.169161 0.176217 0.777423 0.218233
H51   H     H_    0.213114 0.141201 0.881633 0.222880
H52   H     H_    0.977086 0.136419 0.840021 0.212297
N7    N     N_3   0.149813 0.033575 0.425560 -0.636423
H53   H     H_    0.064271 0.974946 0.436396 0.258286
H54   H     H_    0.087636 0.093881 0.451500 0.224264
N8    N     N_3   0.850492 0.965479 0.572433 -0.660955
H55   H     H_    0.909422 0.904533 0.546125 0.234980
H56   H     H_    0.935732 0.023126 0.558480 0.212230

loop_
_geom_bond_atom_site_label_1
_geom_bond_atom_site_label_2
_ccdc_geom_bond_type
H4    C21   S    
V4    O20   S    
N1    H11   S    
C33   H7    S    
C17   C59   S    
N3    H15   S    
C39   C55   S    
O13   V3    S    
C38   N4    S    
C56   H28   S    
C10   C16   S    
O4    C2    A    
V1    O19   S    
N7    H53   S    
C19   C21   A    
C60   H45   S    
C44   C53   S    
C59   H42   S    
C61   H48   S    
C3    C52   S    
O9    V1    S    
C42   C44   A    
C32   C35   S    
C34   C36   S    
C55   H27   S    
C46   N6    S    
C44   C46   A    
O3    C1    A    
C37   N3    S    
C62   H51   S    
V2    O20   S    
C46   C48   A    
C31   C37   S    
N5    H31   S    
C28   C29   A    
C32   C38   S    
C17   C19   A    
C15   C57   S    
C31   C33   S    
C11   C16   S    
O7    C3    A    
N6    H33   S    
C57   H37   S    
C32   C34   S    
C24   H6    S    
C16   C58   S    
C9    C11   S    
C1    C36   S    
O5    C7    A    
C11   N1    S    
O7    V1    S    
O6    C8    A    
O8    V2    S    
N5    H32   S    
N4    H18   S    
C58   H40   S    
C22   C24   A    
C55   H25   S    
O3    V1    S    
O14   V4    S    
C56   H30   S    
C10   C12   S    
C48   C52   A    
C59   H43   S    
C45   C47   A    
C40   C56   S    
C2    O12   A    
C32   N8    S    
C43   C54   S    
C55   H26   S    
O10   V2    S    
C12   C15   S    
C4    C51   S    
N7    H54   S    
C24   C26   A    
O11   V3    S    
C18   C20   A    
C25   C27   A    
O17   V3    S    
N3    H16   S    
C61   H49   S    
C33   C35   S    
C9    C14   S    
C10   C13   S    
C12   C14   S    
N8    H55   S    
C13   C15   S    
O8    C4    A    
C62   H52   S    
C39   C41   A    
C25   C29   A    
C1    O11   A    
C8    C13   S    
C21   C23   A    
O15   V3    S    
C9    H1    S    
C35   C37   S    
C34   H8    S    
C11   C13   S    
C60   H46   S    
N2    H14   S    
C53   H19   S    
C31   N7    S    
C33   C38   S    
C7    C14   S    
N4    H17   S    
C19   C61   S    
O1    V3    S    
C56   H29   S    
C34   C37   S    
C42   H10   S    
C20   C22   A    
C43   C45   A    
C41   H9    S    
C57   H35   S    
C40   C42   A    
C53   H20   S    
O18   V4    S    
O15   C5    A    
C58   H38   S    
C54   H23   S    
O16   C6    A    
C23   H5    S    
C41   C43   A    
H3    C22   S    
C49   C52   A    
C47   C49   A    
C59   H41   S    
C26   C30   A    
C12   N2    S    
C5    C29   S    
O16   V4    S    
C10   H2    S    
N8    H56   S    
C14   C16   S    
C26   C28   A    
O5    V1    S    
O17   C7    A    
O6    V2    S    
C61   H47   S    
O10   C6    A    
O18   C8    A    
O2    V4    S    
C9    C15   S    
N1    H12   S    
V3    O19   S    
C62   H50   S    
C18   C60   S    
C47   C51   A    
C31   C36   S    
N2    H13   S    
C60   H44   S    
O9    C5    A    
O13   V1    S    
C48   C50   A    
C20   C62   S    
C54   H24   S    
O14   V2    S    
O2    C4    A    
N6    H34   S    
C57   H36   S    
O4    V2    S    
C53   H21   S    
O1    C3    A    
C17   C27   A    
C2    C35   S    
C6    C30   S    
C50   C51   A    
C27   C30   A    
C18   C28   A    
C54   H22   S    
C58   H39   S    
C36   C38   S    
C23   C25   A    
C45   N5    S    
O12   V4    S    
C40   C50   A    
C39   C49   A    
