data_mof_unit_25985.cif
_audit_creation_date              2012-12-10T18:43:05-0500
_audit_creation_method            fapswitch 2.2
_symmetry_space_group_name_H-M    P1
_symmetry_Int_Tables_number       1
_space_group_crystal_system       triclinic
_cell_length_a                    10.747238
_cell_length_b                    9.882321
_cell_length_c                    10.663898
_cell_angle_alpha                 87.589052
_cell_angle_beta                  90.341225
_cell_angle_gamma                 89.490393
_cell_volume                      1131.51758502

loop_
_atom_site_label
_atom_site_type_symbol
_atom_type_description
_atom_site_fract_x
_atom_site_fract_y
_atom_site_fract_z
_atom_type_partial_charge
C1    C     C_R   0.259797 0.501474 0.502865 0.859195
C2    C     C_R   0.739496 0.499204 0.507487 0.852242
C3    C     C_R   0.509437 0.503475 0.262065 0.799825
C4    C     C_R   0.495456 0.496381 0.737671 0.745681
C5    C     C_2   0.569767 0.411228 0.934114 -0.175675
C6    C     C_2   0.564651 0.400982 0.069807 -0.182208
C7    C     C_2   0.480746 0.482338 0.871390 0.448325
C8    C     C_2   0.542922 0.514396 0.130588 0.405275
C9    C     C_R   0.063615 0.394339 0.467274 -0.153699
C10   C     C_R   0.936820 0.391350 0.471087 -0.151563
C11   C     C_R   0.871685 0.498339 0.521512 -0.141238
C12   C     C_R   0.126701 0.505924 0.510773 -0.134702
C13   C     C_R   0.932908 0.607636 0.575677 -0.054206
C14   C     C_R   0.062259 0.615581 0.564773 -0.051402
C15   C     C_R   0.567856 0.065938 0.588004 0.019833
C16   C     C_R   0.431546 0.074716 0.412345 0.043991
C17   C     C_R   0.566054 0.922334 0.587563 0.005060
C18   C     C_R   0.433091 0.931119 0.413136 -0.083199
H1    H     H_    0.647338 0.364384 0.886709 0.117704
H2    H     H_    0.564052 0.300848 0.115916 0.158282
H3    H     H_    0.112167 0.310642 0.426130 0.157145
H4    H     H_    0.889514 0.306982 0.430582 0.173013
H5    H     H_    0.618510 0.862061 0.656756 0.184973
H6    H     H_    0.378893 0.877683 0.345454 0.163600
N1    N     N_R   0.500000 0.857200 0.500000 -0.130224
N2    N     N_R   0.500000 0.142810 0.500000 -0.170395
O1    O     O_R   0.316770 0.614620 0.499990 -0.646976
O2    O     O_R   0.683230 0.614620 0.500010 -0.609551
O3    O     O_R   0.316800 0.385290 0.500000 -0.631219
O4    O     O_R   0.683200 0.385290 0.500000 -0.643534
O5    O     O_R   0.500000 0.614630 0.319080 -0.604647
O6    O     O_R   0.500000 0.614630 0.680920 -0.629210
O7    O     O_R   0.500030 0.385300 0.319080 -0.658027
O8    O     O_R   0.499970 0.385300 0.680920 -0.648910
Zn1   Zn    Zn3+2 0.500000 0.653120 0.500000 0.953373
Zn2   Zn    Zn3+2 0.500000 0.346880 0.500000 0.932356
O9    O     O_3   0.372430 0.519048 0.934639 -0.640564
C19   C     C_3   0.282752 0.584449 0.856466 -0.214227
H7    H     H_    0.252052 0.518047 0.780791 0.152041
H8    H     H_    0.318455 0.682760 0.818021 0.197402
H9    H     H_    0.199927 0.606657 0.913908 0.216492
O10   O     O_3   0.571181 0.639104 0.070504 -0.608412
C20   C     C_3   0.477751 0.738710 0.085761 -0.104716
H10   H     H_    0.507678 0.809470 0.157939 0.180102
H11   H     H_    0.384605 0.696603 0.109725 0.153379
H12   H     H_    0.467214 0.798778 0.996016 0.187659
C21   C     C_2   0.861067 0.710869 0.644183 0.539167
H13   H     H_    0.789271 0.678282 0.709679 0.039851
O11   O     O_2   0.876915 0.831941 0.623385 -0.528728
C22   C     C_2   0.126981 0.737756 0.609099 0.455867
H14   H     H_    0.185715 0.797367 0.546113 0.098452
O12   O     O_2   0.111500 0.775727 0.715382 -0.570982
C23   C     C_2   0.645440 0.129383 0.684044 0.439118
H15   H     H_    0.671861 0.233745 0.674704 0.119316
O13   O     O_2   0.683338 0.063576 0.776242 -0.565934
C24   C     C_2   0.352898 0.146847 0.316117 0.393775
H16   H     H_    0.320430 0.248575 0.327347 0.135729
O14   O     O_2   0.320897 0.091064 0.221223 -0.594077

loop_
_geom_bond_atom_site_label_1
_geom_bond_atom_site_label_2
_ccdc_geom_bond_type
C22   O12   D    
C20   H10   S    
C16   C24   S    
C15   C17   A    
O9    C19   S    
C5    H1    S    
C6    C8    D    
C6    H2    S    
C9    C10   A    
C21   H13   S    
O4    Zn2   S    
C2    O4    A    
C17   N1    A    
C1    O3    A    
C22   H14   S    
C7    O9    S    
C5    C7    D    
C21   O11   D    
C17   H5    S    
C13   C14   A    
C10   H4    S    
C3    O5    A    
C20   H11   S    
O3    Zn2   S    
C9    H3    S    
C4    O6    A    
C18   N1    A    
N1    Zn1   S    
C4    C7    S    
C18   H6    S    
C2    C11   S    
C15   C23   S    
N2    Zn2   S    
C19   H8    S    
C8    O10   S    
O8    Zn2   S    
C10   C11   A    
C23   O13   D    
C4    O8    A    
C16   N2    A    
C5    C6    S    
C20   H12   S    
O5    Zn1   S    
C9    C12   A    
C3    O7    A    
O6    Zn1   S    
C12   C14   A    
C11   C13   A    
O7    Zn2   S    
C19   H7    S    
C24   H16   S    
C19   H9    S    
C16   C18   A    
C3    C8    S    
O10   C20   S    
C1    O1    A    
C14   C22   S    
C15   N2    A    
C2    O2    A    
O1    Zn1   S    
C23   H15   S    
C13   C21   S    
C1    C12   S    
O2    Zn1   S    
C24   O14   D    
