data_mof_unit_10715.cif
_audit_creation_date              2012-12-10T17:47:03-0500
_audit_creation_method            fapswitch 2.2
_symmetry_space_group_name_H-M    P1
_symmetry_Int_Tables_number       1
_space_group_crystal_system       triclinic
_cell_length_a                    9.940681
_cell_length_b                    10.623642
_cell_length_c                    13.615698
_cell_angle_alpha                 91.72692
_cell_angle_beta                  83.246639
_cell_angle_gamma                 87.072092
_cell_volume                      1425.11452837

loop_
_atom_site_label
_atom_site_type_symbol
_atom_type_description
_atom_site_fract_x
_atom_site_fract_y
_atom_site_fract_z
_atom_type_partial_charge
C1    C     C_R   0.496562 0.739459 0.494323 0.862593
C2    C     C_1   0.457769 0.500627 0.789293 -0.157565
C3    C     C_R   0.427160 0.881815 0.315929 0.294307
C4    C     C_R   0.449063 0.941066 0.225810 -0.267017
C5    C     C_R   0.517709 0.051611 0.218748 0.395057
C6    C     C_R   0.553012 0.111135 0.304524 0.295367
C7    C     C_R   0.515304 0.059869 0.398271 -0.075546
C8    C     C_R   0.473734 0.935656 0.401992 -0.031027
C9    C     C_R   0.484870 0.872854 0.491464 -0.009808
C10   C     C_R   0.505246 0.937534 0.578490 -0.202924
C11   C     C_R   0.513633 0.065865 0.578494 -0.186957
C12   C     C_R   0.475896 0.500250 0.685513 0.853092
C13   C     C_R   0.517675 0.126497 0.489287 -0.009594
C14   C     C_R   0.832142 0.666537 0.630837 -0.109446
C15   C     C_R   0.888802 0.748763 0.693917 -0.181737
C16   C     C_R   0.028265 0.748823 0.692662 -0.165282
C17   C     C_R   0.112020 0.666396 0.628482 -0.098021
C18   C     C_R   0.058255 0.582017 0.563616 0.094442
C19   C     C_R   0.913736 0.581937 0.564092 0.151914
C20   C     C_R   0.942059 0.422004 0.438700 -0.137924
C21   C     C_R   0.084741 0.421716 0.438432 0.442777
C22   C     C_R   0.504810 0.260084 0.495706 0.924055
C23   C     C_R   0.523910 0.501800 0.314553 0.978847
C24   C     C_1   0.541639 0.504831 0.210880 -0.043042
C25   C     C_2   0.557408 0.508743 0.019356 -0.130186
C26   C     C_2   0.441366 0.501716 0.981056 -0.114340
C27   C     C_1   0.445645 0.501056 0.877112 0.022919
C28   C     C_1   0.553418 0.507103 0.123186 0.088835
H1    H     H_    0.344855 0.495493 0.026904 0.185321
H2    H     H_    0.724325 0.672537 0.637096 0.192755
H3    H     H_    0.823804 0.812853 0.744196 0.162055
H4    H     H_    0.071949 0.812946 0.741853 0.160943
H5    H     H_    0.218293 0.671088 0.631466 0.192570
H6    H     H_    0.653978 0.514600 0.973516 0.165944
H7    H     H_    0.511802 0.888606 0.646706 0.130536
H8    H     H_    0.413281 0.900235 0.160434 0.217699
H9    H     H_    0.518538 0.117925 0.647620 0.145858
H10   H     H_    0.899246 0.358411 0.388738 0.221927
N1    N     N_R   0.857120 0.501200 0.500900 -0.144222
N2    N     N_R   0.142720 0.501280 0.500940 -0.146344
O1    O     O_R   0.385310 0.683220 0.500000 -0.594553
O2    O     O_R   0.614640 0.683250 0.500010 -0.638480
O3    O     O_R   0.368830 0.499960 0.640340 -0.637832
O4    O     O_R   0.598160 0.499980 0.640350 -0.631507
O5    O     O_R   0.385360 0.316750 0.499990 -0.573589
O6    O     O_R   0.614690 0.316780 0.500000 -0.585549
O7    O     O_R   0.401840 0.500020 0.359650 -0.526927
O8    O     O_R   0.631170 0.500040 0.359660 -0.589636
Zn1   Zn    Zn3+2 0.346870 0.499980 0.499990 1.034399
Zn2   Zn    Zn3+2 0.653130 0.500020 0.500010 0.986524
Cl1   Cl    Cl    0.185394 0.316552 0.355095 -0.535043
Cl2   Cl    Cl    0.312417 0.761477 0.318491 -0.579935
Cl3   Cl    Cl    0.555153 0.115257 0.101361 -0.528635
Cl4   Cl    Cl    0.673499 0.226767 0.289656 -0.568070

loop_
_geom_bond_atom_site_label_1
_geom_bond_atom_site_label_2
_ccdc_geom_bond_type
C8    C9    A    
C1    O1    A    
C23   C24   S    
C4    H8    S    
C15   H3    S    
C6    C7    A    
C16   H4    S    
C20   H10   S    
C9    C10   A    
O6    Zn2   S    
O5    Zn1   S    
C25   H6    S    
C3    Cl2   S    
C2    C12   S    
N1    Zn2   S    
O8    Zn2   S    
C17   C18   A    
C20   N1    A    
C7    C8    A    
C12   O4    A    
C25   C28   S    
C11   C13   A    
C26   C27   S    
C2    C27   T    
C21   N2    A    
C17   H5    S    
C14   H2    S    
C19   N1    A    
C5    Cl3   S    
C22   O6    A    
O2    Zn2   S    
C13   C22   S    
C6    Cl4   S    
C12   O3    A    
C5    C6    A    
C10   H7    S    
C21   Cl1   S    
C23   O7    A    
C10   C11   A    
O4    Zn2   S    
C15   C16   A    
C24   C28   T    
C1    O2    A    
C7    C13   A    
C22   O5    A    
C1    C9    S    
C20   C21   A    
C26   H1    S    
O7    Zn1   S    
C3    C8    A    
O1    Zn1   S    
C11   H9    S    
C18   C19   A    
C18   N2    A    
C14   C15   A    
C4    C5    A    
C23   O8    A    
C25   C26   D    
C14   C19   A    
O3    Zn1   S    
C3    C4    A    
N2    Zn1   S    
C16   C17   A    
