data_mof_unit_31010.cif
_audit_creation_date              2012-12-10T18:29:37-0500
_audit_creation_method            fapswitch 2.2
_symmetry_space_group_name_H-M    P1
_symmetry_Int_Tables_number       1
_space_group_crystal_system       triclinic
_cell_length_a                    11.558974
_cell_length_b                    15.002311
_cell_length_c                    15.347363
_cell_angle_alpha                 81.245104
_cell_angle_beta                  89.984649
_cell_angle_gamma                 104.71446
_cell_volume                      2542.01933797

loop_
_atom_site_label
_atom_site_type_symbol
_atom_type_description
_atom_site_fract_x
_atom_site_fract_y
_atom_site_fract_z
_atom_type_partial_charge
C1    C     C_R   0.482535 0.440667 0.662941 0.892833
C2    C     C_R   0.514805 0.559056 0.337047 0.886423
C3    C     C_R   0.388020 0.336303 0.937063 -0.091212
C4    C     C_R   0.436317 0.637314 0.068371 -0.091644
C5    C     C_R   0.412380 0.499357 0.958140 -0.103543
C6    C     C_R   0.423487 0.474600 0.049357 -0.104381
C7    C     C_R   0.398001 0.377592 0.085469 0.492248
C8    C     C_R   0.390917 0.587431 0.924787 0.487239
C9    C     C_R   0.363444 0.309968 0.029146 -0.129403
C10   C     C_R   0.391994 0.652195 0.982775 -0.127197
C11   C     C_R   0.694657 0.844615 0.626643 0.433475
C12   C     C_R   0.293130 0.150709 0.384910 0.435186
C13   C     C_R   0.659643 0.755036 0.605114 -0.116767
C14   C     C_R   0.338008 0.243962 0.397406 -0.110713
C15   C     C_R   0.500749 0.791334 0.521386 -0.060479
C16   C     C_R   0.492931 0.207145 0.485672 -0.059897
C17   C     C_R   0.531811 0.883561 0.539240 -0.071482
C18   C     C_R   0.455268 0.112707 0.475690 -0.073401
C19   C     C_R   0.633660 0.910616 0.590202 0.044238
C20   C     C_R   0.352220 0.084867 0.425747 0.051278
C21   C     C_R   0.468768 0.950144 0.504809 0.133437
C22   C     C_R   0.514780 0.045308 0.514898 0.129346
C23   C     C_R   0.718060 0.501174 0.500210 0.880297
C24   C     C_R   0.281957 0.498855 0.499727 0.892183
C25   C     C_R   0.618925 0.069876 0.563493 -0.272259
C26   C     C_R   0.361232 0.924403 0.460694 -0.266472
C27   C     C_R   0.674809 0.003368 0.602354 -0.158345
C28   C     C_R   0.306226 0.990569 0.420096 -0.134980
C29   C     C_1   0.839332 0.502990 0.500559 -0.184116
C30   C     C_1   0.160741 0.497145 0.499160 -0.186433
C31   C     C_1   0.941138 0.501606 0.500162 0.003129
C32   C     C_1   0.058967 0.498600 0.499428 0.002797
C33   C     C_R   0.458088 0.401343 0.757132 -0.222958
C34   C     C_R   0.505412 0.595135 0.243160 -0.215230
C35   C     C_R   0.387954 0.271639 0.877610 -0.104844
C36   C     C_R   0.461828 0.707235 0.124186 -0.112200
C37   C     C_R   0.423883 0.304514 0.788214 0.495666
C38   C     C_R   0.484830 0.683045 0.213678 0.492783
C39   C     C_R   0.461213 0.463207 0.816076 -0.233834
C40   C     C_R   0.502099 0.533961 0.183394 -0.230673
C41   C     C_R   0.418374 0.433072 0.903132 0.107818
C42   C     C_R   0.453286 0.547699 0.100820 0.092514
H1    H     H_    0.660783 0.140267 0.572852 0.132640
H2    H     H_    0.315510 0.852921 0.457661 0.133369
H3    H     H_    0.537758 0.474852 0.203095 0.209565
H4    H     H_    0.501043 0.536315 0.794089 0.195728
H5    H     H_    0.753309 0.025815 0.639975 0.194346
H6    H     H_    0.225048 0.966645 0.385752 0.199308
H7    H     H_    0.565475 0.234360 0.525854 0.142089
H8    H     H_    0.428722 0.765503 0.480291 0.147166
H9    H     H_    0.297370 0.298303 0.368609 0.172549
H10   H     H_    0.708380 0.704027 0.628880 0.161833
N1    N     N_R   0.566020 0.731700 0.552730 -0.126853
N2    N     N_R   0.433980 0.268300 0.447270 -0.125541
O1    O     O_R   0.466720 0.383110 0.605620 -0.552239
O2    O     O_R   0.533280 0.616890 0.394380 -0.551849
O3    O     O_R   0.509090 0.531900 0.639510 -0.628948
O4    O     O_R   0.490910 0.468100 0.360490 -0.611220
O5    O     O_R   0.644370 0.425610 0.483050 -0.623168
O6    O     O_R   0.355630 0.574390 0.516950 -0.618502
O7    O     O_R   0.686740 0.574390 0.516930 -0.606635
O8    O     O_R   0.313260 0.425610 0.483070 -0.608555
Zn1   Zn    Zn3+2 0.471710 0.400660 0.477370 0.963126
Zn2   Zn    Zn3+2 0.528290 0.599340 0.522630 0.958878
C43   C     C_1   0.298917 0.216415 0.068413 0.234885
N3    N     N_1   0.246839 0.142083 0.100545 -0.159668
C44   C     C_1   0.333049 0.726123 0.957083 0.222660
N4    N     N_1   0.285292 0.784765 0.936528 -0.185186
O9    O     O_3   0.494516 0.747621 0.270500 -0.581569
C45   C     C_3   0.378228 0.749850 0.296426 -0.286450
H11   H     H_    0.385800 0.811930 0.328850 0.188460
H12   H     H_    0.335528 0.686554 0.344387 0.159564
H13   H     H_    0.319348 0.757019 0.239769 0.152204
O10   O     O_3   0.421857 0.240964 0.731196 -0.576783
C46   C     C_3   0.535106 0.221690 0.729728 -0.289253
H14   H     H_    0.604799 0.283665 0.697519 0.149423
H15   H     H_    0.529837 0.164567 0.690717 0.194632
H16   H     H_    0.562173 0.197304 0.796949 0.150882
C47   C     C_1   0.357449 0.171479 0.905215 0.233620
N5    N     N_1   0.333578 0.091305 0.926284 -0.166696
C48   C     C_1   0.471759 0.804901 0.091751 0.232704
N6    N     N_1   0.480247 0.883102 0.066373 -0.180233
O11   O     O_3   0.389905 0.348673 0.176133 -0.617766
C49   C     C_3   0.475602 0.297252 0.200687 -0.347213
H17   H     H_    0.511995 0.314274 0.264640 0.198457
H18   H     H_    0.554067 0.313708 0.153175 0.141815
H19   H     H_    0.432371 0.221285 0.210536 0.207815
O12   O     O_3   0.344206 0.600243 0.841455 -0.591907
C50   C     C_3   0.415139 0.680721 0.787376 -0.316167
H20   H     H_    0.509499 0.702275 0.807689 0.114773
H21   H     H_    0.373002 0.739656 0.784804 0.196109
H22   H     H_    0.418032 0.665543 0.719020 0.211713
O13   O     O_3   0.794533 0.869867 0.675921 -0.599722
C51   C     C_3   0.763256 0.832596 0.765285 -0.326748
H23   H     H_    0.741608 0.755023 0.776178 0.152042
H24   H     H_    0.687261 0.856751 0.789331 0.155969
H25   H     H_    0.841153 0.857724 0.805396 0.215044
O14   O     O_3   0.197772 0.120786 0.331242 -0.609767
C52   C     C_3   0.118145 0.178662 0.321216 -0.270646
H26   H     H_    0.156408 0.242823 0.273087 0.193816
H27   H     H_    0.092935 0.195650 0.385580 0.151653
H28   H     H_    0.034677 0.140534 0.293669 0.200025

loop_
_geom_bond_atom_site_label_1
_geom_bond_atom_site_label_2
_ccdc_geom_bond_type
C7    O11   S    
C37   O10   S    
C4    C36   A    
O13   C51   S    
C49   H19   S    
C21   C26   A    
C25   H1    S    
C48   N6    T    
C26   H2    S    
C39   C41   A    
C10   C44   S    
C23   O5    A    
C11   C19   A    
C33   C39   A    
O11   C49   S    
C34   C40   A    
C15   N1    A    
C35   C37   A    
C49   H18   S    
C9    C43   S    
C5    C6    A    
N1    Zn2   S    
N2    Zn1   S    
C7    C9    A    
C15   H8    S    
C3    C41   A    
C14   H9    S    
C22   C25   A    
O1    Zn1   S    
O2    Zn2   S    
C45   H11   S    
C50   H21   S    
C19   C27   A    
C12   O14   S    
C11   O13   S    
C40   C42   A    
C38   O9    S    
C34   C38   A    
C21   C22   A    
C51   H23   S    
C13   N1    A    
C40   H3    S    
O10   C46   S    
C1    C33   S    
C44   N4    T    
C16   H7    S    
C20   C28   A    
C51   H25   S    
C33   C37   A    
C8    O12   S    
O7    Zn2   S    
C46   H14   S    
O8    Zn1   S    
C3    C9    A    
C1    O3    A    
C13   H10   S    
C52   H26   S    
C3    C35   A    
C36   C48   S    
C24   O6    A    
C12   C20   A    
C45   H13   S    
C49   H17   S    
C50   H22   S    
C51   H24   S    
C46   H15   S    
C39   H4    S    
C16   C18   A    
C14   N2    A    
C12   C14   A    
C43   N3    T    
C24   C30   S    
C4    C10   A    
C23   C29   S    
O3    Zn2   S    
C27   H5    S    
O4    Zn1   S    
C15   C17   A    
C5    C41   A    
C28   H6    S    
C24   O8    A    
C52   H27   S    
C18   C22   A    
C26   C28   A    
C31   C32   S    
C5    C8    A    
C2    O4    A    
C6    C7    A    
C25   C27   A    
O5    Zn1   S    
O6    Zn2   S    
C36   C38   A    
C1    O1    A    
C29   C31   T    
C2    O2    A    
C30   C32   T    
C11   C13   A    
C2    C34   S    
C4    C42   A    
C35   C47   S    
C17   C19   A    
C18   C20   A    
O9    C45   S    
C46   H16   S    
C16   N2    A    
C47   N5    T    
C23   O7    A    
C52   H28   S    
O12   C50   S    
C8    C10   A    
O14   C52   S    
C6    C42   A    
C45   H12   S    
C50   H20   S    
C17   C21   A    
