data_mof_unit_36818.cif
_audit_creation_date              2012-12-11T15:54:09-0500
_audit_creation_method            fapswitch 2.2
_symmetry_space_group_name_H-M    P1
_symmetry_Int_Tables_number       1
_space_group_crystal_system       triclinic
_cell_length_a                    10.681004
_cell_length_b                    10.719996
_cell_length_c                    17.042359
_cell_angle_alpha                 80.550866
_cell_angle_beta                  99.421484
_cell_angle_gamma                 118.995429
_cell_volume                      1675.59139684

loop_
_atom_site_label
_atom_site_type_symbol
_atom_type_description
_atom_site_fract_x
_atom_site_fract_y
_atom_site_fract_z
_atom_type_partial_charge
C1    C     C_R   0.384596 0.284301 0.631925 0.538684
C2    C     C_1   0.333655 0.187191 0.781582 -0.034391
C3    C     C_1   0.368960 0.637900 0.274872 -0.054900
C4    C     C_R   0.413413 0.620506 0.601839 0.551725
C5    C     C_1   0.342158 0.656039 0.204413 -0.037789
C6    C     C_R   0.846478 0.675102 0.162586 -0.010654
C7    C     C_R   0.852082 0.562356 0.213942 0.072930
C8    C     C_R   0.850697 0.556690 0.294548 0.024288
C9    C     C_R   0.847980 0.784304 0.276803 -0.161243
C10   C     C_R   0.853446 0.791290 0.194908 -0.160566
C11   C     C_3   0.754750 0.404737 0.210251 -0.061697
C12   C     C_R   0.513574 0.711867 0.735005 -0.157663
C13   C     C_3   0.756754 0.396188 0.300185 -0.045445
C14   C     C_R   0.836921 0.661606 0.326282 0.005313
C15   C     C_R   0.332505 0.165142 0.160497 -0.004316
C16   C     C_R   0.777107 0.619131 0.626820 0.537961
C17   C     C_R   0.279147 0.248193 0.181971 -0.029375
C18   C     C_R   0.281651 0.259541 0.260864 -0.031123
C19   C     C_R   0.405293 0.116890 0.300770 0.050615
C20   C     C_R   0.405451 0.108325 0.219726 -0.145148
C21   C     C_3   0.136422 0.245753 0.161417 -0.229360
C22   C     C_3   0.138590 0.256689 0.249048 -0.225322
C23   C     C_R   0.491384 0.727588 0.810720 -0.144011
C24   C     C_R   0.335251 0.187585 0.321147 0.054712
C25   C     C_R   0.891152 0.701623 0.856000 0.544191
C26   C     C_R   0.315913 0.706058 0.898359 0.540569
C27   C     C_R   0.286592 0.118565 0.858403 0.551265
C28   C     C_R   0.350700 0.225534 0.400174 0.575273
C29   C     C_R   0.887607 0.691547 0.083965 0.544091
C30   C     C_R   0.315965 0.697790 0.122888 0.549573
C31   C     C_R   0.286963 0.108465 0.084523 0.552216
C32   C     C_R   0.402784 0.625725 0.358711 0.567454
C33   C     C_R   0.773702 0.622907 0.400580 0.543867
C34   C     C_3   0.092178 0.500027 0.768661 -0.248467
C35   C     C_R   0.352374 0.652034 0.836904 0.014349
C36   C     C_R   0.246735 0.540445 0.793742 0.011536
C37   C     C_R   0.269362 0.523809 0.719394 0.011341
C38   C     C_2   0.817376 0.321686 0.182898 0.260743
C39   C     C_3   0.116739 0.481093 0.687170 -0.244448
C40   C     C_R   0.397624 0.619312 0.685476 0.000292
C41   C     C_1   0.822653 0.656704 0.706064 -0.055376
C42   C     C_1   0.850077 0.684328 0.773867 -0.053078
C43   C     C_1   0.364863 0.234057 0.714369 -0.037394
Cr1   Cr    Cr6+3 0.608440 0.389080 0.519680 1.007526
Cr2   Cr    Cr6+3 0.288640 0.400090 0.490760 1.012817
Cr3   Cr    Cr6+3 0.602940 0.710800 0.489510 1.017351
Cr4   Cr    Cr6+3 0.052530 0.947560 0.964210 1.017738
Cr5   Cr    Cr6+3 0.059970 0.626800 0.992920 1.058694
Cr6   Cr    Cr6+3 0.373320 0.938440 0.995370 1.018621
H1    H     H_    0.617802 0.780106 0.712946 0.140415
H2    H     H_    0.068367 0.590424 0.767435 0.156724
H3    H     H_    0.018489 0.397822 0.801246 0.150272
H4    H     H_    0.057733 0.367801 0.672911 0.151506
H5    H     H_    0.106161 0.560046 0.638988 0.163535
H6    H     H_    0.841029 0.868753 0.299995 0.136590
H7    H     H_    0.860781 0.885706 0.157052 0.135532
H8    H     H_    0.825889 0.319179 0.407268 0.249903
H9    H     H_    0.939879 0.371916 0.337223 0.262718
H10   H     H_    0.557079 0.122015 0.390570 0.252438
H11   H     H_    0.499672 0.987446 0.334955 0.254715
H12   H     H_    0.648176 0.382881 0.177647 0.064172
H13   H     H_    0.753577 0.206352 0.182618 0.098348
H14   H     H_    0.648883 0.360439 0.318722 0.162227
H15   H     H_    0.450099 0.045173 0.203871 0.143069
H16   H     H_    0.047893 0.142571 0.141880 0.159422
H17   H     H_    0.145475 0.342761 0.122151 0.182881
H18   H     H_    0.146219 0.358856 0.261038 0.185514
H19   H     H_    0.054426 0.158768 0.279473 0.145187
H20   H     H_    0.579040 0.809588 0.844540 0.144384
N1    N     N_3   0.830729 0.318531 0.346620 -0.644096
N2    N     N_3   0.464712 0.044788 0.361458 -0.580561
O1    O     O_R   0.754020 0.497590 0.609930 -0.511579
O2    O     O_R   0.406180 0.826930 0.920660 -0.519519
O3    O     O_R   0.358620 0.062870 0.901950 -0.492874
O4    O     O_R   0.481420 0.271390 0.600630 -0.475049
O5    O     O_R   0.163910 0.085460 0.050210 -0.521453
O6    O     O_R   0.935200 0.815170 0.045770 -0.511645
O7    O     O_R   0.916120 0.596690 0.069430 -0.461311
O8    O     O_R   0.192310 0.631200 0.086170 -0.463173
O9    O     O_R   0.406770 0.819480 0.096420 -0.527831
O10   O     O_R   0.359170 0.055960 0.064880 -0.514361
O11   O     O_3   0.161940 0.837600 0.984160 -0.252413
O12   O     O_R   0.295080 0.533620 0.397890 -0.489365
O13   O     O_R   0.263810 0.254550 0.589590 -0.505445
O14   O     O_R   0.300820 0.531200 0.560890 -0.501653
O15   O     O_R   0.491480 0.744020 0.564270 -0.486324
O16   O     O_R   0.726290 0.693800 0.583010 -0.516228
O17   O     O_R   0.747830 0.500190 0.434090 -0.529491
O18   O     O_R   0.475680 0.273800 0.437630 -0.504651
O19   O     O_R   0.257620 0.257160 0.413750 -0.526306
O20   O     O_2   0.938435 0.381180 0.161825 -0.511426
O21   O     O_R   0.485280 0.746620 0.388440 -0.499763
O22   O     O_R   0.720550 0.696220 0.420010 -0.516321
O23   O     O_3   0.500010 0.499990 0.499980 -0.314372
O24   O     O_R   0.163320 0.092900 0.874450 -0.506625
O25   O     O_R   0.934650 0.822080 0.882840 -0.496770
O26   O     O_R   0.915520 0.604140 0.893670 -0.517910
O27   O     O_R   0.191760 0.638110 0.923230 -0.505005

loop_
_geom_bond_atom_site_label_1
_geom_bond_atom_site_label_2
_ccdc_geom_bond_type
C12   C40   A    
C8    C13   S    
C21   H17   S    
Cr1   O4    S    
C41   C42   T    
C23   H20   S    
C27   O24   A    
C19   C20   A    
C16   O1    A    
C14   C33   S    
C7    C8    A    
C32   O21   A    
C1    O13   A    
C7    C11   S    
Cr5   O26   S    
C12   C23   A    
C34   H2    S    
C18   C24   A    
Cr5   O8    S    
C36   C37   A    
C33   O17   A    
Cr4   O5    S    
C5    C30   S    
C37   C40   A    
C39   H5    S    
Cr3   O21   S    
C13   N1    S    
Cr6   O10   S    
C26   O2    A    
Cr4   O11   S    
Cr5   O7    S    
C19   N2    S    
C1    C43   S    
C29   O7    A    
C4    C40   S    
Cr3   O23   S    
C16   O16   A    
Cr4   O25   S    
C2    C27   S    
C9    H6    S    
H8    N1    S    
C27   O3    A    
C10   H7    S    
C9    C10   A    
C30   O9    A    
C21   C22   S    
Cr2   O12   S    
Cr2   O23   S    
C15   C20   A    
C34   C39   S    
C1    O4    A    
H9    N1    S    
C4    O14   A    
H11   N2    S    
C11   H12   S    
C38   O20   D    
C17   C21   S    
C35   C36   A    
Cr6   O11   S    
C20   H15   S    
C11   C38   S    
Cr2   O14   S    
C9    C14   A    
C13   H14   S    
C2    C43   T    
C17   C18   A    
Cr2   O19   S    
C22   H19   S    
C28   O18   A    
C26   O27   A    
C30   O8    A    
C25   O26   A    
C23   C35   A    
Cr6   O2    S    
Cr2   O13   S    
Cr4   O6    S    
C4    O15   A    
Cr3   O16   S    
C15   C17   A    
C32   O12   A    
C8    C14   A    
C21   H16   S    
C18   C22   S    
C24   C28   S    
C3    C5    T    
C33   O22   A    
C25   C42   S    
C6    C10   A    
C12   H1    S    
C15   C31   S    
C6    C7    A    
Cr5   O27   S    
C34   H3    S    
C31   O10   A    
Cr6   O9    S    
C19   C24   A    
C37   C39   S    
C11   C13   S    
C31   O5    A    
C39   H4    S    
Cr3   O22   S    
Cr5   O11   S    
Cr1   O1    S    
C34   C36   S    
C3    C32   S    
C22   H18   S    
Cr1   O23   S    
C26   C35   S    
C6    C29   S    
C29   O6    A    
C25   O25   A    
Cr4   O24   S    
Cr6   O3    S    
C28   O19   A    
C38   H13   S    
Cr1   O17   S    
C16   C41   S    
Cr1   O18   S    
H10   N2    S    
Cr3   O15   S    
