data_mof_unit_16725.cif
_audit_creation_date              2012-12-10T18:35:03-0500
_audit_creation_method            fapswitch 2.2
_symmetry_space_group_name_H-M    P1
_symmetry_Int_Tables_number       1
_space_group_crystal_system       triclinic
_cell_length_a                    15.162519
_cell_length_b                    13.916953
_cell_length_c                    10.780596
_cell_angle_alpha                 90.0792
_cell_angle_beta                  91.013522
_cell_angle_gamma                 89.776317
_cell_volume                      2274.50373507

loop_
_atom_site_label
_atom_site_type_symbol
_atom_type_description
_atom_site_fract_x
_atom_site_fract_y
_atom_site_fract_z
_atom_type_partial_charge
C1    C     C_R   0.330123 0.499972 0.503958 0.760987
C2    C     C_R   0.670221 0.499518 0.497955 0.789156
C3    C     C_R   0.233736 0.499774 0.512187 -0.075113
C4    C     C_R   0.767335 0.498242 0.497182 -0.085080
C5    C     C_R   0.187656 0.421381 0.564046 -0.003629
C6    C     C_R   0.816188 0.414506 0.466089 -0.006403
C7    C     C_R   0.095665 0.423182 0.563754 -0.212111
C8    C     C_R   0.908089 0.416770 0.473129 -0.210555
C9    C     C_R   0.049073 0.501636 0.513816 0.098291
C10   C     C_R   0.952353 0.500566 0.509267 0.096781
C11   C     C_R   0.541071 0.108712 0.596973 -0.298131
C12   C     C_R   0.458138 0.108564 0.404633 -0.298433
C13   C     C_R   0.540978 0.209742 0.594283 0.111330
C14   C     C_R   0.458620 0.209600 0.406360 0.100112
C15   C     C_R   0.499620 0.055768 0.500960 0.166013
C16   C     C_R   0.430127 0.894471 0.448040 -0.265879
C17   C     C_R   0.569296 0.893880 0.554236 -0.268205
C18   C     C_R   0.432145 0.793371 0.444171 0.532371
C19   C     C_R   0.567418 0.792683 0.557420 0.534999
C20   C     C_R   0.499720 0.946998 0.501099 -0.039098
C21   C     C_R   0.497202 0.499741 0.262450 0.783575
C22   C     C_R   0.497513 0.500147 0.737323 0.778682
C23   C     C_R   0.345151 0.577766 0.125347 -0.184353
C24   C     C_R   0.350750 0.590302 0.867274 -0.200653
C25   C     C_R   0.276092 0.621470 0.059279 -0.115238
C26   C     C_R   0.279270 0.628504 0.930667 -0.139689
C27   C     C_R   0.421341 0.545375 0.932478 0.092081
C28   C     C_R   0.419639 0.541753 0.063483 0.093451
C29   C     C_R   0.491058 0.498460 0.128483 -0.089551
C30   C     C_R   0.492038 0.500394 0.870782 -0.092322
C31   C     C_R   0.558133 0.451735 0.065009 -0.207397
C32   C     C_R   0.558267 0.451956 0.937040 -0.215863
C33   C     C_R   0.094994 0.579701 0.465345 -0.175234
C34   C     C_R   0.904191 0.583216 0.538496 -0.175935
C35   C     C_R   0.186499 0.578816 0.464784 -0.209378
C36   C     C_R   0.812662 0.582063 0.532355 -0.194713
Cu1   Cu    Cu3+1 0.500000 0.596430 0.500000 0.947462
Cu2   Cu    Cu3+1 0.500000 0.403570 0.500000 0.949177
H1    H     H_    0.611343 0.416136 0.114818 0.136418
H2    H     H_    0.611524 0.416150 0.889344 0.140637
H3    H     H_    0.373851 0.931393 0.406997 0.162226
H4    H     H_    0.625352 0.930397 0.595907 0.160671
H5    H     H_    0.338421 0.569635 0.224352 0.121176
H6    H     H_    0.348803 0.594287 0.767153 0.151940
H7    H     H_    0.219460 0.648962 0.107956 0.139421
H8    H     H_    0.225273 0.661902 0.879543 0.140885
H9    H     H_    0.060060 0.640360 0.424860 0.135602
H10   H     H_    0.937354 0.648431 0.567748 0.136087
H11   H     H_    0.220254 0.639141 0.424089 0.194191
H12   H     H_    0.777412 0.646820 0.557176 0.203407
H13   H     H_    0.060309 0.363613 0.604028 0.131260
H14   H     H_    0.945327 0.353432 0.446979 0.131837
H15   H     H_    0.572786 0.072749 0.674748 0.126571
H16   H     H_    0.426365 0.072456 0.327098 0.129686
H17   H     H_    0.573808 0.248948 0.668296 0.114372
H18   H     H_    0.425876 0.248705 0.332076 0.118692
N1    N     N_R   0.500000 0.258690 0.500000 -0.161993
N2    N     N_R   0.500000 0.741330 0.500000 -0.262902
O1    O     O_R   0.371460 0.581430 0.500010 -0.578577
O2    O     O_R   0.628540 0.581430 0.499990 -0.565858
O3    O     O_R   0.371470 0.418560 0.500010 -0.569659
O4    O     O_R   0.628530 0.418560 0.499990 -0.572694
O5    O     O_R   0.500000 0.581450 0.319650 -0.599032
O6    O     O_R   0.500000 0.581450 0.680350 -0.607155
O7    O     O_R   0.500010 0.418580 0.319650 -0.588183
O8    O     O_R   0.499990 0.418580 0.680350 -0.586547
O9    O     O_3   0.363563 0.750016 0.381937 -0.754703
H19   H     H_    0.388651 0.695024 0.337658 0.354310
O10   O     O_3   0.635729 0.748716 0.620579 -0.754411
H20   H     H_    0.611352 0.693186 0.664364 0.359594
C37   C     C_R   0.233220 0.337586 0.620796 0.123210
C38   C     C_R   0.228650 0.247143 0.563197 -0.147922
C39   C     C_R   0.275182 0.169053 0.613652 -0.125982
C40   C     C_R   0.326026 0.180686 0.722031 -0.106798
C41   C     C_R   0.330068 0.270297 0.780548 -0.117578
C42   C     C_R   0.283531 0.348449 0.730480 -0.108267
H21   H     H_    0.190386 0.237648 0.478310 0.120438
H22   H     H_    0.272414 0.099698 0.568210 0.131099
H23   H     H_    0.362455 0.120331 0.760445 0.127289
H24   H     H_    0.369548 0.279357 0.864359 0.128013
H25   H     H_    0.287216 0.417480 0.776243 0.111707
C43   C     C_R   0.774573 0.324668 0.421340 0.135094
C44   C     C_R   0.778278 0.241225 0.494329 -0.160239
C45   C     C_R   0.738252 0.156652 0.451981 -0.135032
C46   C     C_R   0.694451 0.154954 0.336797 -0.091964
C47   C     C_R   0.691384 0.237556 0.263189 -0.132881
C48   C     C_R   0.731914 0.322021 0.304875 -0.104997
H26   H     H_    0.811393 0.242025 0.584163 0.120296
H27   H     H_    0.740579 0.092623 0.508843 0.128381
H28   H     H_    0.662907 0.089649 0.304648 0.130798
H29   H     H_    0.657754 0.236071 0.173823 0.117993
H30   H     H_    0.730195 0.385543 0.247173 0.098567

loop_
_geom_bond_atom_site_label_1
_geom_bond_atom_site_label_2
_ccdc_geom_bond_type
C14   H18   S    
C4    C36   A    
C6    C43   S    
C39   C40   A    
C24   C27   A    
C46   C47   A    
Cu1   Cu2   S    
C28   C29   A    
C24   C26   A    
C47   H29   S    
C1    O1    A    
C37   C42   A    
C2    O2    A    
C13   N1    A    
C43   C48   A    
C17   C20   A    
C23   H5    S    
C17   H4    S    
C22   O8    A    
C33   C35   A    
C11   C15   A    
C18   N2    A    
C31   C32   A    
C35   H11   S    
C39   H22   S    
Cu2   O7    S    
C9    C10   S    
C8    H14   S    
Cu1   N2    S    
C11   H15   S    
Cu2   O3    S    
C32   H2    S    
C44   H26   S    
C48   H30   S    
C27   C30   A    
C9    C33   A    
Cu1   O5    S    
C19   N2    A    
C15   C20   S    
C40   C41   A    
O9    H19   S    
Cu2   O8    S    
C45   C46   A    
C4    C6    A    
C5    C7    A    
C47   C48   A    
C6    C8    A    
C25   C26   A    
C21   C29   S    
C1    C3    S    
C2    C4    S    
C41   C42   A    
C38   H21   S    
Cu2   N1    S    
C44   C45   A    
C12   C15   A    
C3    C35   A    
C16   C20   A    
C5    C37   S    
C10   C34   A    
C23   C28   A    
Cu1   O1    S    
C8    C10   A    
C12   C14   A    
C40   H23   S    
C33   H9    S    
C19   O10   S    
C34   H10   S    
C45   H27   S    
C25   H7    S    
Cu1   O6    S    
C36   H12   S    
C41   H24   S    
C7    C9    A    
C14   N1    A    
C22   C30   S    
C21   O7    A    
C38   C39   A    
C3    C5    A    
C1    O3    A    
C42   H25   S    
C46   H28   S    
C18   O9    S    
C7    H13   S    
C37   C38   A    
C29   C31   A    
C30   C32   A    
C11   C13   A    
C24   H6    S    
C17   C19   A    
C31   H1    S    
C34   C36   A    
C23   C25   A    
O10   H20   S    
C21   O5    A    
Cu1   O2    S    
C26   H8    S    
C22   O6    A    
C16   C18   A    
C43   C44   A    
C27   C28   A    
C13   H17   S    
C16   H3    S    
C12   H16   S    
C2    O4    A    
Cu2   O4    S    
