data_mof_unit_67157.cif
_audit_creation_date              2013-03-05T15:58:58-0500
_audit_creation_method            fapswitch 2.2
_symmetry_space_group_name_H-M    P1
_symmetry_Int_Tables_number       1
_space_group_crystal_system       triclinic
_cell_length_a                    8.487774
_cell_length_b                    13.156026
_cell_length_c                    15.070328
_cell_angle_alpha                 98.728349
_cell_angle_beta                  96.592646
_cell_angle_gamma                 99.310834
_cell_volume                      1624.59024273

loop_
_atom_site_label
_atom_site_type_symbol
_atom_site_description
_atom_site_fract_x
_atom_site_fract_y
_atom_site_fract_z
_atom_type_partial_charge
P1    P     P_3+3 0.998730 0.403530 0.291970 0.510166
O1    O     O_2   0.827880 0.435260 0.277750 -0.349976
O2    O     O_3   0.100280 0.438960 0.391170 -0.387979
O3    O     O_3   0.625580 0.634130 0.333250 -0.375289
O4    O     O_2   0.678285 0.532562 0.177457 -0.341403
O5    O     O_3   0.964170 0.270438 0.245738 -0.652476
O6    O     O_3   0.667720 0.727399 0.179237 -0.434738
H1    H     H_    0.574959 0.836268 0.261721 0.109423
C1    C     C_3   0.617527 0.886585 0.134445 -0.721985
H2    H     H_    0.750141 0.912925 0.147222 0.279888
H3    H     H_    0.581659 0.855833 0.060811 0.227964
P2    P     P_3+3 0.687380 0.751030 0.571310 0.579148
P3    P     P_3+3 0.121432 0.823136 0.382692 0.603423
O7    O     O_2   0.857130 0.766340 0.543890 -0.259994
O8    O     O_3   0.056550 0.691050 0.379010 -0.304654
O9    O     O_2   0.011675 0.873920 0.443945 -0.279976
O10   O     O_3   0.752807 0.806159 0.688487 -0.567345
O11   O     O_3   0.056655 0.844784 0.274010 -0.435116
C2    C     C_3   0.176010 0.826740 0.219721 0.183597
H4    H     H_    0.204071 0.747129 0.220762 0.063934
H5    H     H_    0.286569 0.887074 0.243902 0.015520
C3    C     C_3   0.117101 0.835524 0.122315 0.012027
H6    H     H_    0.071821 0.909906 0.120498 0.183646
C4    C     C_3   0.268297 0.802301 0.696558 0.778610
H7    H     H_    0.378228 0.805602 0.662786 -0.081737
C5    C     C_3   0.256772 0.909200 0.749205 -0.867132
H8    H     H_    0.339996 0.927590 0.813892 0.265524
H9    H     H_    0.275653 0.969959 0.706243 0.215835
H10   H     H_    0.134831 0.911321 0.767357 0.321779
Ba1   Ba    Ba6+2 0.843750 0.550210 0.455600 1.703647
C6    C     C_3   0.999947 0.213781 0.312797 0.673571
H11   H     H_    0.112614 0.250781 0.357817 0.044935
C7    C     C_3   0.018566 0.104066 0.269801 -0.234421
H12   H     H_    0.934916 0.076732 0.205077 0.169437
H13   H     H_    0.143489 0.104551 0.255313 0.132803
C8    C     C_3   0.734136 0.756254 0.765429 1.078989
C9    C     C_3   0.622781 0.810293 0.823095 -0.932673
H14   H     H_    0.690652 0.870313 0.880577 0.293283
H15   H     H_    0.541145 0.756483 0.853312 0.242363
H16   H     H_    0.553311 0.853844 0.782301 0.233588
P4    P     P_3+3 0.190990 0.596560 0.708040 0.602312
O12   O     O_2   0.361830 0.564780 0.722310 -0.335356
O13   O     O_3   0.089430 0.561130 0.608830 -0.313064
O14   O     O_3   0.564130 0.365960 0.666760 -0.357207
O15   O     O_3   0.265115 0.730617 0.756513 -0.595145
P5    P     P_3+3 0.077832 0.175858 0.630805 0.549226
O16   O     O_3   0.601940 0.368240 0.453770 -0.340669
O17   O     O_3   0.133170 0.309040 0.621000 -0.328658
O18   O     O_2   0.200879 0.122435 0.581323 -0.352111
O19   O     O_3   0.126049 0.152981 0.743614 -0.521135
Ba2   Ba    Ba6+2 0.346090 0.449880 0.544410 1.728391
P6    P     P_3+3 0.579331 0.613813 0.214829 0.501980
C10   C     C_3   0.566658 0.801556 0.188965 0.416697
H17   H     H_    0.440068 0.766631 0.161277 -0.053838
H18   H     H_    0.558135 0.954236 0.153534 0.243637
O20   O     O_3   0.587780 0.631850 0.546230 -0.357152
C11   C     C_3   0.439727 0.277466 0.270165 0.296818
H19   H     H_    0.316244 0.292929 0.274532 -0.010849
H20   H     H_    0.527746 0.350208 0.298312 0.098343
C12   C     C_3   0.460765 0.250784 0.171047 -0.039613
H21   H     H_    0.419217 0.309916 0.133073 0.126965
H22   H     H_    0.590376 0.251100 0.166369 0.179603
P7    P     P_3+3 0.507372 0.232218 0.431352 0.548660
O21   O     O_2   0.332590 0.233690 0.456160 -0.392768
O22   O     O_3   0.465182 0.192602 0.313414 -0.498428
H23   H     H_    0.217902 0.834500 0.081484 0.122803
C13   C     C_3   0.089529 0.230099 0.811284 0.788314
H24   H     H_    0.980652 0.258723 0.785811 -0.267124
C14   C     C_3   0.056027 0.186624 0.899478 -0.085039
H25   H     H_    0.091865 0.247082 0.961526 0.098880
H26   H     H_    0.925509 0.165296 0.901858 0.145781
P8    P     P_3+3 0.630588 0.363372 0.780378 0.626389
C15   C     C_3   0.601868 0.169698 0.719808 0.343409
H27   H     H_    0.727792 0.197279 0.710160 0.026385
O23   O     O_2   0.531830 0.428352 0.837916 -0.201732
O24   O     O_3   0.557546 0.235069 0.790923 -0.447327
H28   H     H_    0.518045 0.167745 0.657133 0.086813
C16   C     C_3   0.587761 0.059913 0.740455 -0.240213
H29   H     H_    0.523817 0.002893 0.680397 0.112712
H30   H     H_    0.527705 0.054174 0.801187 0.251617
C17   C     C_R   0.844038 0.418411 0.828906 0.190439
C18   C     C_R   0.906354 0.430149 0.923542 -0.140143
C19   C     C_R   0.043187 0.458719 0.112610 -0.056958
C20   C     C_R   0.893134 0.398173 0.079872 -0.148326
C21   C     C_R   0.825559 0.381719 0.989397 0.311989
C22   C     C_R   0.107796 0.471273 0.206646 0.274699
H31   H     H_    0.826836 0.357893 0.124709 0.195035
C23   C     C_R   0.266921 0.523757 0.233461 -0.506148
C24   C     C_R   0.087001 0.530457 0.797995 0.288919
C25   C     C_R   0.151872 0.542312 0.892750 0.021340
C26   C     C_R   0.062586 0.492542 0.954955 0.043603
C27   C     C_R   0.309174 0.595287 0.926127 -0.019338
C28   C     C_R   0.380186 0.598960 0.015303 -0.141770
C29   C     C_R   0.293235 0.555868 0.078905 0.015109
C30   C     C_R   0.132332 0.503555 0.049095 0.089380
C31   C     C_R   0.362024 0.562565 0.171175 0.102385
C32   C     C_R   0.938120 0.463743 0.768966 -0.340631
H32   H     H_    0.504824 0.636625 0.033275 0.191687
H33   H     H_    0.382685 0.629813 0.882083 0.171928
H34   H     H_    0.320836 0.529393 0.303090 0.161859
H35   H     H_    0.891551 0.448583 0.697473 0.166637
C33   C     C_R   0.762560 0.176860 0.544673 -0.430322
C34   C     C_R   0.433682 0.808449 0.463452 -0.423220
C35   C     C_R   0.400946 0.980266 0.433393 -0.206853
C36   C     C_R   0.337464 0.874259 0.428665 0.161182
C37   C     C_R   0.590309 0.846974 0.509573 0.205756
C38   C     C_R   0.655002 0.957620 0.516286 -0.042473
C39   C     C_R   0.556149 0.025001 0.478680 -0.046192
C40   C     C_R   0.612194 0.136236 0.491087 0.293634
C41   C     C_R   0.868445 0.112861 0.572946 0.251633
C42   C     C_R   0.813917 0.003718 0.558809 -0.048602
H36   H     H_    0.326566 0.028238 0.403093 0.197795
H37   H     H_    0.894873 0.956664 0.585147 0.193184
H38   H     H_    0.799851 0.260687 0.563947 0.166139
H39   H     H_    0.382758 0.726538 0.458283 0.168150
N1    N     N_R   0.867633 0.207697 0.364037 0.218574
O25   O     O_R   0.735848 0.143574 0.326990 -0.393338
O26   O     O_R   0.861303 0.289889 0.422071 -0.410209
N2    N     N_R   0.983847 0.033626 0.333189 0.268354
O27   O     O_R   0.058477 0.060524 0.415484 -0.397734
O28   O     O_R   0.849736 0.965889 0.317485 -0.334043
Br1   Br    Br    0.938511 0.781775 0.847034 -0.398180
N3    N     N_R   0.683995 0.643762 0.745757 0.201970
O29   O     O_R   0.742842 0.589255 0.682828 -0.369015
O30   O     O_R   0.654947 0.601476 0.815726 -0.414072
Br2   Br    Br    0.341914 0.113013 0.116425 -0.460265
N4    N     N_R   0.224109 0.317360 0.834260 0.220346
O31   O     O_R   0.254707 0.374988 0.774192 -0.347847
O32   O     O_R   0.305158 0.344696 0.915565 -0.379725
N5    N     N_R   0.137630 0.099123 0.910857 0.312495
O33   O     O_R   0.291076 0.107951 0.905920 -0.280230
O34   O     O_R   0.063245 0.018371 0.939070 -0.301892
Br3   Br    Br    0.793444 0.022156 0.766144 -0.582182
Br4   Br    Br    0.631798 0.280382 0.974540 -0.390035
Br5   Br    Br    0.946521 0.719159 0.068093 -0.417770
N6    N     N_R   0.129503 0.771984 0.631970 0.227308
O35   O     O_R   0.146381 0.734107 0.549974 -0.398846
O36   O     O_R   0.004145 0.735484 0.666595 -0.339680

loop_
_geom_bond_atom_site_label_1
_geom_bond_atom_site_label_2
_geom_bond_distance
_ccdc_geom_bond_type
P4    C24   1.938380 S    
Ba1   Ba2   4.626677 S    
C23   C31   1.406929 A    
C28   C29   1.405976 A    
P4    O12   1.573393 D    
N5    O34   1.299897 A    
C2    H4    1.113016 S    
C20   H31   1.074030 S    
P8    O24   1.739019 S    
P7    O22   1.752485 S    
C17   C18   1.439140 A    
C11   H19   1.106794 S    
N3    O29   1.296668 A    
C42   H37   1.078195 S    
C10   H17   1.103995 S    
C39   C40   1.440168 A    
P5    O18   1.548585 D    
C5    H8    1.105824 S    
P3    O11   1.746859 S    
O3    P6    1.752395 S    
C4    O15   1.400886 S    
P1    Ba1   3.414255 S    
C8    C9    1.540300 S    
C2    H5    1.111803 S    
C4    C5    1.529908 S    
O6    P6    1.748289 S    
O11   C2    1.400419 S    
C9    H16   1.089457 S    
O16   P7    1.802834 S    
C16   H30   1.104031 S    
N3    O30   1.294419 A    
C37   C38   1.454165 A    
N1    O25   1.297254 A    
C12   H22   1.109787 S    
P1    O1    1.573133 D    
C15   H27   1.105150 S    
C14   H26   1.104015 S    
C41   C42   1.410980 A    
C3    H23   1.110382 S    
O17   Ba2   2.841837 S    
C19   C20   1.381366 A    
C14   N5    1.457721 S    
P2    O10   1.791251 S    
C38   C39   1.447403 A    
C6    C7    1.530273 S    
O4    P6    1.543274 D    
P6    C31   1.863796 S    
C1    H18   1.108958 S    
O10   C8    1.428378 S    
O19   C13   1.423287 S    
P8    C17   1.857965 S    
O12   Ba2   2.848351 S    
C4    N6    1.400418 S    
O5    C6    1.378593 S    
P4    O13   1.599463 S    
C14   H25   1.109152 S    
O7    Ba1   2.929309 S    
P8    O23   1.535950 D    
C35   C36   1.399390 A    
N2    O28   1.300693 A    
P5    O17   1.772197 S    
C13   H24   1.103727 S    
Ba1   O16   2.884703 S    
C2    C3    1.523108 S    
C20   C21   1.387663 A    
C34   H39   1.081765 S    
P3    C36   1.860743 S    
C35   H36   1.074994 S    
O2    Ba2   2.898758 S    
C16   H29   1.107207 S    
C11   C12   1.519459 S    
O16   Ba2   2.953966 S    
Ba1   O20   2.954754 S    
C18   C26   1.428996 A    
P1    O5    1.747560 S    
C24   C32   1.398658 A    
C12   H21   1.111133 S    
P1    O2    1.599305 S    
P7    C40   1.929019 S    
O2    Ba1   2.985166 S    
C8    Br1   1.957211 S    
N4    O32   1.302531 A    
C9    H14   1.111940 S    
C33   H38   1.081442 S    
C13   N4    1.451501 S    
C25   C27   1.399878 A    
C6    H11   1.100870 S    
C15   C16   1.512037 S    
C19   C30   1.424750 A    
C8    N3    1.446832 S    
C7    H12   1.112098 S    
C34   C36   1.399877 A    
C23   H34   1.082205 S    
C4    H7    1.110933 S    
C29   C31   1.428982 A    
C1    H3    1.110887 S    
P2    O20   1.622902 S    
O14   Ba2   2.922188 S    
N6    O36   1.293524 A    
P2    O7    1.534698 D    
C7    N2    1.450222 S    
P3    O8    1.726294 S    
C15   O24   1.395452 S    
Ba1   O13   2.897967 S    
C33   C41   1.401414 A    
C1    C10   1.522172 S    
O6    C10   1.401919 S    
N4    O31   1.288529 A    
C6    N1    1.432742 S    
C35   C39   1.402959 A    
O8    Ba1   2.841251 S    
C1    H2    1.108108 S    
P1    C22   1.912819 S    
P5    O19   1.784289 S    
P4    O15   1.784472 S    
P2    Ba1   3.471356 S    
C38   C42   1.420104 A    
Ba2   O21   2.929660 S    
Ba2   O20   2.884147 S    
C11   O22   1.408754 S    
N6    O35   1.293311 A    
H1    C10   1.111580 S    
N2    O27   1.295561 A    
C18   C21   1.438065 A    
C21   Br4   1.909878 S    
C5    H9    1.106018 S    
C3    Br5   1.933672 S    
O1    Ba1   2.847793 S    
C12   Br2   1.935288 S    
N5    O33   1.300473 A    
C9    H15   1.095543 S    
P5    C41   1.885194 S    
P2    C37   1.911715 S    
O13   Ba2   2.986049 S    
C25   C26   1.438994 A    
C17   C32   1.408674 A    
C27   C28   1.398783 A    
C7    H13   1.106061 S    
N1    O26   1.296001 A    
O14   P8    1.747380 S    
C34   C37   1.403644 A    
C22   C23   1.397306 A    
C29   C30   1.414846 A    
C16   Br3   1.904786 S    
C32   H35   1.080907 S    
C11   H20   1.107516 S    
C26   C30   1.449557 A    
P7    O21   1.573345 D    
C19   C22   1.434408 A    
C5    H10   1.104027 S    
P3    O9    1.542093 D    
C15   H28   1.109685 S    
C3    H6    1.110621 S    
C33   C40   1.406523 A    
C13   C14   1.561873 S    
C24   C25   1.445933 A    
C28   H32   1.077912 S    
P4    Ba2   3.414825 S    
O3    Ba1   2.922873 S    
C27   H33   1.063532 S    
