data_mof_unit_10594.cif
_audit_creation_date              2012-12-10T20:31:50-0500
_audit_creation_method            fapswitch 2.2
_symmetry_space_group_name_H-M    P1
_symmetry_Int_Tables_number       1
_space_group_crystal_system       triclinic
_cell_length_a                    9.860019
_cell_length_b                    10.649275
_cell_length_c                    15.468135
_cell_angle_alpha                 90.111759
_cell_angle_beta                  67.459793
_cell_angle_gamma                 89.829676
_cell_volume                      1500.10058848

loop_
_atom_site_label
_atom_site_type_symbol
_atom_type_description
_atom_site_fract_x
_atom_site_fract_y
_atom_site_fract_z
_atom_type_partial_charge
C1    C     C_R   0.504609 0.739707 0.492293 0.898518
C2    C     C_R   0.427278 0.539852 0.907248 0.037994
C3    C     C_R   0.306276 0.621552 0.951712 0.148727
C4    C     C_R   0.536421 0.526808 0.945321 0.088447
C5    C     C_R   0.505965 0.569185 0.037468 0.088046
C6    C     C_R   0.380092 0.644919 0.082431 -0.208712
C7    C     C_R   0.284279 0.673328 0.038803 -0.176444
C8    C     C_R   0.679190 0.482727 0.891722 -0.179855
C9    C     C_R   0.781667 0.462469 0.931675 -0.181937
C10   C     C_R   0.743356 0.481985 0.027477 0.087889
C11   C     C_R   0.603872 0.535638 0.080950 0.058659
C12   C     C_R   0.408051 0.500245 0.676104 0.915377
C13   C     C_R   0.839014 0.446533 0.071926 0.260041
C14   C     C_R   0.792701 0.458343 0.168873 -0.206046
C15   C     C_R   0.560767 0.544708 0.177816 -0.251319
C16   C     C_R   0.387319 0.936222 0.483256 0.131130
C17   C     C_R   0.516208 0.870598 0.470259 -0.188883
C18   C     C_R   0.651896 0.936049 0.438944 -0.045357
C19   C     C_R   0.646992 0.066572 0.446772 -0.250887
C20   C     C_R   0.510938 0.128507 0.479777 -0.124569
C21   C     C_R   0.385059 0.063851 0.487225 0.121778
C22   C     C_3   0.234305 0.068563 0.561955 -0.437427
C23   C     C_R   0.501882 0.259775 0.497069 0.912429
C24   C     C_3   0.236466 0.926390 0.557788 -0.469030
C25   C     C_R   0.905625 0.598525 0.537942 0.253480
C26   C     C_R   0.955634 0.408997 0.454607 -0.102240
C27   C     C_R   0.099714 0.409095 0.454471 -0.117146
C28   C     C_R   0.047512 0.597546 0.539160 0.209162
C29   C     C_3   0.990655 0.637338 0.639403 -0.529476
C30   C     C_3   0.838431 0.642220 0.636826 -0.492193
C31   C     C_R   0.592103 0.500756 0.323787 0.897121
C32   C     C_R   0.351028 0.520069 0.776767 -0.092824
C33   C     C_R   0.651780 0.503339 0.221832 -0.099247
C34   C     C_R   0.209692 0.651656 0.907798 -0.139101
C35   C     C_R   0.236207 0.605550 0.818548 -0.232040
C36   C     C_R   0.434156 0.475819 0.825941 0.196278
H1    H     H_    0.191922 0.735351 0.073751 0.162528
H2    H     H_    0.748017 0.119048 0.429482 0.193528
H3    H     H_    0.232744 0.106721 0.629328 0.216911
H4    H     H_    0.153256 0.111470 0.536774 0.216677
H5    H     H_    0.235965 0.881852 0.622900 0.198950
H6    H     H_    0.156562 0.887449 0.530106 0.216954
H7    H     H_    0.922657 0.334252 0.419475 0.147803
H8    H     H_    0.175468 0.334456 0.419157 0.156514
H9    H     H_    0.002888 0.562743 0.686165 0.217546
H10   H     H_    0.451757 0.576045 0.221404 0.165765
H11   H     H_    0.031192 0.730987 0.649535 0.204066
H12   H     H_    0.761368 0.572720 0.683081 0.222205
H13   H     H_    0.793598 0.739123 0.642286 0.216159
H14   H     H_    0.863837 0.426352 0.203157 0.185368
H15   H     H_    0.888956 0.427426 0.887224 0.196973
H16   H     H_    0.118815 0.716003 0.940246 0.153193
H17   H     H_    0.170700 0.639809 0.781042 0.157372
H18   H     H_    0.357745 0.689785 0.149127 0.149908
H19   H     H_    0.715461 0.467233 0.817514 0.177154
N1    N     N_R   0.856900 0.500860 0.500610 -0.101864
N2    N     N_R   0.142540 0.500820 0.500610 -0.108640
O1    O     O_R   0.385310 0.683210 0.499990 -0.619561
O2    O     O_R   0.614650 0.683240 0.500000 -0.598849
O3    O     O_R   0.319830 0.499970 0.632240 -0.613896
O4    O     O_R   0.549170 0.500000 0.632250 -0.596495
O5    O     O_R   0.385350 0.316760 0.500000 -0.621673
O6    O     O_R   0.614690 0.316790 0.500010 -0.611093
O7    O     O_R   0.450830 0.500000 0.367750 -0.623732
O8    O     O_R   0.680170 0.500030 0.367760 -0.594496
Zn1   Zn    Zn3+2 0.346870 0.499980 0.499990 0.948225
Zn2   Zn    Zn3+2 0.653130 0.500020 0.500010 0.993189
Br1   Br    Br    0.027789 0.370290 0.006197 -0.516024
C37   C     C_2   0.797933 0.873759 0.400516 0.937517
O9    O     O_2   0.818354 0.782937 0.348447 -0.621472
O10   O     O_R   0.913907 0.922074 0.421120 -0.826120
H20   H     H_    0.007924 0.871819 0.390875 0.332494
Br2   Br    Br    0.525208 0.311824 0.791131 -0.493426

loop_
_geom_bond_atom_site_label_1
_geom_bond_atom_site_label_2
_ccdc_geom_bond_type
C8    C9    A    
C16   C21   A    
C35   H17   S    
C24   H6    S    
C19   C20   A    
C9    H15   S    
C25   N1    A    
N2    Zn1   S    
C4    C8    A    
C14   C33   A    
C28   N2    A    
C25   C28   A    
C26   C27   A    
C29   H11   S    
C32   C36   A    
C30   H12   S    
C28   C29   S    
C5    C11   A    
C3    C7    A    
C1    O2    A    
C5    C6    A    
C34   C35   A    
C37   O10   S    
O2    Zn2   S    
C11   C15   A    
C27   H8    S    
O1    Zn1   S    
C23   O5    A    
C16   C17   A    
O8    Zn2   S    
C31   C33   S    
C9    C10   A    
C18   C37   S    
C23   O6    A    
O3    Zn1   S    
C16   C24   S    
C21   C22   S    
C12   C32   S    
C24   H5    S    
C6    H18   S    
C8    H19   S    
C26   H7    S    
O6    Zn2   S    
O5    Zn1   S    
C32   C35   A    
C10   C11   A    
C18   C19   A    
C3    C34   A    
C29   H9    S    
O7    Zn1   S    
C2    C4    A    
C29   C30   S    
C19   H2    S    
O4    Zn2   S    
C20   C23   S    
C22   H4    S    
C17   C18   A    
C7    H1    S    
C30   H13   S    
C27   N2    A    
C22   C24   S    
C2    C36   A    
C25   C30   S    
C31   O8    A    
C34   H16   S    
C31   O7    A    
C4    C5    A    
C10   C13   A    
C26   N1    A    
C6    C7    A    
N1    Zn2   S    
C1    C17   S    
C2    C3    A    
O10   H20   S    
C1    O1    A    
C12   O4    A    
C14   H14   S    
C22   H3    S    
C37   O9    D    
C36   Br2   S    
C12   O3    A    
C20   C21   A    
C15   H10   S    
C13   C14   A    
C15   C33   A    
C13   Br1   S    
