data_mof_unit_15481.cif
_audit_creation_date              2012-12-11T15:06:44-0500
_audit_creation_method            fapswitch 2.2
_symmetry_space_group_name_H-M    P1
_symmetry_Int_Tables_number       1
_space_group_crystal_system       triclinic
_cell_length_a                    7.213803
_cell_length_b                    15.163887
_cell_length_c                    22.423864
_cell_angle_alpha                 90.000286
_cell_angle_beta                  90.002304
_cell_angle_gamma                 89.999545
_cell_volume                      2452.93063913

loop_
_atom_site_label
_atom_site_type_symbol
_atom_type_description
_atom_site_fract_x
_atom_site_fract_y
_atom_site_fract_z
_atom_type_partial_charge
O1    O     O_R   0.390810 0.844810 0.447340 -0.542567
O2    O     O_R   0.109190 0.155190 0.947340 -0.542560
O3    O     O_R   0.890810 0.655190 0.552660 -0.542555
O4    O     O_R   0.609190 0.344810 0.052660 -0.542569
O5    O     O_R   0.720550 0.655820 0.440420 -0.516799
O6    O     O_R   0.779450 0.344180 0.940420 -0.516807
O7    O     O_R   0.220550 0.844180 0.559580 -0.516809
O8    O     O_R   0.279450 0.155820 0.059580 -0.516799
C1    C     C_R   0.551245 0.627260 0.426108 0.751006
C2    C     C_R   0.948751 0.372738 0.926107 0.751021
C3    C     C_R   0.051248 0.872742 0.573891 0.751040
C4    C     C_R   0.448756 0.127260 0.073892 0.750998
O9    O     O_R   0.720530 0.844130 0.440420 -0.521231
O10   O     O_R   0.779470 0.155870 0.940420 -0.521239
O11   O     O_R   0.220530 0.655870 0.559580 -0.521250
O12   O     O_R   0.279470 0.344130 0.059580 -0.521238
O13   O     O_R   0.890830 0.844810 0.552660 -0.532374
O14   O     O_R   0.609170 0.155190 0.052660 -0.532360
O15   O     O_R   0.390830 0.655190 0.447340 -0.532352
O16   O     O_R   0.109170 0.344810 0.947340 -0.532368
C5    C     C_R   0.552679 0.872084 0.425113 0.796764
C6    C     C_R   0.947318 0.127919 0.925110 0.796825
C7    C     C_R   0.052684 0.627919 0.574889 0.796862
C8    C     C_R   0.447319 0.372083 0.074889 0.796751
O17   O     O_3   0.557310 0.749980 0.536820 -0.382448
O18   O     O_3   0.942690 0.250020 0.036820 -0.382404
O19   O     O_3   0.057310 0.750020 0.463180 -0.382392
O20   O     O_3   0.442690 0.249980 0.963180 -0.382426
V1    V     V_3+5 0.832160 0.749980 0.493170 1.529270
V2    V     V_3+5 0.667840 0.250020 0.993170 1.529238
V3    V     V_3+5 0.332160 0.750020 0.506830 1.529201
V4    V     V_3+5 0.167840 0.249980 0.006830 1.529267
C9    C     C_R   0.044554 0.597255 0.864641 -0.093150
C10   C     C_R   0.455447 0.402745 0.364628 -0.093250
C11   C     C_R   0.544620 0.902748 0.135367 -0.093200
C12   C     C_R   0.955403 0.097262 0.635356 -0.093160
H1    H     H_    0.960101 0.545597 0.949183 0.150590
H2    H     H_    0.539938 0.454392 0.449172 0.150598
H3    H     H_    0.460158 0.954397 0.050819 0.150590
H4    H     H_    0.039849 0.045603 0.550812 0.150589
H5    H     H_    0.068929 0.662203 0.883085 0.157528
H6    H     H_    0.431103 0.337791 0.383066 0.157486
H7    H     H_    0.569018 0.837801 0.116925 0.157498
H8    H     H_    0.931007 0.162209 0.616911 0.157502
C13   C     C_R   0.964824 0.444126 0.881729 -0.053687
C14   C     C_R   0.535164 0.555875 0.381726 -0.053694
C15   C     C_R   0.464843 0.055873 0.118272 -0.053705
C16   C     C_R   0.035172 0.944134 0.618268 -0.053709
C17   C     C_R   0.967496 0.472582 0.592599 0.108209
C18   C     C_R   0.532544 0.527418 0.092599 0.108236
C19   C     C_R   0.467433 0.027417 0.407401 0.108232
C20   C     C_R   0.032549 0.972588 0.907396 0.108207
C21   C     C_R   0.903904 0.406746 0.630551 -0.117497
C22   C     C_R   0.596141 0.593253 0.130553 -0.117549
C23   C     C_R   0.403822 0.093248 0.369446 -0.117562
C24   C     C_R   0.096167 0.906761 0.869441 -0.117503
C25   C     C_R   0.918127 0.416456 0.691921 -0.103823
C26   C     C_R   0.581892 0.583548 0.191923 -0.103865
C27   C     C_R   0.418067 0.083540 0.308076 -0.103866
C28   C     C_R   0.081936 0.916474 0.808072 -0.103814
C29   C     C_R   0.014131 0.487870 0.717233 0.015502
C30   C     C_R   0.485854 0.512143 0.217230 0.015526
C31   C     C_R   0.514116 0.012136 0.282770 0.015529
C32   C     C_R   0.985899 0.987881 0.782763 0.015498
C33   C     C_R   0.080275 0.556242 0.678886 -0.129754
C34   C     C_R   0.419688 0.443777 0.178879 -0.129842
C35   C     C_R   0.580292 0.943774 0.321121 -0.129832
C36   C     C_R   0.919731 0.056245 0.821113 -0.129781
C37   C     C_R   0.029648 0.496659 0.780373 -0.019893
C38   C     C_R   0.470321 0.503353 0.280368 -0.019867
C39   C     C_R   0.529659 0.003347 0.219631 -0.019878
C40   C     C_R   0.970364 0.996669 0.719624 -0.019898
C41   C     C_R   0.079123 0.579422 0.804144 -0.063115
C42   C     C_R   0.420832 0.420589 0.304134 -0.063107
C43   C     C_R   0.579175 0.920587 0.195864 -0.063131
C44   C     C_R   0.920855 0.079429 0.695854 -0.063121
C45   C     C_R   0.172366 0.640317 0.767490 0.403447
C46   C     C_R   0.327536 0.359709 0.267477 0.403434
C47   C     C_R   0.672452 0.859705 0.232525 0.403401
C48   C     C_R   0.827595 0.140318 0.732512 0.403404
C49   C     C_R   0.180580 0.626544 0.705482 0.366923
C50   C     C_R   0.319308 0.373496 0.205470 0.366996
C51   C     C_R   0.680673 0.873491 0.294532 0.366995
C52   C     C_R   0.819389 0.126539 0.794519 0.366961
C53   C     C_R   0.003645 0.425976 0.821133 0.115711
C54   C     C_R   0.496338 0.574032 0.321131 0.115676
C55   C     C_R   0.503640 0.074027 0.178869 0.115678
C56   C     C_R   0.996371 0.925987 0.678865 0.115724
C57   C     C_R   0.980093 0.530891 0.902371 -0.165232
C58   C     C_R   0.519918 0.469106 0.402362 -0.165206
C59   C     C_R   0.480142 0.969107 0.097633 -0.165204
C60   C     C_R   0.019872 0.030898 0.597625 -0.165219
C61   C     C_R   0.043330 0.550925 0.615981 -0.102748
C62   C     C_R   0.456674 0.449083 0.115978 -0.102807
C63   C     C_R   0.543314 0.949082 0.384023 -0.102800
C64   C     C_R   0.956682 0.050927 0.884017 -0.102757
H9    H     H_    0.849429 0.368544 0.719641 0.208137
H10   H     H_    0.650593 0.631459 0.219646 0.208105
H11   H     H_    0.349357 0.131448 0.280353 0.208100
H12   H     H_    0.150647 0.868569 0.780349 0.208140
H13   H     H_    0.837132 0.348709 0.612401 0.160317
H14   H     H_    0.662936 0.651285 0.112406 0.160324
H15   H     H_    0.337019 0.151279 0.387593 0.160341
H16   H     H_    0.162964 0.848728 0.887589 0.160333
O21   O     O_3   0.258856 0.714054 0.791081 -0.551797
C65   C     C_3   0.418282 0.689320 0.823920 -0.209548
H17   H     H_    0.471127 0.621681 0.814097 0.128948
H18   H     H_    0.389396 0.694626 0.872374 0.162682
H19   H     H_    0.531409 0.736383 0.813406 0.188612
O22   O     O_3   0.240998 0.285982 0.291060 -0.551785
C66   C     C_3   0.081607 0.310741 0.323900 -0.209087
H20   H     H_    0.028451 0.378267 0.313921 0.128870
H21   H     H_    0.110685 0.305731 0.372354 0.162567
H22   H     H_    0.968641 0.263514 0.313551 0.188585
O23   O     O_3   0.759003 0.785979 0.208942 -0.551787
C67   C     C_3   0.918423 0.810737 0.176114 -0.209129
H23   H     H_    0.971337 0.878349 0.186003 0.128882
H24   H     H_    0.889485 0.805534 0.127650 0.162594
H25   H     H_    0.031522 0.763619 0.186577 0.188607
O24   O     O_3   0.741067 0.214048 0.708925 -0.551797
C68   C     C_3   0.581658 0.189305 0.676084 -0.209409
H26   H     H_    0.528841 0.121659 0.685908 0.128935
H27   H     H_    0.610561 0.194616 0.627628 0.162658
H28   H     H_    0.468503 0.236364 0.686593 0.188610
I1    I     I_    0.120580 0.300576 0.799569 -0.447646
I2    I     I_    0.379453 0.699444 0.299567 -0.447549
I3    I     I_    0.620511 0.199441 0.200439 -0.447487
I4    I     I_    0.879434 0.800593 0.700434 -0.447664
I5    I     I_    0.946732 0.449186 0.499379 -0.475320
I6    I     I_    0.553330 0.550809 0.999379 -0.475311
I7    I     I_    0.446644 0.050810 0.500621 -0.475329
I8    I     I_    0.053332 0.949189 0.000615 -0.475310
O25   O     O_3   0.290832 0.682080 0.672072 -0.533522
C69   C     C_3   0.466395 0.641769 0.665745 -0.090159
H29   H     H_    0.457161 0.579825 0.639282 0.111331
H30   H     H_    0.532491 0.628130 0.709540 0.112002
H31   H     H_    0.559183 0.687481 0.641575 0.185236
O26   O     O_3   0.208903 0.318019 0.172062 -0.533452
C70   C     C_3   0.033502 0.358482 0.165675 -0.090089
H32   H     H_    0.043051 0.420395 0.139189 0.111342
H33   H     H_    0.967338 0.372226 0.209450 0.111857
H34   H     H_    0.940584 0.312830 0.141501 0.185195
O27   O     O_3   0.791089 0.818020 0.327941 -0.533454
C71   C     C_3   0.966487 0.858480 0.334317 -0.090137
H35   H     H_    0.956960 0.920398 0.360801 0.111347
H36   H     H_    0.032596 0.872213 0.290534 0.111888
H37   H     H_    0.059427 0.812834 0.358493 0.185196
O28   O     O_3   0.709072 0.182049 0.827931 -0.533489
C72   C     C_3   0.533556 0.141685 0.834263 -0.090177
H38   H     H_    0.542902 0.079719 0.860707 0.111310
H39   H     H_    0.467415 0.128058 0.790466 0.112010
H40   H     H_    0.440736 0.187358 0.858459 0.185234

loop_
_geom_bond_atom_site_label_1
_geom_bond_atom_site_label_2
_ccdc_geom_bond_type
O17   V3    S    
C47   C51   A    
C48   O24   S    
C26   C30   A    
O1    C5    A    
C23   C27   A    
O19   V1    S    
O13   V1    S    
O3    C7    A    
C66   H20   S    
C26   H10   S    
C48   C52   A    
O15   V3    S    
C69   H31   S    
C55   I3    S    
O7    C3    A    
C11   C43   A    
C18   C22   A    
C32   C36   A    
O9    V1    S    
C18   I6    S    
C8    C62   S    
C72   H39   S    
O16   V4    S    
O4    C8    A    
C70   H34   S    
C54   I2    S    
C65   H17   S    
O27   C71   S    
C23   H15   S    
O1    V3    S    
C27   H11   S    
C67   H23   S    
C30   C38   A    
O2    V4    S    
C25   C29   A    
O3    V1    S    
O22   C66   S    
C68   H28   S    
C12   C44   A    
C53   I1    S    
C1    O15   A    
C2    O16   A    
C10   H6    S    
C38   C42   A    
C19   C63   A    
C16   C56   A    
C37   C41   A    
O14   V2    S    
C11   H7    S    
C40   C44   A    
C34   C62   A    
C12   C60   A    
O11   C7    A    
C1    C14   S    
O12   C8    A    
C35   C63   A    
C71   H37   S    
C3    C16   S    
C6    C64   S    
O10   V2    S    
C4    C15   S    
H3    C59   S    
C40   C56   A    
C20   I8    S    
O5    V1    S    
C52   O28   S    
C31   C35   A    
C39   C43   A    
O7    V3    S    
C30   C34   A    
C36   C52   A    
O28   C72   S    
C24   H16   S    
C71   H36   S    
C72   H40   S    
C21   H13   S    
C19   I7    S    
O18   V4    S    
C18   C62   A    
C69   H30   S    
C5    C63   S    
C17   I5    S    
C7    C61   S    
O8    V4    S    
C13   C53   A    
C10   C58   A    
O5    C1    A    
C9    C57   A    
C34   C50   A    
C46   C50   A    
C33   C49   A    
C45   C49   A    
O8    C4    A    
C25   H9    S    
C2    C13   S    
C47   O23   S    
O9    C5    A    
C66   H21   S    
C36   C64   A    
C35   C51   A    
H4    C60   S    
C49   O25   S    
C68   H26   S    
C10   C42   A    
C39   C55   A    
C9    C41   A    
O6    V2    S    
C31   C39   A    
C16   C60   A    
O25   C69   S    
C12   H8    S    
C38   C54   A    
C37   C53   A    
O24   C68   S    
C22   C26   A    
C29   C37   A    
C3    O13   A    
C21   C25   A    
C13   C57   A    
C15   C59   A    
C22   H14   S    
C44   C48   A    
C71   H35   S    
C28   H12   S    
O6    C2    A    
C70   H32   S    
O11   V3    S    
C69   H29   S    
C14   C58   A    
O12   V4    S    
O21   C65   S    
H2    C58   S    
C27   C31   A    
C46   O22   S    
C67   H25   S    
H1    C57   S    
C28   C32   A    
C9    H5    S    
O10   C6    A    
C45   O21   S    
C50   O26   S    
O2    C6    A    
C51   O27   S    
C70   H33   S    
O23   C67   S    
C65   H18   S    
C17   C21   A    
O20   V2    S    
C33   C61   A    
C67   H24   S    
C20   C64   A    
C66   H22   S    
C19   C23   A    
C32   C40   A    
C68   H27   S    
O26   C70   S    
C29   C33   A    
C24   C28   A    
C56   I4    S    
C42   C46   A    
C4    O14   A    
C41   C45   A    
C17   C61   A    
C72   H38   S    
C43   C47   A    
O4    V2    S    
C20   C24   A    
C15   C55   A    
C14   C54   A    
C65   H19   S    
C11   C59   A    
