data_mof_unit_14199.cif
_audit_creation_date              2012-12-11T14:56:30-0500
_audit_creation_method            fapswitch 2.2
_symmetry_space_group_name_H-M    P1
_symmetry_Int_Tables_number       1
_space_group_crystal_system       triclinic
_cell_length_a                    10.562811
_cell_length_b                    10.674817
_cell_length_c                    17.046906
_cell_angle_alpha                 80.639917
_cell_angle_beta                  89.914163
_cell_angle_gamma                 119.32784
_cell_volume                      1646.09648818

loop_
_atom_site_label
_atom_site_type_symbol
_atom_type_description
_atom_site_fract_x
_atom_site_fract_y
_atom_site_fract_z
_atom_type_partial_charge
C1    C     C_R   0.222751 0.854464 0.128661 0.562083
C2    C     C_R   0.827787 0.472614 0.251125 -0.149299
C3    C     C_R   0.810406 0.440236 0.174944 -0.021486
C4    C     C_R   0.667824 0.365268 0.150405 0.011387
C5    C     C_1   0.669456 0.848887 0.205318 -0.028526
C6    C     C_1   0.680087 0.839060 0.274955 -0.029018
C7    C     C_1   0.181300 0.826251 0.211277 -0.046265
C8    C     C_1   0.152295 0.820067 0.280054 -0.048487
C9    C     C_1   0.645021 0.325855 0.778587 -0.056771
C10   C     C_1   0.652976 0.348182 0.707924 -0.055528
C11   C     C_R   0.493286 0.791486 0.771635 -0.135696
C12   C     C_R   0.639024 0.283597 0.085268 0.545898
C13   C     C_R   0.509656 0.775574 0.694149 -0.137529
C14   C     C_R   0.644570 0.863772 0.648397 0.013758
C15   C     C_R   0.755239 0.987190 0.676405 -0.022660
C16   C     C_R   0.736064 0.002235 0.754809 -0.131238
C17   C     C_R   0.610149 0.897903 0.804039 0.001443
C18   C     C_R   0.284129 0.957341 0.757740 -0.139112
C19   C     C_R   0.264611 0.940257 0.679198 -0.035338
C20   C     C_R   0.151154 0.809084 0.663792 0.019029
C21   C     C_R   0.067907 0.690205 0.726194 -0.145851
C22   C     C_R   0.090087 0.706311 0.804588 -0.155539
C23   C     C_R   0.641127 0.858312 0.125130 0.559405
C24   C     C_R   0.193293 0.841815 0.819888 0.019463
C25   C     C_R   0.686206 0.810015 0.357399 0.541605
C26   C     C_R   0.726919 0.459432 0.383432 0.571058
C27   C     C_R   0.104527 0.810466 0.359479 0.546939
C28   C     C_R   0.674502 0.806853 0.582026 0.540415
C29   C     C_R   0.680423 0.385096 0.624892 0.583773
C30   C     C_R   0.098679 0.801033 0.586167 0.556703
C31   C     C_R   0.222779 0.862716 0.899809 0.542830
C32   C     C_R   0.637750 0.285685 0.861317 0.536894
C33   C     C_R   0.598581 0.895663 0.889436 0.562007
C34   C     C_R   0.548760 0.345119 0.198085 -0.141315
C35   C     C_R   0.567995 0.381447 0.273282 -0.123031
C36   C     C_R   0.706392 0.436862 0.301666 0.009741
Cr1   Cr    Cr6+3 0.402240 0.783890 0.019450 1.052177
Cr2   Cr    Cr6+3 0.382360 0.097900 0.991800 1.029065
Cr3   Cr    Cr6+3 0.715380 0.118170 0.988700 1.038608
Cr4   Cr    Cr6+3 0.936650 0.882420 0.465510 1.036530
Cr5   Cr    Cr6+3 0.605770 0.565620 0.493360 1.018455
Cr6   Cr    Cr6+3 0.921340 0.550490 0.496380 1.002413
H1    H     H_    0.439040 0.290815 0.180119 0.147450
H2    H     H_    0.980053 0.587794 0.714471 0.147157
H3    H     H_    0.024295 0.615839 0.852833 0.138488
H4    H     H_    0.473053 0.357575 0.310728 0.150593
H5    H     H_    0.935472 0.521251 0.272184 0.124316
H6    H     H_    0.391717 0.714812 0.807738 0.147628
H7    H     H_    0.420409 0.685128 0.672975 0.144125
H8    H     H_    0.822201 0.091758 0.778282 0.140596
H9    H     H_    0.370846 0.059239 0.770753 0.125200
O1    O     O_R   0.521780 0.757110 0.108900 -0.500729
O2    O     O_R   0.513330 0.228330 0.898660 -0.502724
O3    O     O_R   0.739230 0.266130 0.888050 -0.524859
O4    O     O_R   0.712580 0.991850 0.918770 -0.502269
O5    O     O_3   0.499990 0.999980 0.999980 -0.289676
O6    O     O_R   0.083770 0.911170 0.376030 -0.498110
O7    O     O_R   0.808770 0.880340 0.383890 -0.499368
O8    O     O_R   0.584340 0.689460 0.394160 -0.525755
O9    O     O_R   0.614320 0.443940 0.423590 -0.488240
O10   O     O_R   0.805020 0.410040 0.421340 -0.524204
O11   O     O_R   0.049240 0.685450 0.403290 -0.525450
O12   O     O_R   0.275160 0.783810 0.101120 -0.472930
O13   O     O_R   0.077520 0.903010 0.551800 -0.491306
O14   O     O_R   0.802980 0.872780 0.546830 -0.492847
O15   O     O_R   0.578090 0.681300 0.569920 -0.525262
O16   O     O_R   0.608530 0.436370 0.586530 -0.479082
O17   O     O_R   0.798770 0.401880 0.597100 -0.515709
O18   O     O_R   0.043450 0.677890 0.566230 -0.511195
O19   O     O_3   0.821250 0.666180 0.485090 -0.279637
O20   O     O_R   0.237900 0.972600 0.090980 -0.507242
O21   O     O_R   0.511190 0.220540 0.061620 -0.503155
O22   O     O_R   0.736920 0.257720 0.063840 -0.498294
O23   O     O_R   0.710450 0.984050 0.081720 -0.487298
O24   O     O_R   0.524090 0.765520 0.933110 -0.506649
O25   O     O_R   0.277300 0.791600 0.938160 -0.511695
O26   O     O_R   0.240210 0.981010 0.915190 -0.512857
C37   C     C_1   0.360767 0.054448 0.614481 0.176165
N1    N     N_1   0.435714 0.142948 0.560959 -0.268745
C38   C     C_1   0.939620 0.476745 0.125638 0.214878
N2    N     N_1   0.042095 0.504238 0.085894 -0.267604
C39   C     C_R   0.893480 0.098409 0.627782 0.044782
C40   C     C_R   0.890710 0.173475 0.552553 -0.034522
C41   C     C_R   0.021112 0.279854 0.507492 -0.094424
C42   C     C_R   0.154921 0.313271 0.537447 -0.106933
C43   C     C_R   0.158692 0.240133 0.612438 -0.094454
C44   C     C_R   0.028764 0.132867 0.657430 -0.086200
H10   H     H_    0.787683 0.149527 0.528971 0.133565
H11   H     H_    0.018580 0.336755 0.449398 0.125853
H12   H     H_    0.255692 0.395969 0.502611 0.122478
H13   H     H_    0.262358 0.266531 0.635723 0.130702
H14   H     H_    0.033661 0.076234 0.715148 0.116458

loop_
_geom_bond_atom_site_label_1
_geom_bond_atom_site_label_2
_ccdc_geom_bond_type
C33   O4    A    
C30   O13   A    
C35   C36   A    
C23   O1    A    
C7    C8    T    
Cr5   O16   S    
C20   C30   S    
C42   C43   A    
C1    O20   A    
Cr4   O19   S    
C40   C41   A    
C18   C24   A    
C26   O10   A    
C16   H8    S    
C18   C19   A    
C43   H13   S    
C5    C6    T    
Cr3   O3    S    
C15   C16   A    
C21   H2    S    
Cr6   O19   S    
C34   C35   A    
Cr3   O23   S    
C9    C32   S    
C29   O16   A    
Cr1   O5    S    
C33   O24   A    
Cr3   O4    S    
C19   C20   A    
C16   C17   A    
C12   O22   A    
C4    C12   S    
C9    C10   T    
Cr6   O11   S    
C40   H10   S    
Cr1   O24   S    
C1    C7    S    
C21   C22   A    
Cr6   O17   S    
C11   H6    S    
C17   C33   S    
C3    C38   S    
C1    O12   A    
C32   O3    A    
Cr1   O12   S    
C18   H9    S    
C31   O26   A    
C15   C39   S    
Cr2   O21   S    
C4    C34   A    
Cr4   O7    S    
C41   C42   A    
Cr5   O8    S    
C27   O6    A    
Cr1   O1    S    
C43   C44   A    
Cr6   O18   S    
C19   C37   S    
C28   O15   A    
C27   O11   A    
C29   O17   A    
Cr3   O5    S    
C5    C23   S    
Cr6   O10   S    
C13   H7    S    
C26   C36   S    
Cr1   O25   S    
Cr4   O14   S    
C22   C24   A    
C41   H11   S    
C23   O23   A    
C3    C4    A    
C32   O2    A    
C30   O18   A    
C44   H14   S    
C2    C36   A    
Cr2   O20   S    
C11   C17   A    
Cr4   O6    S    
C37   N1    T    
C34   H1    S    
Cr5   O9    S    
C38   N2    T    
C42   H12   S    
Cr5   O15   S    
Cr2   O26   S    
C2    H5    S    
Cr4   O13   S    
C2    C3    A    
C24   C31   S    
C11   C13   A    
C10   C29   S    
C31   O25   A    
Cr2   O2    S    
C28   O14   A    
Cr3   O22   S    
C12   O21   A    
C6    C25   S    
C22   H3    S    
Cr2   O5    S    
C20   C21   A    
C39   C40   A    
C25   O7    A    
C8    C27   S    
C14   C15   A    
C25   O8    A    
C14   C28   S    
C13   C14   A    
C35   H4    S    
C26   O9    A    
C39   C44   A    
Cr5   O19   S    
