data_mof_unit_9775.cif
_audit_creation_date              2012-12-10T18:04:40-0500
_audit_creation_method            fapswitch 2.2
_symmetry_space_group_name_H-M    P1
_symmetry_Int_Tables_number       1
_space_group_crystal_system       triclinic
_cell_length_a                    19.030278
_cell_length_b                    18.074485
_cell_length_c                    12.785275
_cell_angle_alpha                 90.788381
_cell_angle_beta                  99.998725
_cell_angle_gamma                 89.77408
_cell_volume                      4330.44618269

loop_
_atom_site_label
_atom_site_type_symbol
_atom_type_description
_atom_site_fract_x
_atom_site_fract_y
_atom_site_fract_z
_atom_type_partial_charge
C1    C     C_R   0.417370 0.107854 0.449455 0.923150
C2    C     C_R   0.730220 0.720425 0.631517 -0.132938
C3    C     C_3   0.776761 0.519285 0.151739 -0.907600
C4    C     C_3   0.233815 0.955860 0.778833 0.065129
C5    C     C_3   0.155159 0.965100 0.784854 -0.847247
C6    C     C_3   0.734663 0.450891 0.777693 0.057961
C7    C     C_3   0.655751 0.458831 0.782856 -0.847474
C8    C     C_3   0.678474 0.008270 0.800482 0.169125
C9    C     C_3   0.712432 0.970376 0.714808 -0.881882
C10   C     C_3   0.178861 0.515672 0.799103 0.201893
C11   C     C_3   0.215170 0.485052 0.710668 -0.866974
C12   C     C_3   0.435534 0.776324 0.213848 0.201333
C13   C     C_R   0.257199 0.745517 0.642260 -0.054936
C14   C     C_3   0.486104 0.803745 0.143268 -0.758236
C15   C     C_3   0.414222 0.181636 0.178031 0.200745
C16   C     C_3   0.466234 0.201455 0.105152 -0.770493
C17   C     C_3   0.940802 0.272495 0.220428 0.197568
C18   C     C_3   0.996002 0.301746 0.159430 -0.763746
C19   C     C_3   0.916738 0.678490 0.175191 0.179180
C20   C     C_3   0.986696 0.694394 0.137850 -0.811311
C21   C     C_3   0.221954 0.801867 0.121455 0.160911
C22   C     C_3   0.224976 0.807565 0.004362 -0.854140
C23   C     C_3   0.397205 0.382920 0.260455 0.130977
C24   C     C_R   0.260489 0.252571 0.653917 -0.116710
C25   C     C_3   0.402423 0.431950 0.166407 -0.786254
C26   C     C_3   0.727311 0.293906 0.125473 0.163938
C27   C     C_3   0.733839 0.302199 0.009973 -0.850798
C28   C     C_3   0.785065 0.821285 0.170181 0.173047
C29   C     C_3   0.764442 0.849651 0.057731 -0.869417
C30   C     C_R   0.326324 0.772514 0.674657 0.317777
C31   C     C_R   0.327771 0.220738 0.690787 0.349042
C32   C     C_R   0.834712 0.266234 0.679199 0.321014
C33   C     C_R   0.800509 0.697504 0.671286 0.335677
C34   C     C_R   0.367437 0.789731 0.596952 0.387344
C35   C     C_R   0.373425 0.205552 0.618543 0.464048
C36   C     C_R   0.874838 0.286596 0.601204 0.392845
C37   C     C_R   0.412822 0.895324 0.444941 0.941854
C38   C     C_R   0.849953 0.696716 0.602016 0.498666
C39   C     C_R   0.667143 0.201530 0.508991 0.360214
C40   C     C_R   0.654054 0.788243 0.493355 0.385995
C41   C     C_R   0.159506 0.706817 0.505058 0.370589
C42   C     C_R   0.172901 0.301194 0.510858 0.449385
C43   C     C_R   0.655405 0.191033 0.692451 0.409846
C44   C     C_R   0.628338 0.788273 0.673879 0.452530
C45   C     C_R   0.148370 0.696583 0.688813 0.403769
C46   C     C_R   0.149587 0.307252 0.692486 0.461917
C47   C     C_R   0.366839 0.830044 0.412984 -0.240737
C48   C     C_R   0.915042 0.606078 0.447702 0.898559
C49   C     C_R   0.383908 0.182222 0.430880 -0.208553
C50   C     C_R   0.870599 0.327293 0.415828 -0.242841
C51   C     C_R   0.870087 0.671808 0.420704 -0.158035
C52   C     C_R   0.640985 0.029761 0.136104 0.414955
C53   C     C_R   0.140678 0.530654 0.136194 0.425790
C54   C     C_R   0.377009 0.995348 0.754010 -0.147839
C55   C     C_R   0.877103 0.494026 0.754151 -0.127826
C56   C     C_R   0.344134 0.006990 0.841668 0.251683
C57   C     C_R   0.844247 0.503538 0.842245 0.258780
C58   C     C_R   0.583024 0.892539 0.550914 0.918673
C59   C     C_R   0.913786 0.394674 0.445665 0.945005
C60   C     C_R   0.586495 0.105098 0.554680 0.894659
C61   C     C_R   0.086265 0.394503 0.553666 0.911359
C62   C     C_R   0.084862 0.606053 0.553671 0.882970
C63   C     C_R   0.387384 0.020017 0.943381 0.505611
C64   C     C_R   0.887564 0.516626 0.943896 0.514071
C65   C     C_R   0.464080 0.017701 0.951708 -0.131472
C66   C     C_R   0.964236 0.515406 0.951774 -0.143117
C67   C     C_R   0.493023 0.014202 0.855847 -0.080448
C68   C     C_R   0.993145 0.513327 0.855801 -0.050213
C69   C     C_R   0.515022 0.018512 0.049606 -0.067564
C70   C     C_R   0.738156 0.226007 0.537542 -0.017793
C71   C     C_R   0.015150 0.516374 0.049464 -0.080305
C72   C     C_R   0.586723 0.038308 0.046907 -0.370670
C73   C     C_R   0.086403 0.537737 0.046900 -0.363516
C74   C     C_R   0.604141 0.061665 0.952339 0.286040
C75   C     C_R   0.103357 0.562541 0.952883 0.274428
C76   C     C_R   0.567464 0.028480 0.859384 0.569121
C77   C     C_R   0.067364 0.529586 0.859105 0.560943
C78   C     C_R   0.499945 0.998096 0.149161 0.447224
C79   C     C_R   0.000351 0.495773 0.149015 0.452107
C80   C     C_R   0.622221 0.011803 0.231212 0.529284
C81   C     C_R   0.710437 0.738125 0.522266 0.045434
C82   C     C_R   0.121965 0.513626 0.231591 0.512521
C83   C     C_R   0.722880 0.222719 0.722714 -0.278385
C84   C     C_R   0.682733 0.736038 0.700967 -0.292076
C85   C     C_R   0.214357 0.731097 0.718284 -0.274338
C86   C     C_R   0.213014 0.266452 0.724155 -0.333043
C87   C     C_R   0.634237 0.168503 0.586331 -0.298301
C88   C     C_R   0.620785 0.821245 0.572986 -0.278275
C89   C     C_R   0.128610 0.672301 0.583295 -0.293054
C90   C     C_R   0.134372 0.331182 0.585770 -0.301033
C91   C     C_R   0.348216 0.809511 0.304976 0.235986
C92   C     C_R   0.229836 0.733183 0.532651 -0.014395
C93   C     C_R   0.384616 0.220935 0.336154 0.290889
C94   C     C_R   0.852195 0.305632 0.308315 0.234403
C95   C     C_R   0.857560 0.698014 0.316482 0.293717
C96   C     C_R   0.290702 0.761866 0.272348 0.363527
C97   C     C_R   0.340591 0.283769 0.314342 0.250732
C98   C     C_R   0.796665 0.255427 0.276972 0.363625
C99   C     C_R   0.787488 0.720435 0.273770 0.218337
C100  C     C_R   0.256489 0.728264 0.346888 0.406255
C101  C     C_R   0.289710 0.301492 0.379620 0.397902
C102  C     C_R   0.764533 0.220549 0.352524 0.414569
C103  C     C_R   0.241757 0.273514 0.545943 0.030237
C104  C     C_R   0.733936 0.713835 0.336922 0.448591
C105  C     C_R   0.272252 0.751265 0.455494 -0.169904
C106  C     C_R   0.291324 0.262546 0.475969 -0.064643
C107  C     C_R   0.780283 0.244416 0.460630 -0.174515
C108  C     C_R   0.754886 0.715121 0.449469 -0.075193
C109  C     C_R   0.335106 0.792324 0.489049 -0.132319
C110  C     C_R   0.349372 0.215344 0.508817 -0.202962
C111  C     C_R   0.841717 0.287822 0.493232 -0.131573
C112  C     C_R   0.825471 0.695347 0.491289 -0.209681
C113  C     C_3   0.584697 0.251769 0.791698 0.148485
C114  C     C_R   0.765864 0.237566 0.646992 -0.052353
C115  C     C_3   0.546492 0.245757 0.886546 -0.766978
C116  C     C_3   0.608330 0.814771 0.846152 0.133269
C117  C     C_3   0.548804 0.832372 0.907737 -0.840290
C118  C     C_3   0.074975 0.751881 0.788968 0.138044
C119  C     C_3   0.037297 0.742274 0.883753 -0.801084
C120  C     C_3   0.124057 0.304467 0.867067 0.113471
C121  C     C_3   0.069441 0.328684 0.933588 -0.829840
C122  C     C_3   0.289699 0.021632 0.036762 0.223505
C123  C     C_3   0.275878 0.027046 0.150632 -0.921322
C124  C     C_3   0.790002 0.516493 0.037509 0.233805
H1    H     H_    0.345345 0.990385 0.675544 0.169407
H2    H     H_    0.513690 0.296054 0.892674 0.214378
H3    H     H_    0.450883 0.358662 0.289182 0.174917
H4    H     H_    0.381228 0.418223 0.324584 0.160771
H5    H     H_    0.349807 0.457739 0.136700 0.278743
H6    H     H_    0.442282 0.476331 0.191087 0.207420
H7    H     H_    0.419227 0.398575 0.101414 0.246786
H8    H     H_    0.737227 0.349704 0.163873 0.121951
H9    H     H_    0.671923 0.276969 0.130658 0.153598
H10   H     H_    0.720635 0.248829 0.968274 0.282554
H11   H     H_    0.696322 0.345447 0.973285 0.187901
H12   H     H_    0.789190 0.318068 0.003187 0.283888
H13   H     H_    0.511556 0.196468 0.878758 0.268218
H14   H     H_    0.843074 0.831841 0.196608 0.181901
H15   H     H_    0.754196 0.853018 0.222479 0.190591
H16   H     H_    0.705525 0.851197 0.035911 0.236080
H17   H     H_    0.785690 0.906310 0.052862 0.222552
H18   H     H_    0.786769 0.813107 0.001002 0.271218
H19   H     H_    0.456318 0.763841 0.685428 0.373555
H20   H     H_    0.448043 0.162438 0.722702 0.375656
H21   H     H_    0.966519 0.273634 0.694356 0.359626
H22   H     H_    0.931918 0.690097 0.716448 0.375566
H23   H     H_    0.656564 0.993314 0.379592 0.384487
H24   H     H_    0.646201 0.861757 0.854438 0.152931
H25   H     H_    0.156650 0.492821 0.379103 0.393777
H26   H     H_    0.635233 0.764934 0.883657 0.138512
H27   H     H_    0.519157 0.781013 0.918465 0.251410
H28   H     H_    0.571225 0.856535 0.986738 0.206638
H29   H     H_    0.510744 0.871808 0.863369 0.275507
H30   H     H_    0.035747 0.771185 0.719934 0.176766
H31   H     H_    0.115647 0.795958 0.810617 0.114713
H32   H     H_    0.076942 0.739399 0.958142 0.247559
H33   H     H_    0.845427 0.489424 0.675664 0.163029
H34   H     H_    0.001587 0.790223 0.890229 0.214654
H35   H     H_    0.005288 0.690731 0.875360 0.261981
H36   H     H_    0.175771 0.330655 0.902534 0.146163
H37   H     H_    0.127402 0.243013 0.870920 0.141076
H38   H     H_    0.017302 0.301744 0.904284 0.257588
H39   H     H_    0.088927 0.312974 0.017026 0.213231
H40   H     H_    0.063050 0.389304 0.931094 0.255288
H41   H     H_    0.667044 0.139991 0.017677 0.384547
H42   H     H_    0.163615 0.642434 0.020341 0.389023
H43   H     H_    0.721371 0.018256 0.062226 0.334498
H44   H     H_    0.741721 0.234790 0.805481 0.222584
H45   H     H_    0.221006 0.518515 0.062431 0.332790
H46   H     H_    0.423350 0.990212 0.223572 0.386474
H47   H     H_    0.923129 0.488283 0.221873 0.384230
H48   H     H_    0.282705 0.962712 0.010698 0.162129
H49   H     H_    0.248649 0.057393 0.989769 0.191743
H50   H     H_    0.291290 0.082294 0.185911 0.242288
H51   H     H_    0.218088 0.018872 0.150860 0.210739
H52   H     H_    0.304886 0.983149 0.200300 0.275057
H53   H     H_    0.783001 0.458041 0.009297 0.157310
H54   H     H_    0.748755 0.552851 0.992060 0.197409
H55   H     H_    0.690263 0.710767 0.777560 0.160044
H56   H     H_    0.794027 0.573096 0.189895 0.252597
H57   H     H_    0.718834 0.512558 0.152260 0.211479
H58   H     H_    0.804808 0.473473 0.198498 0.269848
H59   H     H_    0.253782 0.904658 0.821874 0.158988
H60   H     H_    0.238091 0.949377 0.693626 0.158473
H61   H     H_    0.134320 0.016790 0.744657 0.273259
H62   H     H_    0.124441 0.917614 0.744591 0.205976
H63   H     H_    0.147772 0.967923 0.869079 0.236578
H64   H     H_    0.755038 0.399286 0.819312 0.157211
H65   H     H_    0.739428 0.446021 0.692501 0.157540
H66   H     H_    0.232861 0.744101 0.800913 0.222344
H67   H     H_    0.634993 0.511718 0.746243 0.275027
H68   H     H_    0.625434 0.412557 0.738551 0.202383
H69   H     H_    0.647660 0.458386 0.866795 0.236875
H70   H     H_    0.700616 0.982107 0.877462 0.111751
H71   H     H_    0.695800 0.066507 0.799876 0.234039
H72   H     H_    0.688681 0.991084 0.635202 0.249160
H73   H     H_    0.770473 0.982663 0.728608 0.223758
H74   H     H_    0.706493 0.909817 0.718231 0.237992
H75   H     H_    0.203744 0.489011 0.874474 0.121032
H76   H     H_    0.191426 0.575237 0.800606 0.230887
H77   H     H_    0.228079 0.249179 0.805100 0.164240
H78   H     H_    0.184277 0.498214 0.631531 0.249187
H79   H     H_    0.268829 0.510440 0.716668 0.216875
H80   H     H_    0.223750 0.425044 0.719453 0.246734
H81   H     H_    0.391445 0.818749 0.790990 0.339084
H82   H     H_    0.316074 0.173346 0.820069 0.351673
H83   H     H_    0.895209 0.317441 0.795576 0.331933
H84   H     H_    0.789686 0.657440 0.806984 0.366925
H85   H     H_    0.577247 0.210776 0.410063 0.365135
H86   H     H_    0.587018 0.809045 0.368018 0.352416
H87   H     H_    0.068918 0.711065 0.406756 0.361241
H88   H     H_    0.546681 0.273100 0.722682 0.178421
H89   H     H_    0.089551 0.294238 0.399114 0.327647
H90   H     H_    0.406152 0.727905 0.173213 0.174094
H91   H     H_    0.468187 0.757964 0.290134 0.112461
H92   H     H_    0.521977 0.846709 0.185862 0.260090
H93   H     H_    0.519393 0.757109 0.122212 0.200974
H94   H     H_    0.455177 0.827149 0.069384 0.273554
H95   H     H_    0.360455 0.202852 0.142251 0.167986
H96   H     H_    0.411604 0.120884 0.182326 0.203884
H97   H     H_    0.519889 0.178352 0.136050 0.253568
H98   H     H_    0.446964 0.178211 0.024563 0.237270
H99   H     H_    0.627861 0.293269 0.813277 0.108218
H100  H     H_    0.470280 0.262505 0.099892 0.251955
H101  H     H_    0.912899 0.225343 0.174197 0.177117
H102  H     H_    0.969833 0.251848 0.298023 0.104772
H103  H     H_    0.028863 0.344929 0.207160 0.271026
H104  H     H_    0.031524 0.255660 0.143337 0.193585
H105  H     H_    0.969158 0.325304 0.083012 0.273610
H106  H     H_    0.872876 0.696324 0.111784 0.212086
H107  H     H_    0.913263 0.618222 0.186702 0.197592
H108  H     H_    0.032222 0.672539 0.195531 0.278848
H109  H     H_    0.986467 0.667513 0.059412 0.221986
H110  H     H_    0.585785 0.241005 0.960993 0.235626
H111  H     H_    0.993391 0.754947 0.129790 0.255852
H112  H     H_    0.730465 0.124266 0.381017 0.370274
H113  H     H_    0.659387 0.698109 0.213150 0.359431
H114  H     H_    0.220986 0.632452 0.373024 0.377184
H115  H     H_    0.246041 0.379636 0.285803 0.387292
H116  H     H_    0.234861 0.857914 0.157546 0.126662
H117  H     H_    0.166747 0.787093 0.130999 0.155671
H118  H     H_    0.209544 0.753832 0.964989 0.286085
H119  H     H_    0.187515 0.851072 0.968366 0.189912
H120  H     H_    0.279927 0.821722 0.993227 0.281115
N1    N     N_R   0.552340 0.000000 0.237260 -0.262213
N2    N     N_R   0.052340 0.500000 0.237260 -0.265101
N3    N     N_R   0.448170 0.000000 0.762060 -0.124643
N4    N     N_R   0.948170 0.500000 0.762060 -0.113847
O1    O     O_R   0.448200 0.076800 0.373930 -0.635110
O2    O     O_R   0.585240 0.076800 0.457600 -0.623673
O3    O     O_R   0.085240 0.423200 0.457600 -0.638691
O4    O     O_R   0.085240 0.576800 0.457600 -0.626815
O5    O     O_R   0.551780 0.923190 0.626070 -0.472634
O6    O     O_R   0.551780 0.076810 0.626070 -0.494430
O7    O     O_R   0.051780 0.423190 0.626070 -0.456546
O8    O     O_R   0.051780 0.576810 0.626070 -0.501332
O9    O     O_3   0.611163 0.181609 0.766323 -0.548562
O10   O     O_3   0.578047 0.803065 0.738339 -0.570814
O11   O     O_3   0.105475 0.683852 0.763565 -0.555119
O12   O     O_R   0.448200 0.923200 0.373930 -0.599437
O13   O     O_3   0.102572 0.327486 0.761166 -0.553349
O14   O     O_3   0.658679 0.111446 0.949900 -0.770050
O15   O     O_3   0.156126 0.614665 0.951892 -0.771749
O16   O     O_3   0.713051 0.035051 0.132963 -0.676597
O17   O     O_3   0.212646 0.536601 0.132661 -0.684610
O18   O     O_3   0.434749 0.970050 0.156839 -0.690446
O19   O     O_3   0.935873 0.466152 0.157079 -0.687962
O20   O     O_3   0.358559 0.048773 0.029199 -0.627023
O21   O     O_3   0.858682 0.544339 0.030329 -0.626133
O22   O     O_3   0.271106 0.019389 0.824109 -0.645249
O23   O     O_R   0.948200 0.576800 0.373930 -0.652242
O24   O     O_3   0.770955 0.514227 0.825501 -0.649702
O25   O     O_3   0.602540 0.003460 0.777979 -0.557475
O26   O     O_3   0.103458 0.504525 0.778476 -0.547137
O27   O     O_3   0.352575 0.781678 0.781905 -0.801867
O28   O     O_3   0.351323 0.206844 0.796892 -0.801943
O29   O     O_3   0.860584 0.276050 0.786400 -0.801792
O30   O     O_3   0.824938 0.687650 0.778358 -0.798771
O31   O     O_3   0.628990 0.215666 0.408863 -0.711912
O32   O     O_3   0.639412 0.813488 0.390944 -0.701736
O33   O     O_3   0.120178 0.719825 0.405396 -0.716770
O34   O     O_R   0.948200 0.423200 0.373930 -0.593078
O35   O     O_3   0.142180 0.293015 0.405071 -0.717114
O36   O     O_3   0.387567 0.833542 0.230718 -0.544015
O37   O     O_3   0.440191 0.209382 0.280898 -0.604959
O38   O     O_3   0.891586 0.329235 0.234019 -0.540985
O39   O     O_3   0.916074 0.717186 0.271294 -0.608970
O40   O     O_3   0.725452 0.157934 0.319709 -0.631370
O41   O     O_3   0.663407 0.702243 0.291335 -0.741765
O42   O     O_3   0.216015 0.666880 0.312648 -0.641645
O43   O     O_3   0.246848 0.363376 0.359644 -0.692576
O44   O     O_3   0.269618 0.745847 0.165829 -0.555132
O45   O     O_R   0.414750 0.076790 0.542400 -0.600198
O46   O     O_3   0.346380 0.326879 0.227680 -0.620906
O47   O     O_3   0.775396 0.238470 0.170808 -0.554601
O48   O     O_3   0.769839 0.744909 0.170722 -0.642955
O49   O     O_3   0.440591 0.795110 0.622652 -0.732654
O50   O     O_3   0.443985 0.187534 0.653707 -0.747713
O51   O     O_3   0.947654 0.298140 0.626416 -0.747513
O52   O     O_3   0.922625 0.698336 0.639208 -0.759372
O53   O     O_3   0.676667 0.003999 0.316359 -0.721222
O54   O     O_3   0.176088 0.509371 0.317740 -0.711271
O55   O     O_R   0.414750 0.923210 0.542400 -0.593904
O56   O     O_R   0.914750 0.576790 0.542400 -0.591442
O57   O     O_R   0.914750 0.423210 0.542400 -0.598773
O58   O     O_R   0.585240 0.923200 0.457600 -0.638649
Zn1   Zn    Zn3+2 0.522330 0.000000 0.387520 0.956624
Zn2   Zn    Zn3+2 0.022330 0.500000 0.387520 0.949271
Zn3   Zn    Zn3+2 0.477660 0.000000 0.612480 1.027832
Zn4   Zn    Zn3+2 0.977660 0.500000 0.612480 1.041199

loop_
_geom_bond_atom_site_label_1
_geom_bond_atom_site_label_2
_ccdc_geom_bond_type
C66   C68   A    
C57   C64   A    
H23   O53   S    
C38   O52   S    
C119  H32   S    
C20   H108  S    
C55   H33   S    
C93   C97   A    
H46   O18   S    
C43   C83   A    
C2    C84   A    
C98   O47   S    
C37   O12   A    
C12   H90   S    
C56   O22   S    
C10   H75   S    
C123  H50   S    
C22   H120  S    
C42   O35   S    
H114  O42   S    
C9    H72   S    
C26   H8    S    
H82   O28   S    
C94   O38   S    
C107  C111  A    
C70   C114  A    
C46   O13   S    
O56   Zn4   S    
C121  H38   S    
C17   H101  S    
C100  C105  A    
C51   C112  A    
C115  H2    S    
C74   C76   A    
C58   O5    A    
C27   H12   S    
C78   O18   S    
C23   H3    S    
C28   C29   S    
C54   N3    A    
C41   O33   S    
C70   C107  A    
H89   O35   S    
C63   C65   A    
C95   C99   A    
C25   H6    S    
O57   Zn4   S    
C121  H39   S    
C62   C89   S    
C6    H64   S    
C71   C73   A    
C68   C77   A    
C78   N1    A    
C27   H11   S    
C116  C117  S    
C104  O41   S    
C8    H71   S    
C24   C86   A    
C102  O40   S    
C35   O50   S    
C118  C119  S    
C113  H99   S    
C100  O42   S    
C91   C96   A    
C67   N3    A    
C32   O29   S    
C48   C51   S    
C19   C20   S    
C48   O23   A    
C8    C9    S    
C65   C67   A    
C79   O19   S    
C14   H93   S    
H47   O19   S    
H87   O33   S    
C5    H61   S    
C37   C47   S    
C23   O46   S    
C45   C89   A    
C63   O20   S    
C124  H54   S    
C8    O25   S    
C120  O13   S    
C50   C59   S    
O55   Zn3   S    
O45   Zn3   S    
C104  C108  A    
C62   O4    A    
C99   C104  A    
C81   C108  A    
C25   H5    S    
C30   O27   S    
C61   O7    A    
C21   C22   S    
C42   C103  A    
C80   N1    A    
C60   O2    A    
C73   C75   A    
C83   C114  A    
C7    H67   S    
C16   H97   S    
C28   H15   S    
C113  O9    S    
C5    H62   S    
C10   O26   S    
H115  O43   S    
C118  H31   S    
C31   O28   S    
C77   O26   S    
C116  H26   S    
C22   H119  S    
C19   H106  S    
C60   C87   S    
C9    H73   S    
C80   O53   S    
C45   O11   S    
C75   O15   S    
C33   O30   S    
C4    O22   S    
O2    Zn1   S    
C52   O16   S    
C54   H1    S    
C54   C56   A    
C124  O21   S    
O4    Zn2   S    
C82   N2    A    
O12   Zn1   S    
O5    Zn3   S    
C97   O46   S    
C79   N2    A    
C115  H13   S    
C13   C30   A    
C91   O36   S    
C28   H14   S    
N2    Zn2   S    
O1    Zn1   S    
C99   O48   S    
C10   C11   S    
C116  H24   S    
O7    Zn4   S    
C30   C34   A    
C50   C94   A    
C36   O51   S    
O6    Zn3   S    
C118  O11   S    
C57   O24   S    
C48   O56   A    
C85   H66   S    
C98   C102  A    
C121  H40   S    
C6    O24   S    
C18   H103  S    
C68   N4    A    
C71   C79   A    
C108  C112  A    
C10   H76   S    
C53   C82   A    
C42   C90   A    
C11   H78   S    
C64   C66   A    
C103  C106  A    
N1    Zn1   S    
C84   H55   S    
H84   O30   S    
C3    H56   S    
H20   O50   S    
C52   C72   A    
C82   O54   S    
O34   Zn2   S    
C3    H57   S    
C17   H102  S    
C11   H80   S    
C66   C71   A    
O58   Zn1   S    
C61   C90   S    
C20   H109  S    
C61   O3    A    
C20   H111  S    
C29   H17   S    
C21   H116  S    
C36   C111  A    
C60   O6    A    
C17   C18   S    
C26   C27   S    
C56   C63   A    
C14   H92   S    
C102  C107  A    
C117  H27   S    
C21   O44   S    
C11   H79   S    
H42   O15   S    
C4    H60   S    
C8    H70   S    
C75   C77   A    
C86   H77   S    
C124  H53   S    
C35   C110  A    
C18   H104  S    
C120  H37   S    
C12   O36   S    
H112  O40   S    
C3    C124  S    
C74   O14   S    
C2    C33   A    
C72   C74   A    
C59   O34   A    
C12   C14   S    
O3    Zn2   S    
C118  H30   S    
C122  H48   S    
C55   N4    A    
C55   C57   A    
C13   C92   A    
C117  H29   S    
C31   C35   A    
C7    H68   S    
C16   H100  S    
C59   O57   A    
C7    H69   S    
C5    H63   S    
C15   H95   S    
C95   O39   S    
C32   C36   A    
C22   H118  S    
C69   C72   A    
C116  O10   S    
C9    H74   S    
H19   O49   S    
C101  O43   S    
C21   H117  S    
C106  C110  A    
C62   O8    A    
C101  C106  A    
C65   C69   A    
C29   H16   S    
C105  C109  A    
C23   H4    S    
O23   Zn2   S    
C41   C89   A    
H41   O14   S    
C27   H10   S    
C47   C91   A    
C40   C81   A    
C53   C73   A    
H83   O29   S    
C96   O44   S    
C113  H88   S    
C38   C112  A    
C44   C84   A    
C18   H105  S    
C58   C88   S    
C16   H98   S    
C123  H51   S    
H21   O51   S    
C6    C7    S    
C46   C90   A    
H22   O52   S    
C37   O55   A    
C122  H49   S    
C83   H44   S    
H81   O27   S    
C49   C93   A    
H45   O17   S    
C33   C38   A    
C12   H91   S    
C1    O45   A    
C45   C85   A    
C24   C103  A    
C32   C114  A    
C40   C88   A    
C15   H96   S    
C24   C31   A    
C43   C87   A    
C58   O58   A    
C26   H9    S    
H85   O31   S    
C19   O39   S    
C93   O37   S    
C17   O38   S    
C113  C115  S    
C34   O49   S    
N4    Zn4   S    
C47   C109  A    
C19   H107  S    
C119  H34   S    
C53   O17   S    
C29   H18   S    
C96   C100  A    
C6    H65   S    
C50   C111  A    
C39   C70   A    
C76   O25   S    
C15   O37   S    
C117  H28   S    
C1    O1    A    
H43   O16   S    
C23   C25   S    
C4    H59   S    
C26   O47   S    
C3    H58   S    
H86   O32   S    
N3    Zn3   S    
C64   O21   S    
C94   C98   A    
C44   O10   S    
C39   O31   S    
C92   C105  A    
C4    C5    S    
C41   C92   A    
O8    Zn4   S    
C122  O20   S    
C40   O32   S    
C119  H35   S    
H25   O54   S    
C44   C88   A    
C13   C85   A    
C120  H36   S    
C34   C109  A    
C28   O48   S    
C120  C121  S    
C14   H94   S    
C2    C81   A    
H113  O41   S    
C67   C76   A    
C43   O9    S    
C69   C78   A    
C122  C123  S    
C52   C80   A    
C1    C49   S    
C115  H110  S    
C97   C101  A    
C39   C87   A    
C15   C16   S    
C51   C95   A    
C49   C110  A    
C46   C86   A    
C123  H52   S    
C25   H7    S    
