data_mof_unit_10415.cif
_audit_creation_date              2012-12-10T17:04:05-0500
_audit_creation_method            fapswitch 2.2
_symmetry_space_group_name_H-M    P1
_symmetry_Int_Tables_number       1
_space_group_crystal_system       triclinic
_cell_length_a                    18.303813
_cell_length_b                    18.896921
_cell_length_c                    18.640406
_cell_angle_alpha                 109.53051
_cell_angle_beta                  108.271342
_cell_angle_gamma                 108.61726
_cell_volume                      5081.25332706

loop_
_atom_site_label
_atom_site_type_symbol
_atom_type_description
_atom_site_fract_x
_atom_site_fract_y
_atom_site_fract_z
_atom_type_partial_charge
C1    C     C_R   0.992268 0.112462 0.619643 0.952191
C2    C     C_R   0.252507 0.265369 0.662444 -0.206178
C3    C     C_R   0.942937 0.083550 0.752035 0.014449
C4    C     C_R   0.120446 0.119707 0.499703 0.906528
C5    C     C_R   0.909067 0.075303 0.808074 -0.182372
C6    C     C_R   0.932219 0.146280 0.880962 -0.324677
C7    C     C_R   0.988380 0.227395 0.897886 0.579232
C8    C     C_R   0.995212 0.237006 0.826910 0.005704
C9    C     C_R   0.978667 0.165067 0.754737 -0.077548
C10   C     C_R   0.992389 0.177800 0.687373 -0.138706
C11   C     C_R   0.017125 0.257835 0.689730 -0.084065
C12   C     C_R   0.185280 0.185697 0.424910 -0.066671
C13   C     C_R   0.035427 0.328300 0.762106 -0.136290
C14   C     C_R   0.018071 0.316432 0.826971 -0.188467
C15   C     C_R   0.890519 0.723951 0.474272 -0.169493
C16   C     C_R   0.002814 0.881353 0.380734 0.837441
C17   C     C_R   0.902130 0.654638 0.474539 -0.133580
C18   C     C_R   0.846756 0.596799 0.488262 -0.131618
C19   C     C_R   0.777511 0.606195 0.498187 -0.158024
C20   C     C_R   0.762264 0.673923 0.494386 0.105228
C21   C     C_R   0.822513 0.736498 0.487755 0.063498
C22   C     C_R   0.812805 0.809576 0.494391 -0.090583
C23   C     C_R   0.314560 0.322461 0.509917 -0.127626
C24   C     C_R   0.739331 0.816558 0.498885 0.024898
C25   C     C_R   0.677685 0.751167 0.498599 -0.304838
C26   C     C_R   0.689383 0.681943 0.498452 -0.089123
C27   C     C_R   0.170137 0.885481 0.395641 -0.264792
C28   C     C_R   0.879765 0.878665 0.498373 0.938844
C29   C     C_R   0.247738 0.883574 0.403989 -0.289477
C30   C     C_R   0.246201 0.812330 0.345418 0.595342
C31   C     C_R   0.165823 0.746700 0.275931 -0.201758
C32   C     C_R   0.086449 0.748507 0.265182 0.062029
C33   C     C_R   0.088061 0.817221 0.327386 0.126170
C34   C     C_R   0.324064 0.323010 0.589356 -0.057061
C35   C     C_R   0.007349 0.815972 0.317543 -0.039243
C36   C     C_R   0.927974 0.748279 0.248257 -0.193310
C37   C     C_R   0.926819 0.681790 0.187039 -0.222026
C38   C     C_R   0.005072 0.682759 0.193894 -0.033666
C39   C     C_R   0.624097 0.502433 0.619196 0.930813
C40   C     C_R   0.132013 0.112434 0.341099 -0.000548
C41   C     C_R   0.383802 0.381992 0.505894 0.999981
C42   C     C_R   0.386281 0.507694 0.380949 0.911245
C43   C     C_R   0.622375 0.618722 0.500822 0.839583
C44   C     C_R   0.880226 0.500341 0.880776 0.933008
C45   C     C_R   0.254373 0.258425 0.584752 0.003651
C46   C     C_R   0.006398 0.381097 0.884660 0.922438
C47   C     C_R   0.119749 0.501719 0.121715 1.007891
C48   C     C_R   0.000805 0.618794 0.121951 0.913662
C49   C     C_R   0.747375 0.439041 0.582316 -0.233546
C50   C     C_R   0.796889 0.399549 0.563756 0.560853
C51   C     C_R   0.846582 0.385266 0.626468 -0.192309
C52   C     C_R   0.120949 0.122510 0.267839 -0.210880
C53   C     C_R   0.852874 0.417420 0.708220 -0.180806
C54   C     C_R   0.805964 0.460871 0.728328 0.008612
C55   C     C_R   0.748157 0.467495 0.663502 0.022038
C56   C     C_R   0.188341 0.187676 0.502651 -0.113889
C57   C     C_R   0.694603 0.503304 0.683527 -0.166119
C58   C     C_R   0.705082 0.537675 0.767478 -0.256806
C59   C     C_R   0.766858 0.537273 0.832341 0.496413
C60   C     C_R   0.815137 0.497320 0.811999 -0.183219
C61   C     C_R   0.315731 0.632529 0.426019 -0.145355
C62   C     C_R   0.264578 0.667020 0.448658 -0.357751
C63   C     C_R   0.178675 0.637991 0.387316 0.538500
C64   C     C_R   0.159174 0.202872 0.275056 -0.048093
C65   C     C_R   0.148140 0.576983 0.301980 0.392086
C66   C     C_R   0.204163 0.548582 0.277079 -0.104255
C67   C     C_R   0.397242 0.385885 0.673256 0.454394
C68   C     C_R   0.283494 0.567207 0.341625 0.022672
C69   C     C_R   0.328094 0.520869 0.318213 -0.258411
C70   C     C_R   0.310067 0.480341 0.231657 0.557380
C71   C     C_R   0.240883 0.475358 0.168979 -0.295024
C72   C     C_R   0.186010 0.504893 0.190407 -0.167168
C73   C     C_R   0.212370 0.274824 0.357882 0.017432
C74   C     C_R   0.237308 0.262232 0.431315 0.056289
C75   C     C_3   0.251684 0.332498 0.825448 -0.275432
C76   C     C_2   0.951559 0.008729 0.706458 0.422707
C77   C     C_3   0.049676 0.275017 0.046915 -0.269203
C78   C     C_R   0.397467 0.381284 0.747175 -0.303787
C79   C     C_2   0.079824 0.415485 0.773201 0.405244
C80   C     C_2   0.724168 0.891244 0.507361 0.448468
C81   C     C_2   0.099555 0.024258 0.327683 0.456523
C82   C     C_3   0.389582 0.848208 0.433700 -0.322885
C83   C     C_3   0.869759 0.383529 0.482449 -0.311171
C84   C     C_3   0.827005 0.659981 0.956906 -0.327959
C85   C     C_3   0.431929 0.505585 0.215674 -0.266647
C86   C     C_3   0.158239 0.735867 0.486639 -0.330879
C87   C     C_3   0.009036 0.476208 0.246661 -0.196967
C88   C     C_2   0.144239 0.207581 0.194322 0.315100
C89   C     C_R   0.323561 0.326418 0.743273 0.494088
C90   C     C_2   0.224019 0.360074 0.368437 0.380274
C91   C     C_3   0.484680 0.531155 0.743426 -0.240071
C92   C     C_2   0.023747 0.269175 0.616290 0.480599
H1    H     H_    0.874974 0.013600 0.802663 0.196800
H2    H     H_    0.308502 0.938149 0.456544 0.149563
H3    H     H_    0.166650 0.692985 0.231800 0.169352
H4    H     H_    0.864759 0.630750 0.132462 0.171854
H5    H     H_    0.664814 0.564786 0.783529 0.191278
H6    H     H_    0.710967 0.448276 0.531906 0.175757
H7    H     H_    0.083011 0.067002 0.204179 0.178687
H8    H     H_    0.880879 0.349693 0.612688 0.166676
H9    H     H_    0.893987 0.406949 0.755179 0.160630
H10   H     H_    0.382575 0.662353 0.474912 0.180611
H11   H     H_    0.293400 0.715908 0.514689 0.149274
H12   H     H_    0.912601 0.136274 0.927234 0.147288
H13   H     H_    0.227773 0.445074 0.102350 0.179327
H14   H     H_    0.454343 0.424940 0.809749 0.183055
H15   H     H_    0.196604 0.223362 0.662229 0.209767
H16   H     H_    0.196070 0.267129 0.791424 0.182241
H17   H     H_    0.232522 0.373500 0.800902 0.151362
H18   H     H_    0.267336 0.360246 0.894370 0.193012
H19   H     H_    0.013375 0.016173 0.709153 0.108336
H20   H     H_    0.070887 0.225071 0.035594 0.181535
H21   H     H_    0.989947 0.255394 0.054845 0.144801
H22   H     H_    0.101918 0.330945 0.109009 0.210442
H23   H     H_    0.934735 0.766562 0.462406 0.147999
H24   H     H_    0.139109 0.464373 0.832475 0.094167
H25   H     H_    0.658082 0.882706 0.486726 0.032886
H26   H     H_    0.129240 0.012523 0.379249 0.000815
H27   H     H_    0.366803 0.838052 0.479963 0.147442
H28   H     H_    0.425465 0.917249 0.455044 0.175142
H29   H     H_    0.436337 0.822578 0.433893 0.191484
H30   H     H_    0.883433 0.331144 0.485526 0.175791
H31   H     H_    0.924682 0.446797 0.536049 0.171964
H32   H     H_    0.865475 0.381995 0.421206 0.192112
H33   H     H_    0.893371 0.678357 0.962111 0.174212
H34   H     H_    0.954762 0.646274 0.464898 0.156000
H35   H     H_    0.835143 0.686663 0.023351 0.202326
H36   H     H_    0.794541 0.689054 0.923904 0.163990
H37   H     H_    0.475179 0.556877 0.283979 0.137773
H38   H     H_    0.413076 0.533301 0.173250 0.149096
H39   H     H_    0.470150 0.475480 0.195514 0.201354
H40   H     H_    0.215072 0.790762 0.497611 0.165912
H41   H     H_    0.176193 0.717447 0.537752 0.167852
H42   H     H_    0.108885 0.756984 0.490340 0.200063
H43   H     H_    0.010681 0.495781 0.310711 0.169639
H44   H     H_    0.027641 0.424470 0.231012 0.132651
H45   H     H_    0.856962 0.544074 0.490488 0.159821
H46   H     H_    0.940639 0.449778 0.197621 0.182019
H47   H     H_    0.085206 0.158645 0.134777 0.059492
H48   H     H_    0.214276 0.373102 0.314926 0.105819
H49   H     H_    0.528491 0.549072 0.810408 0.146299
H50   H     H_    0.423238 0.533365 0.738749 0.145382
H51   H     H_    0.518065 0.580918 0.729433 0.196901
H52   H     H_    0.983295 0.291347 0.583893 0.088857
H53   H     H_    0.736993 0.560636 0.509776 0.138686
H54   H     H_    0.620507 0.755204 0.500895 0.142133
H55   H     H_    0.866415 0.746702 0.241725 0.158181
H56   H     H_    0.176699 0.942011 0.443221 0.179200
O1    O     O_R   0.051710 0.091600 0.643330 -0.676795
O2    O     O_R   0.856640 0.448280 0.908400 -0.606001
O3    O     O_R   0.051720 0.460120 0.908370 -0.653901
O4    O     O_R   0.948270 0.091620 0.539910 -0.573316
O5    O     O_R   0.948290 0.356670 0.908380 -0.590312
O6    O     O_R   0.143340 0.551720 0.091580 -0.642523
O7    O     O_R   0.039910 0.448270 0.091590 -0.571938
O8    O     O_R   0.051690 0.643330 0.091600 -0.643427
O9    O     O_R   0.948270 0.539880 0.091610 -0.590004
O10   O     O_R   0.143340 0.091610 0.551710 -0.649187
O11   O     O_R   0.039890 0.091630 0.448290 -0.584849
O12   O     O_R   0.591640 0.448340 0.539940 -0.642561
O13   O     O_R   0.051730 0.908380 0.460090 -0.659670
O14   O     O_R   0.948290 0.908400 0.356670 -0.599798
O15   O     O_R   0.960110 0.908370 0.551710 -0.634319
O16   O     O_R   0.856660 0.908390 0.448290 -0.611837
O17   O     O_R   0.591600 0.551770 0.643360 -0.625163
O18   O     O_3   0.325957 0.329747 0.819591 -0.594234
O19   O     O_2   0.893624 0.936799 0.676984 -0.578133
O20   O     O_3   0.037136 0.297915 0.980775 -0.622560
O21   O     O_2   0.050828 0.433688 0.717475 -0.610896
O22   O     O_2   0.784104 0.963099 0.541034 -0.564209
O23   O     O_R   0.408370 0.460150 0.551730 -0.543658
O24   O     O_2   0.041019 0.963662 0.258157 -0.580404
O25   O     O_3   0.320436 0.804930 0.348835 -0.607425
O26   O     O_3   0.788845 0.370413 0.481156 -0.617860
O27   O     O_3   0.775860 0.570601 0.914857 -0.611125
O28   O     O_3   0.357636 0.442555 0.206815 -0.557028
O29   O     O_3   0.120503 0.665504 0.404269 -0.593535
O30   O     O_3   0.062757 0.546333 0.243208 -0.605989
O31   O     O_2   0.199628 0.262505 0.192087 -0.565317
O32   O     O_2   0.238155 0.415389 0.436086 -0.566012
O33   O     O_3   0.469521 0.450742 0.684295 -0.598544
O34   O     O_R   0.408410 0.356720 0.448320 -0.631131
O35   O     O_2   0.075716 0.256297 0.593249 -0.604098
O36   O     O_R   0.408360 0.551760 0.460120 -0.628080
O37   O     O_R   0.408400 0.448330 0.356700 -0.544775
O38   O     O_R   0.591600 0.643380 0.551740 -0.630950
O39   O     O_R   0.591640 0.539950 0.448320 -0.642341
O40   O     O_R   0.960070 0.551730 0.908390 -0.627664
Zn1   Zn    Zn3+2 0.069070 0.999990 0.569050 0.929754
Zn2   Zn    Zn3+2 0.930930 0.000010 0.430950 1.025456
Zn3   Zn    Zn3+2 0.499980 0.569110 0.569080 0.958284
Zn4   Zn    Zn3+2 0.500030 0.430990 0.430980 1.021236
Zn5   Zn    Zn3+2 0.069050 0.569070 0.999980 0.975092
Zn6   Zn    Zn3+2 0.930930 0.430930 0.000000 1.003506

loop_
_geom_bond_atom_site_label_1
_geom_bond_atom_site_label_2
_ccdc_geom_bond_type
C84   H36   S    
C66   C68   A    
C7    O20   S    
C63   C65   A    
C39   O17   A    
C12   C74   A    
C39   O12   A    
C27   C29   A    
C73   C74   A    
C35   C36   A    
C80   O22   D    
C86   H40   S    
C13   C79   S    
C7    C8    A    
C14   C46   S    
C54   C60   A    
C53   C54   A    
C27   C33   A    
C77   O20   S    
C41   O23   A    
C37   C38   A    
C47   O7    A    
C1    O4    A    
C36   C37   A    
C73   C90   S    
C59   O27   S    
C16   C35   S    
C29   H2    S    
C77   H21   S    
C17   H34   S    
C4    O11   A    
C65   O30   S    
C39   C57   S    
C2    H15   S    
C51   H8    S    
C85   O28   S    
C76   O19   D    
C18   C19   A    
C81   O24   D    
O38   Zn3   S    
O2    Zn6   S    
C2    C89   A    
O4    Zn2   S    
C67   O33   S    
C85   H37   S    
C49   H6    S    
C54   C55   A    
O6    Zn5   S    
C11   C92   S    
C86   H42   S    
C4    O10   A    
O5    Zn6   S    
C19   C20   A    
C45   C56   A    
C53   H9    S    
C27   H56   S    
C64   C73   A    
C71   H13   S    
C1    O1    A    
C70   C71   A    
C32   C38   A    
C83   H32   S    
C84   O27   S    
C9    C10   A    
C82   H29   S    
C38   C48   S    
C91   H50   S    
C84   H35   S    
C46   O3    A    
C48   O8    A    
C59   C60   A    
C78   C89   A    
C22   C28   S    
C13   C14   A    
C4    C56   S    
O11   Zn2   S    
C61   C62   A    
C67   C78   A    
O34   Zn4   S    
C82   H27   S    
O16   Zn2   S    
C40   C81   S    
C24   C80   S    
C26   C43   S    
C50   C51   A    
C91   H51   S    
C2    C45   A    
C89   O18   S    
C66   C72   A    
C75   H17   S    
O9    Zn6   S    
C87   H43   S    
C24   C25   A    
O12   Zn4   S    
O13   Zn1   S    
C52   C64   A    
O10   Zn1   S    
C90   O32   D    
C68   C69   A    
C43   O38   A    
C42   O36   A    
C25   C26   A    
C40   C52   A    
C81   H26   S    
C42   C69   S    
C44   O2    A    
C37   H4    S    
C51   C53   A    
C12   C40   A    
C18   H45   S    
C88   H47   S    
C29   C30   A    
C3    C9    A    
C77   H20   S    
C85   H38   S    
C36   H55   S    
C90   H48   S    
C31   C32   A    
C82   O25   S    
C43   O39   A    
C30   C31   A    
C23   C34   A    
C62   C63   A    
C17   C18   A    
C8    C9    A    
O36   Zn3   S    
O23   Zn3   S    
O15   Zn1   S    
C34   C45   A    
C19   H53   S    
C3    C76   S    
C58   H5    S    
O39   Zn4   S    
C12   C56   A    
C44   O40   A    
C82   H28   S    
C42   O37   A    
O40   Zn5   S    
C65   C66   A    
C6    H12   S    
C91   O33   S    
C15   H23   S    
C41   O34   A    
C23   C74   A    
C77   H22   S    
O14   Zn2   S    
C28   O16   A    
O37   Zn4   S    
C62   H11   S    
C84   H33   S    
C15   C17   A    
C46   O5    A    
C80   H25   S    
C75   H18   S    
C8    C14   A    
C30   O25   S    
C87   H44   S    
C1    C10   S    
C86   H41   S    
C3    C5    A    
C92   O35   D    
C63   O29   S    
C34   C67   A    
C5    H1    S    
C6    C7    A    
C47   O6    A    
C16   O13   A    
C48   O9    A    
C52   H7    S    
O1    Zn1   S    
C88   O31   D    
C23   C41   S    
C78   H14   S    
C50   O26   S    
C16   O14   A    
C32   C33   A    
O3    Zn5   S    
C55   C57   A    
O8    Zn5   S    
C58   C59   A    
C71   C72   A    
O7    Zn6   S    
C49   C55   A    
C85   H39   S    
C87   O30   S    
C79   H24   S    
C11   C13   A    
C61   C68   A    
C79   O21   D    
C57   C58   A    
C5    C6    A    
C15   C21   A    
C20   C26   A    
C44   C60   S    
C76   H19   S    
C31   H3    S    
C33   C35   A    
C61   H10   S    
C75   O18   S    
C22   C24   A    
C86   O29   S    
C83   H30   S    
C69   C70   A    
C92   H52   S    
C47   C72   S    
C10   C11   A    
C75   H16   S    
C25   H54   S    
C20   C21   A    
C49   C50   A    
C83   O26   S    
C87   H46   S    
O17   Zn3   S    
C21   C22   A    
C70   O28   S    
C64   C88   S    
C83   H31   S    
C28   O15   A    
C91   H49   S    
