data_mof_unit_67682.cif
_audit_creation_date              2012-12-10T19:48:29-0500
_audit_creation_method            fapswitch 2.2
_symmetry_space_group_name_H-M    P1
_symmetry_Int_Tables_number       1
_space_group_crystal_system       triclinic
_cell_length_a                    11.118798
_cell_length_b                    10.870695
_cell_length_c                    9.559584
_cell_angle_alpha                 95.254511
_cell_angle_beta                  91.414553
_cell_angle_gamma                 87.729187
_cell_volume                      1149.44134811

loop_
_atom_site_label
_atom_site_type_symbol
_atom_type_description
_atom_site_fract_x
_atom_site_fract_y
_atom_site_fract_z
_atom_type_partial_charge
C1    C     C_R   0.504102 0.259105 0.494267 0.817912
C2    C     C_R   0.493826 0.741172 0.505675 0.817921
C3    C     C_R   0.873378 0.497864 0.507257 -0.152946
C4    C     C_R   0.127407 0.504601 0.490635 -0.152618
C5    C     C_R   0.938161 0.582553 0.599102 -0.016190
C6    C     C_R   0.062247 0.415552 0.404850 -0.005791
C7    C     C_3   0.573719 0.049314 0.594378 0.158405
C8    C     C_3   0.420243 0.950939 0.404052 0.152808
C9    C     C_3   0.604692 0.943256 0.481223 -0.232308
C10   C     C_3   0.389448 0.057624 0.516630 -0.216884
C11   C     C_3   0.488441 0.880178 0.515404 -0.143609
C12   C     C_3   0.505746 0.120930 0.484151 -0.130867
C13   C     C_3   0.457655 0.987803 0.630387 0.192729
C14   C     C_3   0.535636 0.014664 0.369382 0.201916
C15   C     C_3   0.517905 0.608793 0.062814 -0.081752
C16   C     C_3   0.482452 0.392661 0.937421 -0.123185
C17   C     C_3   0.416911 0.572225 0.958492 0.301092
C18   C     C_3   0.584775 0.426680 0.042967 0.301678
C19   C     C_3   0.601620 0.535458 0.953632 -0.091721
C20   C     C_3   0.399980 0.463384 0.045610 -0.115089
C21   C     C_R   0.262269 0.501081 0.497287 0.833763
C22   C     C_R   0.738024 0.498692 0.502230 0.813870
C23   C     C_R   0.122242 0.450456 0.025483 -0.236082
C24   C     C_R   0.873601 0.493243 0.957056 -0.239615
C25   C     C_R   0.118357 0.474888 0.171266 -0.151016
C26   C     C_R   0.886158 0.489219 0.813390 -0.140008
C27   C     C_R   0.097043 0.379841 0.256550 0.115407
C28   C     C_R   0.902854 0.597423 0.748584 0.132233
C29   C     C_R   0.074873 0.261473 0.189842 -0.202795
C30   C     C_R   0.907233 0.710179 0.832938 -0.207259
C31   C     C_R   0.069399 0.240730 0.042491 0.236832
C32   C     C_R   0.899106 0.714041 0.980419 0.202784
C33   C     C_R   0.103525 0.333096 0.961482 -0.102159
C34   C     C_R   0.879557 0.604145 0.041544 -0.114250
C35   C     C_R   0.940071 0.402043 0.432937 0.049767
C36   C     C_R   0.062250 0.594279 0.576694 0.080247
Cu1   Cu    Cu3+1 0.500030 0.499990 0.643150 0.965419
Cu2   Cu    Cu3+1 0.499970 0.500010 0.356850 0.960086
H1    H     H_    0.097679 0.320537 0.847884 0.159125
H2    H     H_    0.872979 0.601424 0.153800 0.158779
H3    H     H_    0.536987 0.700405 0.117731 0.159641
H4    H     H_    0.462529 0.302435 0.881282 0.181119
H5    H     H_    0.672700 0.586259 0.909109 0.169239
H6    H     H_    0.330625 0.410295 0.089186 0.179445
H7    H     H_    0.125749 0.524577 0.959602 0.168875
H8    H     H_    0.868799 0.407540 0.002196 0.177013
H9    H     H_    0.124866 0.569575 0.216244 0.147705
H10   H     H_    0.888207 0.399631 0.753694 0.164703
H11   H     H_    0.050022 0.188341 0.250352 0.167290
H12   H     H_    0.922005 0.793949 0.785077 0.154867
H13   H     H_    0.695015 0.896875 0.467871 0.171367
H14   H     H_    0.299367 0.104951 0.528505 0.178911
N1    N     N_3   0.500090 0.499970 0.858290 -0.182736
N2    N     N_3   0.499910 0.500030 0.141710 -0.180996
O1    O     O_R   0.500060 0.316850 0.620870 -0.584056
O2    O     O_R   0.499940 0.683150 0.379130 -0.589546
O3    O     O_R   0.500000 0.316860 0.379090 -0.570642
O4    O     O_R   0.500000 0.683140 0.620910 -0.576508
O5    O     O_R   0.319670 0.500010 0.620890 -0.568956
O6    O     O_R   0.680330 0.499990 0.379110 -0.581960
O7    O     O_R   0.319620 0.500010 0.379110 -0.587354
O8    O     O_R   0.680380 0.499990 0.620890 -0.577188
C37   C     C_3   0.309460 0.655167 0.927485 -0.455306
C38   C     C_3   0.344794 0.782444 0.903980 -0.736975
H15   H     H_    0.386933 0.782554 0.801422 0.311095
H16   H     H_    0.261605 0.841243 0.905258 0.268654
H17   H     H_    0.406777 0.821281 0.987478 0.264517
H18   H     H_    0.256535 0.614642 0.836899 0.256391
H19   H     H_    0.253228 0.666212 0.022551 0.189588
C39   C     C_3   0.657701 0.306038 0.060242 -0.446023
C40   C     C_3   0.744386 0.304335 0.183344 -0.703870
H20   H     H_    0.793374 0.390758 0.200647 0.253319
H21   H     H_    0.695816 0.286617 0.278046 0.303646
H22   H     H_    0.810697 0.226427 0.162785 0.245134
H23   H     H_    0.594072 0.231565 0.068026 0.255231
H24   H     H_    0.708839 0.282025 0.962740 0.179182
C41   C     C_3   0.997078 0.137517 0.973132 -0.502760
C42   C     C_3   0.066640 0.055547 0.863877 -0.741932
H25   H     H_    0.101764 0.109442 0.781694 0.285800
H26   H     H_    0.141221 0.007416 0.916845 0.269646
H27   H     H_    0.006177 0.986150 0.811851 0.254847
H28   H     H_    0.963580 0.080507 0.052964 0.213070
H29   H     H_    0.917389 0.179342 0.920520 0.213419
C43   C     C_3   0.919736 0.834823 0.067111 -0.439134
C44   C     C_3   0.918659 0.831077 0.226774 -0.785599
H30   H     H_    0.829902 0.802287 0.260340 0.263235
H31   H     H_    0.991263 0.766992 0.261794 0.248055
H32   H     H_    0.934788 0.924882 0.278409 0.277241
H33   H     H_    0.009045 0.866480 0.039833 0.210746
H34   H     H_    0.849766 0.903214 0.037129 0.237623
I1    I     I_    0.894051 0.220359 0.470513 -0.565392
I2    I     I_    0.138945 0.769450 0.622430 -0.535737
C45   C     C_3   0.663406 0.098678 0.707412 -0.346938
C46   C     C_3   0.724856 0.993754 0.780433 -0.808983
H35   H     H_    0.657905 0.930848 0.816097 0.289899
H36   H     H_    0.787552 0.940501 0.707230 0.249419
H37   H     H_    0.775970 0.032702 0.873509 0.247314
H38   H     H_    0.731533 0.152087 0.661328 0.229969
H39   H     H_    0.615771 0.162544 0.785658 0.222775
C47   C     C_3   0.326480 0.894455 0.300003 -0.365737
C48   C     C_3   0.259499 0.992418 0.221200 -0.793746
H40   H     H_    0.211329 0.059095 0.296651 0.252901
H41   H     H_    0.322728 0.042503 0.160928 0.297896
H42   H     H_    0.192524 0.947622 0.147599 0.241340
H43   H     H_    0.371300 0.825644 0.224195 0.222365
H44   H     H_    0.260523 0.845731 0.357905 0.226835
I3    I     I_    0.385741 0.053614 0.829577 -0.538723
I4    I     I_    0.608211 0.996904 0.165047 -0.531155

loop_
_geom_bond_atom_site_label_1
_geom_bond_atom_site_label_2
_ccdc_geom_bond_type
C18   C39   S    
C4    C36   A    
C45   C46   S    
C23   H7    S    
C16   H4    S    
C27   C29   A    
C9    H13   S    
C13   I3    S    
C10   H14   S    
Cu1   O8    S    
C29   H11   S    
C41   C42   S    
C15   C19   S    
C47   H43   S    
C48   H40   S    
C34   H2    S    
C24   C26   A    
C21   O5    A    
C22   O6    A    
C42   H26   S    
C41   H29   S    
Cu2   O3    S    
C5    C36   A    
C17   C20   S    
C6    C35   A    
C7    C9    S    
C18   C19   S    
C16   N1    S    
C37   H19   S    
C23   C33   A    
C31   C33   A    
C39   C40   S    
C45   H39   S    
C21   O7    A    
Cu1   O4    S    
C26   H10   S    
Cu2   O7    S    
Cu1   N1    S    
C19   N1    S    
C14   I4    S    
C30   H12   S    
C48   H41   S    
C1    C12   S    
C43   H34   S    
C32   C43   S    
C2    C11   S    
C20   H6    S    
C19   H5    S    
C31   C41   S    
C44   H31   S    
C7    C12   S    
C7    C45   S    
C15   N2    S    
C43   C44   S    
C15   H3    S    
C4    C6    A    
C40   H21   S    
C42   H25   S    
C46   H37   S    
C44   H30   S    
C24   C34   A    
C32   C34   A    
C9    C14   S    
C38   H17   S    
Cu1   Cu2   S    
C1    O3    A    
C22   O8    A    
C5    C28   S    
C6    C27   S    
Cu2   N2    S    
C3    C35   A    
C16   C20   S    
C16   C18   S    
C33   H1    S    
C46   H36   S    
C9    C11   S    
Cu1   O5    S    
C10   C12   S    
Cu2   O6    S    
C20   N2    S    
C12   C14   S    
C48   H42   S    
C39   H24   S    
C43   H33   S    
C17   N1    S    
C44   H32   S    
C15   C17   S    
C25   H9    S    
C37   H18   S    
C8    C14   S    
C47   H44   S    
C3    C5    A    
C10   C13   S    
C40   H22   S    
C2    O4    A    
C25   C27   A    
C26   C28   A    
C24   H8    S    
C38   H15   S    
C28   C30   A    
C8    C47   S    
C40   H20   S    
C29   C31   A    
C2    O2    A    
C17   C37   S    
C30   C32   A    
C4    C21   S    
C11   C13   S    
C42   H27   S    
C36   I2    S    
C41   H28   S    
C8    C11   S    
C47   C48   S    
C23   C25   A    
C1    O1    A    
C46   H35   S    
C18   N2    S    
C37   C38   S    
Cu1   O1    S    
C7    C13   S    
Cu2   O2    S    
C8    C10   S    
C39   H23   S    
C3    C22   S    
C45   H38   S    
C38   H16   S    
C35   I1    S    
