data_mof_unit_38510.cif
_audit_creation_date              2012-12-10T20:44:47-0500
_audit_creation_method            fapswitch 2.2
_symmetry_space_group_name_H-M    P1
_symmetry_Int_Tables_number       1
_space_group_crystal_system       triclinic
_cell_length_a                    9.882399
_cell_length_b                    10.675583
_cell_length_c                    16.638915
_cell_angle_alpha                 88.969689
_cell_angle_beta                  95.0104
_cell_angle_gamma                 89.664547
_cell_volume                      1748.37271985

loop_
_atom_site_label
_atom_site_type_symbol
_atom_type_description
_atom_site_fract_x
_atom_site_fract_y
_atom_site_fract_z
_atom_type_partial_charge
C1    C     C_R   0.499840 0.259980 0.497196 0.890642
C2    C     C_R   0.643730 0.493535 0.788367 -0.248336
C3    C     C_R   0.551315 0.619583 0.143274 -0.153022
C4    C     C_R   0.555293 0.603468 0.226019 -0.271416
C5    C     C_R   0.462501 0.547003 0.092714 0.266080
C6    C     C_R   0.470309 0.516209 0.259506 -0.094162
C7    C     C_R   0.377881 0.446326 0.209621 0.236821
C8    C     C_R   0.374464 0.462898 0.126298 -0.206962
C9    C     C_R   0.619672 0.063344 0.480728 0.152511
C10   C     C_R   0.498040 0.128972 0.483155 -0.108760
C11   C     C_R   0.373908 0.066362 0.469052 -0.184066
C12   C     C_R   0.518228 0.503113 0.653513 0.866844
C13   C     C_R   0.373474 0.936763 0.468923 -0.222456
C14   C     C_R   0.497187 0.871638 0.482691 -0.115564
C15   C     C_R   0.619211 0.935495 0.480336 0.143574
C16   C     C_3   0.746939 0.925047 0.535223 -0.472617
C17   C     C_3   0.746955 0.066826 0.536103 -0.508698
C18   C     C_R   0.081461 0.528749 0.567889 0.162472
C19   C     C_R   0.061756 0.481274 0.430815 -0.111842
C20   C     C_R   0.918105 0.481719 0.430739 -0.126878
C21   C     C_R   0.939282 0.525133 0.568567 0.137974
C22   C     C_3   0.951410 0.453800 0.647822 -0.090035
C23   C     C_R   0.499204 0.740046 0.496900 0.875594
C24   C     C_3   0.104995 0.463198 0.647404 -0.475256
C25   C     C_R   0.481706 0.501425 0.346391 0.921611
C26   C     C_R   0.530428 0.533516 0.738320 -0.057184
C27   C     C_R   0.434103 0.613808 0.767482 -0.246575
C28   C     C_R   0.446271 0.649180 0.847985 0.182970
C29   C     C_R   0.557281 0.602070 0.899098 0.270372
C30   C     C_R   0.657219 0.528057 0.868560 -0.203261
H1    H     H_    0.625334 0.659116 0.264115 0.168561
H2    H     H_    0.276985 0.888627 0.464148 0.176051
H3    H     H_    0.730891 0.881275 0.594794 0.202575
H4    H     H_    0.832336 0.884860 0.504527 0.209218
H5    H     H_    0.729521 0.104703 0.596099 0.201180
H6    H     H_    0.832824 0.108627 0.506310 0.211620
H7    H     H_    0.107366 0.464499 0.375290 0.194242
H8    H     H_    0.856627 0.465228 0.375045 0.168827
H9    H     H_    0.910788 0.508308 0.696820 0.162580
H10   H     H_    0.150766 0.525895 0.694610 0.173990
H11   H     H_    0.619433 0.686887 0.119201 0.161410
H12   H     H_    0.159972 0.372713 0.642927 0.221290
H13   H     H_    0.741678 0.491626 0.908186 0.156030
H14   H     H_    0.719441 0.433258 0.765889 0.158559
H15   H     H_    0.306578 0.406793 0.087236 0.170510
H16   H     H_    0.350807 0.650979 0.727218 0.155104
H17   H     H_    0.277585 0.116103 0.464198 0.184328
N1    N     N_2   0.559230 0.610714 0.983005 -0.209537
N2    N     N_2   0.463888 0.549868 0.008077 -0.174801
N3    N     N_R   0.142860 0.499130 0.500540 -0.106089
N4    N     N_R   0.857210 0.499170 0.500530 -0.113332
O1    O     O_R   0.614690 0.316790 0.499990 -0.625699
O2    O     O_R   0.385350 0.316760 0.500000 -0.608887
O3    O     O_R   0.627460 0.498860 0.616130 -0.631601
O4    O     O_R   0.398120 0.498820 0.616130 -0.619120
O5    O     O_R   0.614650 0.683240 0.500000 -0.614334
O6    O     O_R   0.385310 0.683210 0.500010 -0.622147
O7    O     O_R   0.601880 0.501180 0.383870 -0.628383
O8    O     O_R   0.372540 0.501140 0.383870 -0.590832
Zn1   Zn    Zn3+2 0.653130 0.500020 0.499990 0.933993
Zn2   Zn    Zn3+2 0.346870 0.499980 0.500010 0.958019
C31   C     C_3   0.900451 0.317958 0.642663 -0.326029
C32   C     C_3   0.940470 0.243293 0.720460 -0.910096
H18   H     H_    0.052392 0.231293 0.729823 0.269178
H19   H     H_    0.904521 0.291303 0.773310 0.258336
H20   H     H_    0.894039 0.148926 0.716584 0.249636
H21   H     H_    0.788356 0.318509 0.632111 0.236905
H22   H     H_    0.942255 0.270000 0.591368 0.210086
Br1   Br    Br    0.263828 0.320135 0.251332 -0.556686
C33   C     C_3   0.341624 0.737259 0.877600 -0.414301
C34   C     C_3   0.204372 0.673370 0.881419 -0.837193
H23   H     H_    0.162035 0.646448 0.820241 0.242317
H24   H     H_    0.214852 0.588415 0.921022 0.272029
H25   H     H_    0.131878 0.739019 0.906336 0.250155
H26   H     H_    0.375283 0.773018 0.938315 0.224604
H27   H     H_    0.329248 0.820284 0.836268 0.197360

loop_
_geom_bond_atom_site_label_1
_geom_bond_atom_site_label_2
_ccdc_geom_bond_type
C32   H19   S    
C18   C21   A    
C24   H12   S    
C13   H2    S    
C11   H17   S    
C19   C20   A    
C7    C8    A    
O3    Zn1   S    
C26   C27   A    
C29   C30   A    
C31   H21   S    
C18   C24   S    
C28   C29   A    
C20   N4    A    
C6    C25   S    
O7    Zn1   S    
C15   C16   S    
C1    O2    A    
C8    H15   S    
C19   H7    S    
C16   H4    S    
O2    Zn2   S    
C2    H14   S    
C16   C17   S    
C33   C34   S    
C17   H6    S    
O1    Zn1   S    
C9    C10   A    
C32   H20   S    
C13   C14   A    
C5    N2    S    
O8    Zn2   S    
C29   N1    S    
C12   O4    A    
C23   O5    A    
C4    C6    A    
C34   H24   S    
O5    Zn1   S    
C12   C26   S    
C14   C23   S    
C31   C32   S    
C16   H3    S    
C22   C31   S    
C20   H8    S    
C2    C26   A    
C27   H16   S    
C9    C17   S    
N1    N2    D    
C33   H27   S    
C22   C24   S    
C30   H13   S    
C5    C8    A    
C25   O7    A    
C3    C4    A    
C21   N4    A    
C18   N3    A    
C23   O6    A    
C3    H11   S    
C28   C33   S    
C1    C10   S    
C3    C5    A    
C7    Br1   S    
C34   H25   S    
O6    Zn2   S    
C6    C7    A    
C25   O8    A    
C31   H22   S    
C2    C30   A    
C9    C15   A    
C34   H23   S    
C11   C13   A    
C19   N3    A    
C22   H9    S    
O4    Zn2   S    
C24   H10   S    
C1    O1    A    
C4    H1    S    
C10   C11   A    
C32   H18   S    
C33   H26   S    
C27   C28   A    
N3    Zn2   S    
C14   C15   A    
N4    Zn1   S    
C17   H5    S    
C21   C22   S    
C12   O3    A    
