data_mof_unit_18064.cif
_audit_creation_date              2012-12-11T15:52:14-0500
_audit_creation_method            fapswitch 2.2
_symmetry_space_group_name_H-M    P1
_symmetry_Int_Tables_number       1
_space_group_crystal_system       triclinic
_cell_length_a                    11.110507
_cell_length_b                    11.085536
_cell_length_c                    18.795467
_cell_angle_alpha                 89.982713
_cell_angle_beta                  90.151915
_cell_angle_gamma                 119.99379
_cell_volume                      2004.93210202

loop_
_atom_site_label
_atom_site_type_symbol
_atom_type_description
_atom_site_fract_x
_atom_site_fract_y
_atom_site_fract_z
_atom_type_partial_charge
C1    C     C_R   0.520630 0.454116 0.146299 0.543065
C2    C     C_R   0.548679 0.072193 0.144644 0.542365
C3    C     C_R   0.926891 0.476052 0.144360 0.544141
C4    C     C_R   0.457977 0.520396 0.852417 0.532664
C5    C     C_R   0.062164 0.542001 0.852412 0.531215
C6    C     C_R   0.479726 0.937208 0.852608 0.537787
C7    C     C_3   0.746280 0.137265 0.559497 -0.292861
C8    C     C_3   0.784312 0.495170 0.554208 -0.293714
C9    C     C_3   0.392601 0.246980 0.555324 -0.283444
C10   C     C_3   0.776046 0.507786 0.474834 -0.233733
C11   C     C_3   0.766377 0.145503 0.479425 -0.244556
C12   C     C_3   0.379745 0.228750 0.474405 -0.236253
C13   C     C_R   0.516672 0.459046 0.351844 0.537576
C14   C     C_R   0.542368 0.059445 0.352413 0.541356
C15   C     C_R   0.940569 0.482601 0.352782 0.543821
C16   C     C_R   0.457458 0.523234 0.645423 0.565529
C17   C     C_R   0.063962 0.541255 0.645715 0.569388
C18   C     C_R   0.475501 0.932010 0.644605 0.570068
C19   C     C_R   0.501367 0.005672 0.921133 0.014251
C20   C     C_R   0.992502 0.494425 0.920583 0.012982
C21   C     C_R   0.495408 0.505633 0.924301 0.013681
C22   C     C_R   0.953651 0.483992 0.068409 0.021317
C23   C     C_R   0.529886 0.044757 0.068843 0.018161
C24   C     C_R   0.500714 0.475571 0.072395 0.023953
C25   C     C_R   0.386877 0.977602 0.963933 0.007956
C26   C     C_R   0.017886 0.405685 0.963432 0.004937
C27   C     C_R   0.541557 0.620245 0.970257 0.021368
C28   C     C_R   0.997113 0.399349 0.036204 -0.001349
C29   C     C_R   0.401372 0.998954 0.036638 -0.000851
C30   C     C_R   0.543170 0.605838 0.043059 -0.012587
C31   C     C_R   0.648351 0.093712 0.025140 -0.154475
C32   C     C_R   0.905951 0.554614 0.024469 -0.146963
C33   C     C_R   0.442516 0.357814 0.027189 -0.144383
C34   C     C_R   0.924578 0.559444 0.950972 -0.162210
C35   C     C_R   0.634351 0.075779 0.951574 -0.169364
C36   C     C_R   0.439844 0.372695 0.953872 -0.166452
C37   C     C_3   0.250364 0.846322 0.972324 -0.238183
C38   C     C_3   0.147185 0.397201 0.972077 -0.240108
C39   C     C_3   0.674546 0.756494 0.971933 -0.260747
C40   C     C_3   0.123299 0.389135 0.051694 -0.281210
C41   C     C_3   0.266320 0.870835 0.051956 -0.281723
C42   C     C_3   0.672073 0.743127 0.052536 -0.283178
C43   C     C_R   0.477735 0.982615 0.572822 0.014595
C44   C     C_R   0.011038 0.493162 0.574240 -0.000628
C45   C     C_R   0.499495 0.520898 0.572787 0.014516
C46   C     C_R   0.990057 0.503327 0.425562 0.008287
C47   C     C_R   0.514142 0.014470 0.425201 0.016591
C48   C     C_R   0.493684 0.491792 0.422992 0.012710
C49   C     C_R   0.598690 0.086575 0.544857 -0.071111
C50   C     C_R   0.934655 0.545854 0.544388 -0.050265
C51   C     C_R   0.447602 0.395608 0.540242 -0.047813
C52   C     C_R   0.925207 0.551029 0.471911 -0.021421
C53   C     C_R   0.616829 0.098567 0.473418 -0.022997
C54   C     C_R   0.434423 0.381011 0.469941 -0.006135
C55   C     C_R   0.379300 0.928033 0.451059 0.108694
C56   C     C_R   0.069278 0.447651 0.453800 0.103656
C57   C     C_R   0.557032 0.627769 0.452008 0.103177
C58   C     C_R   0.072577 0.434065 0.529131 0.145099
C59   C     C_R   0.359516 0.916660 0.526216 0.147420
C60   C     C_R   0.565033 0.642982 0.528114 0.146972
Cr1   Cr    Cr6+3 0.769160 0.541570 0.250690 0.979059
Cr2   Cr    Cr6+3 0.458430 0.227590 0.250690 0.985700
Cr3   Cr    Cr6+3 0.772410 0.230840 0.250690 0.985759
Cr4   Cr    Cr6+3 0.541570 0.769160 0.749310 1.006908
Cr5   Cr    Cr6+3 0.227590 0.458430 0.749310 1.001102
Cr6   Cr    Cr6+3 0.230840 0.772410 0.749310 1.002222
H1    H     H_    0.751628 0.141244 0.047915 0.150470
H2    H     H_    0.858631 0.610132 0.047044 0.136916
H3    H     H_    0.403957 0.254027 0.048206 0.151283
H4    H     H_    0.897964 0.624391 0.919250 0.125562
H5    H     H_    0.725983 0.104166 0.919848 0.133226
H6    H     H_    0.393185 0.280603 0.920480 0.132023
H7    H     H_    0.254749 0.752278 0.955861 0.150052
H8    H     H_    0.241370 0.494896 0.955555 0.151886
H9    H     H_    0.660495 0.843521 0.953453 0.165004
H10   H     H_    0.096951 0.286444 0.074679 0.142404
H11   H     H_    0.188858 0.895312 0.074887 0.140255
H12   H     H_    0.760588 0.735937 0.074853 0.143526
H13   H     H_    0.163010 0.855567 0.949406 0.147044
H14   H     H_    0.136224 0.299788 0.949139 0.149815
H15   H     H_    0.761836 0.750728 0.946587 0.124481
H16   H     H_    0.204547 0.481167 0.081078 0.133152
H17   H     H_    0.278890 0.790645 0.081324 0.132642
H18   H     H_    0.650808 0.819352 0.079978 0.145846
H19   H     H_    0.794580 0.238698 0.586773 0.130792
H20   H     H_    0.766912 0.568443 0.585424 0.135980
H21   H     H_    0.292761 0.200081 0.583293 0.135559
H22   H     H_    0.708243 0.407023 0.447522 0.146544
H23   H     H_    0.825393 0.250884 0.458616 0.168725
H24   H     H_    0.454600 0.203982 0.450534 0.163968
H25   H     H_    0.763741 0.059699 0.586119 0.159879
H26   H     H_    0.723249 0.386885 0.573493 0.133174
H27   H     H_    0.472547 0.228831 0.580063 0.135964
H28   H     H_    0.765152 0.596943 0.458353 0.161647
H29   H     H_    0.794062 0.069691 0.457995 0.137904
H30   H     H_    0.270969 0.167642 0.455330 0.125401
O1    O     O_R   0.911480 0.572650 0.170990 -0.533877
O2    O     O_R   0.427350 0.338830 0.170990 -0.530274
O3    O     O_R   0.661170 0.088520 0.170990 -0.532762
O4    O     O_R   0.572650 0.911480 0.829010 -0.532014
O5    O     O_R   0.338830 0.427350 0.829010 -0.532635
O6    O     O_R   0.088520 0.661170 0.829010 -0.534434
O7    O     O_R   0.640340 0.528970 0.175680 -0.507318
O8    O     O_R   0.471030 0.111370 0.175680 -0.501674
O9    O     O_R   0.888630 0.359660 0.175680 -0.502262
O10   O     O_R   0.528970 0.640340 0.824320 -0.505597
O11   O     O_R   0.111370 0.471030 0.824320 -0.507288
O12   O     O_R   0.359660 0.888630 0.824320 -0.506942
O13   O     O_R   0.909980 0.572450 0.331530 -0.532380
O14   O     O_R   0.427550 0.337530 0.331530 -0.529846
O15   O     O_R   0.662470 0.090020 0.331530 -0.527799
O16   O     O_R   0.572450 0.909980 0.668470 -0.507464
O17   O     O_R   0.337530 0.427550 0.668470 -0.509013
O18   O     O_R   0.090020 0.662470 0.668470 -0.505140
O19   O     O_R   0.638950 0.528780 0.324500 -0.512499
O20   O     O_R   0.471220 0.110170 0.324500 -0.511820
O21   O     O_R   0.889830 0.361050 0.324500 -0.511177
O22   O     O_R   0.528780 0.638950 0.675500 -0.486378
O23   O     O_R   0.110170 0.471220 0.675500 -0.484924
O24   O     O_R   0.361050 0.889830 0.675500 -0.488475
O25   O     O_3   0.666667 0.333333 0.250560 -0.249983
O26   O     O_3   0.333333 0.666667 0.749440 -0.252235
N1    N     N_2   0.269960 0.841167 0.402964 -0.521988
H31   H     H_    0.303431 0.810725 0.358920 0.246391
C61   C     C_3   0.172501 0.887004 0.384593 -0.302364
H32   H     H_    0.108959 0.826612 0.338231 0.159053
H33   H     H_    0.227150 0.998515 0.369549 0.155711
H34   H     H_    0.100234 0.868250 0.429041 0.141350
N2    N     N_2   0.145794 0.408390 0.407462 -0.515436
H35   H     H_    0.181087 0.468235 0.362035 0.251104
C62   C     C_3   0.085433 0.260999 0.392466 -0.316439
H36   H     H_    0.984818 0.219201 0.364350 0.167471
H37   H     H_    0.069135 0.200533 0.441638 0.130296
H38   H     H_    0.156863 0.244567 0.358002 0.154615
N3    N     N_2   0.604973 0.745662 0.405996 -0.515645
H39   H     H_    0.547495 0.724918 0.359820 0.251232
C63   C     C_3   0.753166 0.825706 0.392560 -0.318590
H40   H     H_    0.791501 0.761651 0.366850 0.172411
H41   H     H_    0.775360 0.913671 0.356455 0.144586
H42   H     H_    0.812400 0.870173 0.442068 0.126847
N4    N     N_2   0.142092 0.367358 0.559134 -0.451081
H43   H     H_    0.211699 0.363174 0.525543 0.283376
C64   C     C_3   0.055994 0.234703 0.594252 -0.274199
H44   H     H_    0.001717 0.150387 0.554698 0.091544
H45   H     H_    0.980913 0.238837 0.631047 0.153528
H46   H     H_    0.120134 0.207744 0.628268 0.142931
N5    N     N_2   0.224226 0.832564 0.553761 -0.451509
H47   H     H_    0.162376 0.754012 0.519691 0.277738
C65   C     C_3   0.157453 0.908265 0.578885 -0.271531
H48   H     H_    0.147668 0.970724 0.535683 0.095516
H49   H     H_    0.216147 0.977522 0.623871 0.157906
H50   H     H_    0.051641 0.834028 0.598171 0.147390
N6    N     N_2   0.642494 0.778176 0.558697 -0.454841
H51   H     H_    0.646981 0.855724 0.527004 0.275497
C66   C     C_3   0.777142 0.810653 0.587367 -0.291915
H52   H     H_    0.839843 0.794802 0.546652 0.105903
H53   H     H_    0.765530 0.746416 0.634684 0.161954
H54   H     H_    0.836882 0.919631 0.605612 0.104942

loop_
_geom_bond_atom_site_label_1
_geom_bond_atom_site_label_2
_ccdc_geom_bond_type
C64   H46   S    
C45   C60   A    
C55   C59   A    
C66   H53   S    
N1    H31   S    
Cr6   O6    S    
N5    H47   S    
C9    C51   S    
Cr5   O5    S    
C62   H38   S    
Cr1   O13   S    
C16   O17   A    
N3    H39   S    
C21   C36   A    
C3    O9    A    
C31   H1    S    
C6    C19   S    
C37   H13   S    
C10   H22   S    
C22   C32   A    
Cr4   O26   S    
C45   C51   A    
C23   C29   A    
C12   H24   S    
N5    C65   S    
C18   O16   A    
C65   H49   S    
C41   H11   S    
Cr3   O21   S    
C14   O20   A    
Cr4   O16   S    
C10   H28   S    
C11   H29   S    
C64   H44   S    
C41   H17   S    
C46   C52   A    
C33   C36   A    
Cr4   O22   S    
Cr1   O25   S    
C3    O1    A    
C60   N6    S    
Cr3   O3    S    
C25   C37   S    
Cr2   O2    S    
N4    H43   S    
C44   C58   A    
C38   H14   S    
Cr1   O19   S    
C61   H34   S    
C50   C52   A    
Cr6   O26   S    
C8    H26   S    
C39   H9    S    
Cr3   O9    S    
C1    O7    A    
C56   N2    S    
C11   C53   S    
C43   C59   A    
C47   C53   A    
C20   C34   A    
C21   C27   A    
C35   H5    S    
C22   C28   A    
C27   C30   A    
C37   C41   S    
C30   C42   S    
Cr3   O25   S    
C17   O18   A    
C39   C42   S    
Cr2   O8    S    
C56   C58   A    
C25   C29   A    
C14   O15   A    
Cr1   O7    S    
C63   H42   S    
C55   N1    S    
C40   H16   S    
C48   C57   A    
C42   H18   S    
C7    C49   S    
C65   H50   S    
C27   C39   S    
C5    C20   S    
C34   H4    S    
C26   C38   S    
C57   C60   A    
C23   C31   A    
C9    H27   S    
C4    O10   A    
C40   H10   S    
C32   C34   A    
C48   C54   A    
C7    C11   S    
Cr2   O20   S    
C13   O14   A    
C16   O22   A    
C63   H41   S    
C10   C52   S    
C11   H23   S    
Cr2   O14   S    
C2    O8    A    
C7    H25   S    
C4    O5    A    
Cr5   O23   S    
Cr1   O1    S    
Cr5   O26   S    
C39   H15   S    
C13   O19   A    
C12   H30   S    
C2    O3    A    
C42   H12   S    
C15   O13   A    
C61   H32   S    
N3    C63   S    
C31   C35   A    
N6    C66   S    
C62   H36   S    
C18   O24   A    
C2    C23   S    
C47   C55   A    
N2    H35   S    
C5    O11   A    
C44   C50   A    
C64   H45   S    
C37   H7    S    
C5    O6    A    
C6    O12   A    
Cr6   O18   S    
C29   C41   S    
Cr5   O17   S    
C43   C49   A    
Cr6   O12   S    
C62   H37   S    
C16   C45   S    
C13   C48   S    
Cr4   O10   S    
C14   C47   S    
C33   H3    S    
C63   H40   S    
C26   C28   A    
C24   C33   A    
C32   H2    S    
C51   C54   A    
N4    C64   S    
C1    O2    A    
C19   C35   A    
C65   H48   S    
C9    H21   S    
C38   C40   S    
C4    C21   S    
C58   N4    S    
C7    H19   S    
C20   C26   A    
C49   C53   A    
C38   H8    S    
C8    C50   S    
C8    H20   S    
Cr3   O15   S    
C19   C25   A    
C9    C12   S    
C24   C30   A    
C17   C44   S    
N1    C61   S    
C17   O23   A    
C15   O21   A    
Cr4   O4    S    
C1    C24   S    
C8    C10   S    
C46   C56   A    
C66   H52   S    
C61   H33   S    
C28   C40   S    
C57   N3    S    
C3    C22   S    
Cr6   O24   S    
C15   C46   S    
N2    C62   S    
N6    H51   S    
C18   C43   S    
Cr5   O11   S    
Cr2   O25   S    
C12   C54   S    
C36   H6    S    
C6    O4    A    
C66   H54   S    
C59   N5    S    
