data_mof_unit_47420.cif
_audit_creation_date              2012-12-11T16:14:38-0500
_audit_creation_method            fapswitch 2.2
_symmetry_space_group_name_H-M    P1
_symmetry_Int_Tables_number       1
_space_group_crystal_system       triclinic
_cell_length_a                    13.553979
_cell_length_b                    13.558906
_cell_length_c                    28.448147
_cell_angle_alpha                 90.393126
_cell_angle_beta                  90.295691
_cell_angle_gamma                 60.152402
_cell_volume                      4534.50486128

loop_
_atom_site_label
_atom_site_type_symbol
_atom_type_description
_atom_site_fract_x
_atom_site_fract_y
_atom_site_fract_z
_atom_type_partial_charge
C1    C     C_R   0.279598 0.620613 0.566508 0.543699
C2    C     C_1   0.649611 0.655969 0.652259 -0.064766
C3    C     C_1   0.633690 0.229562 0.611545 -0.013746
C4    C     C_R   0.621933 0.601178 0.566649 0.545149
C5    C     C_R   0.774483 0.128342 0.722473 -0.117128
C6    C     C_R   0.785149 0.114891 0.771289 -0.117740
C7    C     C_R   0.580141 0.203085 0.778248 -0.113902
C8    C     C_R   0.569522 0.216474 0.729576 -0.115028
C9    C     C_R   0.666558 0.178698 0.701578 0.033071
C10   C     C_R   0.687828 0.152676 0.799216 0.031926
C11   C     C_1   0.698622 0.129751 0.848703 -0.063971
C12   C     C_1   0.639701 0.635263 0.611985 -0.015202
C13   C     C_1   0.652843 0.200799 0.652017 -0.061609
C14   C     C_1   0.707732 0.102164 0.889288 -0.014259
C15   C     C_1   0.232454 0.636605 0.612601 -0.013381
C16   C     C_R   0.600801 0.279043 0.565888 0.544278
C17   C     C_R   0.129640 0.606148 0.724438 -0.123229
C18   C     C_R   0.117273 0.610846 0.773217 -0.133481
C19   C     C_R   0.221548 0.713958 0.779834 0.034285
C20   C     C_R   0.233717 0.708235 0.730780 -0.094765
C21   C     C_R   0.187218 0.655475 0.703202 0.020217
C22   C     C_R   0.162456 0.664678 0.801062 0.045590
C23   C     C_3   0.772068 0.629114 0.762017 -0.100070
C24   C     C_1   0.137480 0.678067 0.850532 -0.064874
C25   C     C_1   0.206220 0.646346 0.653398 -0.062450
C26   C     C_1   0.107633 0.696695 0.890904 -0.019589
C27   C     C_1   0.636154 0.631845 0.388078 -0.009267
C28   C     C_R   0.276614 0.621035 0.434516 0.546205
C29   C     C_R   0.710718 0.560191 0.270259 -0.113098
C30   C     C_R   0.714678 0.565955 0.221067 0.068224
C31   C     C_R   0.602299 0.773067 0.227226 -0.140144
C32   C     C_R   0.598976 0.765470 0.276012 -0.113343
C33   C     C_R   0.653818 0.659101 0.297536 0.010019
C34   C     C_3   0.667524 0.687968 0.794568 0.035628
C35   C     C_R   0.659537 0.674479 0.199522 0.012925
C36   C     C_1   0.672261 0.688355 0.150221 -0.003251
C37   C     C_1   0.645403 0.648815 0.347331 -0.054642
C38   C     C_1   0.691044 0.700721 0.110056 0.026962
C39   C     C_1   0.633939 0.226392 0.388881 -0.011903
C40   C     C_R   0.620336 0.600373 0.434066 0.543470
C41   C     C_R   0.672190 0.080807 0.280033 -0.125913
C42   C     C_R   0.676792 0.067179 0.231437 -0.118108
C43   C     C_R   0.674481 0.246351 0.222082 -0.111712
C44   C     C_R   0.670437 0.259763 0.270706 -0.099238
C45   C     C_3   0.714872 0.569709 0.736171 -0.112746
C46   C     C_R   0.669328 0.176954 0.299527 0.025863
C47   C     C_R   0.677545 0.150143 0.202623 0.021125
C48   C     C_1   0.685811 0.132364 0.153212 -0.056530
C49   C     C_1   0.654135 0.197557 0.348691 -0.063899
C50   C     C_1   0.696465 0.105493 0.112701 -0.001794
C51   C     C_1   0.225087 0.637765 0.389783 -0.011952
C52   C     C_R   0.600372 0.277257 0.433845 0.544282
C53   C     C_R   0.106282 0.756278 0.280490 -0.092374
C54   C     C_R   0.092224 0.768186 0.231669 0.027231
C55   C     C_R   0.214359 0.561918 0.223624 -0.088504
C56   C     C_3   0.657252 0.671730 0.702629 0.038318
C57   C     C_R   0.229970 0.550331 0.272491 0.029506
C58   C     C_R   0.173894 0.649472 0.300517 0.019545
C59   C     C_R   0.147180 0.668972 0.203626 0.020563
C60   C     C_1   0.129574 0.676389 0.154030 -0.064691
C61   C     C_1   0.195678 0.645104 0.349739 -0.069531
C62   C     C_1   0.102908 0.693168 0.113574 -0.008466
C63   C     C_R   0.720836 0.054882 0.935172 0.545681
C64   C     C_3   0.713792 0.731014 0.728019 0.059074
C65   C     C_R   0.730636 0.717913 0.932121 0.546256
C66   C     C_R   0.057495 0.729255 0.936473 0.543498
C67   C     C_3   0.610840 0.628473 0.769393 -0.120514
C68   C     C_R   0.714439 0.056313 0.067330 0.547855
C69   C     C_R   0.725605 0.717290 0.064827 0.547372
C70   C     C_R   0.054189 0.727375 0.068405 0.545360
C71   C     C_3   0.609939 0.789720 0.760974 0.060966
C72   C     C_1   0.698630 0.703049 0.885943 -0.015274
C73   C     C_3   0.545296 0.913135 0.778244 -0.272801
C74   C     C_3   0.490843 0.996684 0.737852 -0.439047
C75   C     C_3   0.269865 0.774697 0.808356 -0.278183
C76   C     C_3   0.179382 0.898147 0.817565 -0.432188
C77   C     C_2   0.777643 0.457673 0.193945 0.551864
C78   C     C_3   0.552592 0.730419 0.735131 -0.103269
C79   C     C_3   0.777249 0.781583 0.702373 -0.277975
C80   C     C_3   0.825215 0.834841 0.736316 -0.432607
C81   C     C_3   0.019843 0.883887 0.208519 -0.272594
C82   C     C_3   0.976030 0.987400 0.241114 -0.435138
C83   C     C_3   0.306309 0.435673 0.295706 -0.268967
C84   C     C_3   0.361702 0.332774 0.262667 -0.441503
C85   C     C_1   0.680222 0.694997 0.845197 -0.066004
Cr1   Cr    Cr6+3 0.413560 0.417690 0.499580 1.029794
Cr2   Cr    Cr6+3 0.418030 0.668340 0.500400 1.032380
Cr3   Cr    Cr6+3 0.668390 0.413960 0.499990 1.034177
Cr4   Cr    Cr6+3 0.919710 0.916540 0.003080 1.034120
Cr5   Cr    Cr6+3 0.665300 0.919470 0.999630 1.030862
Cr6   Cr    Cr6+3 0.916060 0.665490 0.000390 1.045149
H1    H     H_    0.485585 0.256613 0.713770 0.113883
H2    H     H_    0.674664 0.310616 0.199770 0.153620
H3    H     H_    0.666132 0.335410 0.285805 0.123986
H4    H     H_    0.066836 0.829615 0.303548 0.119363
H5    H     H_    0.254139 0.488701 0.200519 0.121387
H6    H     H_    0.462846 0.772005 0.723021 0.096293
H7    H     H_    0.568581 0.586536 0.786965 0.114921
H8    H     H_    0.758350 0.478932 0.725290 0.118299
H9    H     H_    0.862159 0.587102 0.773752 0.100827
H10   H     H_    0.849947 0.099874 0.701145 0.109938
H11   H     H_    0.869026 0.073887 0.787152 0.110258
H12   H     H_    0.094308 0.564288 0.703364 0.111543
H13   H     H_    0.504575 0.230823 0.799451 0.112366
H14   H     H_    0.556923 0.994822 0.714476 0.160861
H15   H     H_    0.433856 0.975997 0.717087 0.148693
H16   H     H_    0.439534 0.084113 0.752246 0.137996
H17   H     H_    0.477330 0.922784 0.802680 0.142553
H18   H     H_    0.603803 0.933276 0.798107 0.151185
H19   H     H_    0.146515 0.943764 0.783775 0.144911
H20   H     H_    0.107576 0.902639 0.837941 0.167051
H21   H     H_    0.217228 0.941136 0.838065 0.141475
H22   H     H_    0.304659 0.730445 0.842267 0.152670
H23   H     H_    0.070525 0.574220 0.789215 0.106629
H24   H     H_    0.341935 0.773447 0.789406 0.129892
H25   H     H_    0.890880 0.289314 0.195261 0.337292
H26   H     H_    0.755538 0.912950 0.752460 0.164745
H27   H     H_    0.875814 0.774084 0.764469 0.156409
H28   H     H_    0.881260 0.858400 0.716885 0.150581
H29   H     H_    0.848605 0.712512 0.682333 0.142494
H30   H     H_    0.719288 0.846409 0.676874 0.145234
H31   H     H_    0.916949 0.986178 0.267655 0.163760
H32   H     H_    0.048135 0.989460 0.258893 0.155972
H33   H     H_    0.928901 0.066232 0.220110 0.163745
H34   H     H_    0.279152 0.745382 0.713988 0.103436
H35   H     H_    0.071392 0.894358 0.180803 0.160835
H36   H     H_    0.945544 0.885239 0.191121 0.155405
H37   H     H_    0.295730 0.322379 0.243587 0.155978
H38   H     H_    0.418517 0.341975 0.237268 0.162416
H39   H     H_    0.413916 0.254730 0.283563 0.156556
H40   H     H_    0.375479 0.440179 0.315040 0.156386
H41   H     H_    0.255087 0.419889 0.321833 0.158696
H42   H     H_    0.750908 0.478297 0.287601 0.150973
H43   H     H_    0.561698 0.856343 0.211069 0.112827
H44   H     H_    0.553767 0.842352 0.296878 0.116032
H45   H     H_    0.669605 0.017516 0.302233 0.113008
H46   H     H_    0.679712 0.992177 0.216308 0.112447
O1    O     O_R   0.503010 0.303330 0.550820 -0.507483
O2    O     O_R   0.827060 0.642880 0.947470 -0.504439
O3    O     O_R   0.013800 0.673690 0.954100 -0.495244
O4    O     O_R   0.320040 0.522690 0.547470 -0.494668
O5    O     O_R   0.031250 0.825430 0.055080 -0.509762
O6    O     O_R   0.814180 0.011990 0.050320 -0.493584
O7    O     O_R   0.640680 0.032900 0.051920 -0.507817
O8    O     O_R   0.671090 0.815590 0.046300 -0.502944
O9    O     O_R   0.822940 0.642440 0.050310 -0.488754
O10   O     O_R   0.009970 0.673280 0.049430 -0.492832
O11   O     O_3   0.833690 0.833830 0.001040 -0.256353
O12   O     O_R   0.522480 0.657560 0.452870 -0.494463
O13   O     O_R   0.303930 0.694040 0.551750 -0.507910
O14   O     O_R   0.523510 0.657900 0.548240 -0.495702
O15   O     O_R   0.694770 0.503160 0.551780 -0.506612
O16   O     O_R   0.657990 0.319990 0.547370 -0.494445
O17   O     O_R   0.501900 0.302960 0.447930 -0.509679
O18   O     O_R   0.319020 0.522350 0.452090 -0.498032
O19   O     O_R   0.302820 0.693680 0.448870 -0.505708
O20   O     O_2   0.761857 0.454756 0.151726 -0.518836
O21   O     O_R   0.854319 0.357579 0.217135 -0.725925
O22   O     O_R   0.693670 0.502790 0.448900 -0.505335
O23   O     O_R   0.656970 0.319650 0.452000 -0.494522
O24   O     O_3   0.499990 0.499990 0.499990 -0.252177
O25   O     O_R   0.035380 0.825870 0.952240 -0.509365
O26   O     O_R   0.818010 0.012400 0.954990 -0.494289
O27   O     O_R   0.644810 0.033340 0.949080 -0.507931
O28   O     O_R   0.674910 0.816000 0.950960 -0.497147

loop_
_geom_bond_atom_site_label_1
_geom_bond_atom_site_label_2
_ccdc_geom_bond_type
C84   H37   S    
Cr4   O11   S    
C29   H42   S    
C52   O23   A    
C23   C45   S    
C55   C59   A    
C81   H35   S    
C7    C10   A    
C69   O8    A    
C41   C42   A    
Cr4   O25   S    
C40   O22   A    
C35   C36   S    
C51   C61   T    
C75   C76   S    
C2    C12   T    
C18   H23   S    
Cr6   O10   S    
C72   C85   T    
C7    C8    A    
C53   C54   A    
H25   O21   S    
C79   H30   S    
C46   C49   S    
C66   O25   A    
C30   C35   A    
C24   C26   T    
Cr5   O8    S    
C5    C6    A    
C11   C14   T    
C15   C25   T    
C53   H4    S    
C52   O17   A    
Cr3   O24   S    
C65   O28   A    
C84   H38   S    
C56   C78   S    
C62   C70   S    
C68   O6    A    
C60   C62   T    
C73   C74   S    
C64   C71   S    
C84   H39   S    
C9    C13   S    
Cr5   O11   S    
C67   H7    S    
C74   H16   S    
C30   C77   S    
C83   C84   S    
C29   C33   A    
C8    C9    A    
Cr2   O13   S    
C45   C67   S    
C28   O18   A    
C27   C37   T    
C41   C46   A    
C57   C83   S    
C1    C15   S    
C4    C12   S    
C3    C13   T    
C39   C52   S    
C77   O21   S    
C71   C78   S    
C58   C61   S    
C48   C50   T    
C23   H9    S    
Cr6   O2    S    
C80   H28   S    
C59   C60   S    
Cr2   O14   S    
C81   H36   S    
C42   H46   S    
C69   O9    A    
Cr3   O15   S    
C67   C78   S    
C31   H43   S    
C82   H33   S    
Cr6   O11   S    
C44   C46   A    
C81   C82   S    
C5    H10   S    
C54   C59   A    
C63   O27   A    
C4    O15   A    
C80   H27   S    
C70   O5    A    
C26   C66   S    
C19   C22   A    
C1    O4    A    
C45   C56   S    
C45   H8    S    
C71   C73   S    
C75   H22   S    
C73   H17   S    
Cr4   O6    S    
C33   C37   S    
Cr6   O3    S    
Cr5   O27   S    
C34   C85   S    
C63   O26   A    
C43   C44   A    
C5    C9    A    
C29   C30   A    
C74   H15   S    
C47   C48   S    
C27   C40   S    
C76   H21   S    
C23   C34   S    
C79   H29   S    
C78   H6    S    
C56   C64   S    
C17   C18   A    
C1    O13   A    
Cr1   O24   S    
Cr3   O23   S    
C8    H1    S    
C76   H19   S    
C23   C64   S    
C39   C49   T    
C7    H13   S    
C55   C57   A    
Cr5   O28   S    
C64   C79   S    
C22   C24   S    
C75   H24   S    
C82   H32   S    
Cr1   O18   S    
C4    O14   A    
C21   C25   S    
C80   H26   S    
C54   C81   S    
Cr2   O24   S    
C28   C51   S    
C18   C22   A    
C31   C32   A    
C16   O1    A    
C55   H5    S    
C34   C67   S    
C6    C10   A    
C32   H44   S    
C53   C58   A    
C73   H18   S    
C65   C72   S    
C32   C33   A    
C19   C20   A    
C36   C38   T    
C83   H40   S    
Cr1   O17   S    
C20   H34   S    
C2    C56   S    
Cr3   O16   S    
C74   H14   S    
C57   C58   A    
C43   C47   A    
Cr3   O22   S    
C76   H20   S    
C14   C63   S    
C19   C75   S    
C43   H2    S    
C82   H31   S    
C40   O12   A    
C68   O7    A    
C31   C35   A    
C42   C47   A    
C41   H45   S    
C17   H12   S    
C17   C21   A    
C38   C69   S    
C44   H3    S    
C10   C11   S    
Cr1   O1    S    
C79   C80   S    
C65   O2    A    
C83   H41   S    
C66   O3    A    
C20   C21   A    
C6    H11   S    
Cr2   O12   S    
C16   O16   A    
C28   O19   A    
Cr2   O19   S    
C70   O10   A    
C50   C68   S    
C34   C71   S    
Cr4   O26   S    
Cr6   O9    S    
Cr5   O7    S    
C3    C16   S    
Cr4   O5    S    
Cr1   O4    S    
C77   O20   D    
