data_mof_unit_51272.cif
_audit_creation_date              2012-12-10T17:33:14-0500
_audit_creation_method            fapswitch 2.2
_symmetry_space_group_name_H-M    P1
_symmetry_Int_Tables_number       1
_space_group_crystal_system       triclinic
_cell_length_a                    15.464086
_cell_length_b                    15.518079
_cell_length_c                    17.72942
_cell_angle_alpha                 90.351261
_cell_angle_beta                  109.273764
_cell_angle_gamma                 68.724914
_cell_volume                      3711.05623981

loop_
_atom_site_label
_atom_site_type_symbol
_atom_type_description
_atom_site_fract_x
_atom_site_fract_y
_atom_site_fract_z
_atom_type_partial_charge
C1    C     C_R   0.465102 0.740488 0.531634 0.526467
C2    C     C_R   0.535550 0.367459 0.061962 0.006877
C3    C     C_R   0.598102 0.312516 0.021806 0.115640
C4    C     C_R   0.536597 0.258644 0.470743 0.499517
C5    C     C_R   0.603171 0.353872 0.953378 0.020391
C6    C     C_R   0.523024 0.436933 0.910211 -0.019436
C7    C     C_R   0.681886 0.312440 0.923666 0.135190
C8    C     C_R   0.669198 0.340565 0.843952 0.085651
C9    C     C_R   0.514994 0.466691 0.832504 -0.143695
C10   C     C_R   0.469151 0.935415 0.653995 0.013764
C11   C     C_R   0.452746 0.835307 0.548701 0.034045
C12   C     C_R   0.332130 0.669464 0.155113 0.102028
C13   C     C_R   0.578636 0.125710 0.393240 -0.103859
C14   C     C_R   0.587806 0.035618 0.377346 0.092747
C15   C     C_R   0.562999 0.981992 0.422977 -0.072185
C16   C     C_R   0.757877 0.447371 0.532363 0.506188
C17   C     C_R   0.527398 0.017990 0.484952 0.019358
C18   C     C_R   0.536142 0.102180 0.510008 0.021493
C19   C     C_R   0.492794 0.968439 0.527764 0.024343
C20   C     C_R   0.491052 0.991247 0.605665 0.047955
C21   C     C_R   0.514069 0.067550 0.634251 -0.131834
C22   C     C_R   0.534521 0.122618 0.587021 -0.105138
C23   C     C_R   0.463554 0.523544 0.156955 -0.168085
C24   C     C_R   0.460040 0.896951 0.496186 0.048064
C25   C     C_R   0.456522 0.854948 0.626333 -0.121252
C26   C     C_R   0.552353 0.160464 0.459211 0.001198
C27   C     C_R   0.033341 0.350422 0.631464 -0.128640
C28   C     C_R   0.241761 0.553086 0.469888 0.533187
C29   C     C_R   0.861754 0.426673 0.546809 0.034491
C30   C     C_R   0.067319 0.624151 0.380067 -0.107098
C31   C     C_R   0.977887 0.613089 0.345513 0.090899
C32   C     C_R   0.956809 0.547853 0.384148 0.029449
C33   C     C_R   0.014262 0.514408 0.467928 0.003741
C34   C     C_R   0.428393 0.532263 0.072365 -0.001967
C35   C     C_R   0.105632 0.526253 0.502347 0.009439
C36   C     C_R   0.986442 0.466897 0.518200 0.010985
C37   C     C_R   0.059078 0.409190 0.590002 0.034533
C38   C     C_R   0.151543 0.418476 0.621886 0.028318
C39   C     C_R   0.165695 0.488744 0.583626 0.111530
C40   C     C_R   0.560011 0.440495 0.712212 0.536811
C41   C     C_R   0.886965 0.481006 0.502458 -0.117924
C42   C     C_R   0.935199 0.358821 0.609329 -0.121282
C43   C     C_R   0.135971 0.572711 0.453647 0.006982
C44   C     C_R   0.440181 0.560002 0.286740 0.517847
C45   C     C_R   0.349359 0.616560 0.029332 0.046308
C46   C     C_R   0.410617 0.585338 0.198658 0.005085
C47   C     C_R   0.583478 0.416015 0.798053 0.019541
C48   C     C_R   0.314502 0.690494 0.072873 0.013917
C49   C     C_3   0.202730 0.686790 0.895208 -0.285262
C50   C     C_3   0.142806 0.631944 0.848012 -0.421301
C51   C     C_3   0.463482 0.956168 0.736448 -0.269721
C52   C     C_3   0.367096 0.037181 0.729321 -0.429979
C53   C     C_3   0.234608 0.355879 0.695967 -0.261109
C54   C     C_3   0.220196 0.385060 0.774933 -0.424171
C55   C     C_3   0.889338 0.502229 0.331354 -0.262831
C56   C     C_R   0.475064 0.462927 0.029392 0.017650
C57   C     C_3   0.942588 0.396462 0.338222 -0.416969
C58   C     C_3   0.276572 0.792325 0.037408 -0.279409
C59   C     C_3   0.347861 0.838807 0.081273 -0.392167
C60   C     C_3   0.519303 0.319160 0.127897 -0.267030
C61   C     C_3   0.610647 0.284076 0.205712 -0.399019
C62   C     C_R   0.455536 0.489300 0.947259 0.008757
C63   C     C_R   0.367444 0.565512 0.904659 -0.114194
C64   C     C_R   0.309135 0.623697 0.944398 0.008474
H1    H     H_    0.449328 0.806557 0.665515 0.118688
H2    H     H_    0.087197 0.665833 0.345045 0.179060
H3    H     H_    0.531433 0.467354 0.191270 0.151898
H4    H     H_    0.339059 0.577714 0.839845 0.139613
H5    H     H_    0.166392 0.606700 0.796696 0.173104
H6    H     H_    0.151789 0.571894 0.887799 0.165759
H7    H     H_    0.063005 0.678087 0.823117 0.161930
H8    H     H_    0.162503 0.724321 0.934479 0.161859
H9    H     H_    0.202559 0.739044 0.852512 0.152855
H10   H     H_    0.360571 0.101850 0.697550 0.150116
H11   H     H_    0.302486 0.019391 0.695763 0.165188
H12   H     H_    0.516747 0.086225 0.693527 0.124707
H13   H     H_    0.365242 0.050758 0.790443 0.150566
H14   H     H_    0.465914 0.894463 0.769931 0.149309
H15   H     H_    0.528749 0.970556 0.774165 0.158118
H16   H     H_    0.237795 0.447627 0.789297 0.173518
H17   H     H_    0.143214 0.400402 0.772043 0.162684
H18   H     H_    0.271731 0.328010 0.824802 0.149549
H19   H     H_    0.241332 0.282444 0.691696 0.126303
H20   H     H_    0.307286 0.355427 0.697717 0.185125
H21   H     H_    0.013198 0.379449 0.327038 0.172392
H22   H     H_    0.958526 0.361649 0.398394 0.167979
H23   H     H_    0.593236 0.167981 0.354403 0.147077
H24   H     H_    0.894810 0.368013 0.292549 0.158590
H25   H     H_    0.865464 0.527774 0.266825 0.186415
H26   H     H_    0.819011 0.519607 0.342162 0.144515
H27   H     H_    0.355013 0.841067 0.145476 0.206065
H28   H     H_    0.422384 0.800203 0.077893 0.167304
H29   H     H_    0.319812 0.911556 0.052134 0.159437
H30   H     H_    0.271475 0.799333 0.973882 0.141483
H31   H     H_    0.201441 0.831756 0.039084 0.183718
H32   H     H_    0.657000 0.210036 0.206633 0.203238
H33   H     H_    0.657465 0.325585 0.212459 0.160144
H34   H     H_    0.576343 0.910704 0.411835 0.161539
H35   H     H_    0.586557 0.288786 0.258576 0.153889
H36   H     H_    0.453793 0.364738 0.141684 0.145064
H37   H     H_    0.498626 0.259803 0.105727 0.183377
H38   H     H_    0.555654 0.177575 0.614633 0.161586
H39   H     H_    0.915747 0.316339 0.644015 0.136466
H40   H     H_    0.456012 0.529366 0.796793 0.131781
H41   H     H_    0.086771 0.301357 0.683694 0.122587
H42   H     H_    0.828067 0.539297 0.460506 0.112924
I1    I     I_    0.829052 0.231241 0.003991 -0.227996
I2    I     I_    0.395549 0.892936 0.369207 -0.302314
I3    I     I_    0.636420 0.981388 0.282559 -0.300685
I4    I     I_    0.883991 0.692231 0.230874 -0.304444
I5    I     I_    0.254335 0.558234 0.657255 -0.465016
I6    I     I_    0.777044 0.269637 0.790786 -0.321829
I7    I     I_    0.652365 0.162576 0.042974 -0.305696
I8    I     I_    0.233777 0.767161 0.205881 -0.261634
O1    O     O_3   0.500000 0.500000 0.500000 -0.447905
O2    O     O_R   0.596500 0.492780 0.688380 -0.521841
O3    O     O_R   0.388780 0.611210 0.325000 -0.496456
O4    O     O_R   0.499860 0.410860 0.661600 -0.523164
O5    O     O_R   0.514860 0.485140 0.325020 -0.558801
O6    O     O_R   0.707110 0.418540 0.472990 -0.540202
O7    O     O_R   0.267620 0.606720 0.435250 -0.530754
O8    O     O_R   0.540230 0.674660 0.578090 -0.544658
O9    O     O_R   0.485030 0.300080 0.513670 -0.547155
O10   O     O_R   0.403610 0.721990 0.472930 -0.494826
O11   O     O_R   0.571130 0.303270 0.435320 -0.549997
O12   O     O_R   0.717650 0.497270 0.578120 -0.525394
O13   O     O_R   0.307610 0.477470 0.513630 -0.515792
Zn1   Zn    Zn3+2 0.572030 0.427990 0.434470 0.934264
Zn2   Zn    Zn3+2 0.587090 0.540470 0.584680 0.974200
Zn3   Zn    Zn3+2 0.449010 0.423430 0.546420 0.958329
Zn4   Zn    Zn3+2 0.391880 0.608100 0.434430 1.008947

loop_
_geom_bond_atom_site_label_1
_geom_bond_atom_site_label_2
_ccdc_geom_bond_type
C40   C47   S    
C40   O4    A    
C34   C56   A    
C29   C42   A    
C14   I3    S    
C19   C20   A    
C18   C26   A    
C12   C48   A    
C52   H11   S    
C42   H39   S    
C6    C9    A    
C61   H32   S    
C7    C8    A    
O1    Zn4   S    
C53   C54   S    
C21   H12   S    
C62   C63   A    
C4    O11   A    
C53   H20   S    
C36   C37   A    
C50   H5    S    
C55   H26   S    
C52   H10   S    
C8    I6    S    
C30   C31   A    
C2    C60   S    
C27   H41   S    
C11   C24   A    
C33   C36   A    
C57   H22   S    
C23   H3    S    
C1    O8    A    
C17   C19   A    
O2    Zn2   S    
C10   C20   A    
C49   H8    S    
C1    C11   S    
O11   Zn1   S    
C24   I2    S    
C35   C43   A    
C32   C55   S    
C54   H16   S    
C28   O13   A    
C56   C62   A    
O5    Zn1   S    
C39   I5    S    
C49   C64   S    
C13   C14   A    
C36   C41   A    
C61   H35   S    
O7    Zn4   S    
O3    Zn4   S    
C10   C51   S    
C44   C46   S    
C12   I8    S    
C38   C39   A    
C51   H14   S    
C41   H42   S    
C51   C52   S    
C25   H1    S    
C12   C46   A    
C3    I7    S    
C5    C7    A    
C28   O7    A    
C44   O5    A    
C60   H36   S    
C16   C29   S    
C50   H7    S    
O1    Zn1   S    
C4    O9    A    
C60   C61   S    
C35   C39   A    
C58   H31   S    
C37   C38   A    
O4    Zn3   S    
C28   C43   S    
C31   C32   A    
C23   C34   A    
C13   H23   S    
C17   C18   A    
C34   C45   A    
C59   H27   S    
C30   H2    S    
C10   C25   A    
O13   Zn3   S    
C9    C47   A    
C55   C57   S    
O9    Zn3   S    
C7    I1    S    
C13   C26   A    
C15   H34   S    
C60   H37   S    
C54   H18   S    
O1    Zn2   S    
C45   C48   A    
C15   C17   A    
C63   H4    S    
O8    Zn2   S    
C29   C41   A    
C18   C22   A    
C61   H33   S    
C3    C5    A    
C22   H38   S    
C40   O2    A    
C4    C26   S    
O6    Zn1   S    
C48   C58   S    
C45   C64   A    
O12   Zn2   S    
C57   H24   S    
C53   H19   S    
C32   C33   A    
C6    C62   A    
C16   O6    A    
C2    C3    A    
C58   C59   S    
C1    O10   A    
C55   H25   S    
C2    C56   A    
C27   C42   A    
C5    C6    A    
C38   C53   S    
C44   O3    A    
C27   C37   A    
C9    H40   S    
C33   C35   A    
C31   I4    S    
C57   H21   S    
C19   C24   A    
C49   H9    S    
C59   H28   S    
C58   H30   S    
C30   C43   A    
C51   H15   S    
C50   H6    S    
C8    C47   A    
C63   C64   A    
C20   C21   A    
O10   Zn4   S    
C49   C50   S    
C23   C46   A    
C11   C25   A    
C14   C15   A    
C59   H29   S    
C21   C22   A    
C16   O12   A    
C54   H17   S    
C52   H13   S    
O1    Zn3   S    
