data_mof_unit_51406.cif
_audit_creation_date              2012-12-10T17:05:20-0500
_audit_creation_method            fapswitch 2.2
_symmetry_space_group_name_H-M    P1
_symmetry_Int_Tables_number       1
_space_group_crystal_system       triclinic
_cell_length_a                    10.038833
_cell_length_b                    10.683625
_cell_length_c                    15.497903
_cell_angle_alpha                 89.968096
_cell_angle_beta                  68.138007
_cell_angle_gamma                 89.703911
_cell_volume                      1542.60796997

loop_
_atom_site_label
_atom_site_type_symbol
_atom_type_description
_atom_site_fract_x
_atom_site_fract_y
_atom_site_fract_z
_atom_type_partial_charge
C1    C     C_R   0.494758 0.736991 0.508812 0.897630
C2    C     C_R   0.427895 0.478182 0.909666 0.119679
C3    C     C_R   0.295376 0.421222 0.961811 0.121308
C4    C     C_R   0.533945 0.492507 0.948244 -0.105375
C5    C     C_R   0.494704 0.476258 0.044610 0.012075
C6    C     C_R   0.363155 0.416099 0.096739 0.444988
C7    C     C_R   0.264915 0.389133 0.054338 -0.359748
C8    C     C_R   0.679571 0.516132 0.892832 -0.208305
C9    C     C_R   0.783815 0.526999 0.931740 0.424368
C10   C     C_R   0.741831 0.520071 0.029255 -0.011572
C11   C     C_R   0.593841 0.511870 0.084749 0.071125
C12   C     C_R   0.410552 0.498904 0.675722 0.862597
C13   C     C_R   0.841039 0.518617 0.073978 -0.216779
C14   C     C_R   0.792057 0.510470 0.170610 -0.226766
C15   C     C_R   0.549577 0.547474 0.178297 0.225846
C16   C     C_2   0.595163 0.067093 0.524459 -0.175109
C17   C     C_2   0.506948 0.129408 0.493165 -0.366196
C18   C     C_2   0.597814 0.932676 0.520222 -0.208965
C19   C     C_2   0.477486 0.864914 0.540676 0.019090
C20   C     C_2   0.109677 0.438197 0.440012 -0.128239
C21   C     C_2   0.961779 0.444842 0.436521 -0.142346
C22   C     C_R   0.501738 0.262280 0.497878 0.950540
C23   C     C_R   0.589338 0.507756 0.324473 0.869517
C24   C     C_R   0.357831 0.485492 0.776252 -0.074702
C25   C     C_R   0.645060 0.523707 0.223566 -0.128699
C26   C     C_R   0.197718 0.392832 0.919177 -0.199390
C27   C     C_R   0.230184 0.422846 0.825910 -0.156628
C28   C     C_R   0.451149 0.518476 0.819817 -0.238604
H1    H     H_    0.165275 0.341881 0.093391 0.141740
H2    H     H_    0.955366 0.516783 0.035887 0.155809
H3    H     H_    0.672178 0.114164 0.547155 0.185870
H4    H     H_    0.434900 0.081856 0.466333 0.158209
H5    H     H_    0.703698 0.890618 0.487890 0.164202
H6    H     H_    0.189042 0.380433 0.388437 0.185229
H7    H     H_    0.076166 0.558924 0.544592 0.166562
H8    H     H_    0.945976 0.399328 0.378529 0.154193
H9    H     H_    0.865080 0.535678 0.556600 0.168356
H10   H     H_    0.869062 0.497552 0.203691 0.166862
H11   H     H_    0.099061 0.343548 0.956880 0.151954
H12   H     H_    0.158564 0.393742 0.792045 0.193013
H13   H     H_    0.543876 0.574125 0.781407 0.148966
H14   H     H_    0.717402 0.519531 0.817899 0.170918
N1    N     N_2   0.148330 0.498670 0.499030 -0.190175
N2    N     N_2   0.852680 0.498640 0.499000 -0.188673
O1    O     O_R   0.386950 0.680940 0.500010 -0.619035
O2    O     O_R   0.613110 0.680900 0.499990 -0.624415
O3    O     O_R   0.322330 0.500030 0.632270 -0.611653
O4    O     O_R   0.548480 0.499990 0.632240 -0.613332
O5    O     O_R   0.386890 0.319100 0.500010 -0.605703
O6    O     O_R   0.613050 0.319060 0.499990 -0.602787
O7    O     O_R   0.451520 0.500010 0.367760 -0.603904
O8    O     O_R   0.677670 0.499970 0.367730 -0.611976
Zn1   Zn    Zn3+2 0.349000 0.500030 0.500020 0.943332
Zn2   Zn    Zn3+2 0.651000 0.499970 0.499980 0.937263
C29   C     C_3   0.327720 0.911414 0.602185 -0.403121
C30   C     C_3   0.262292 0.831402 0.689616 -0.842323
H15   H     H_    0.235718 0.736658 0.671958 0.279262
H16   H     H_    0.337785 0.823232 0.726655 0.252581
H17   H     H_    0.161321 0.875763 0.737092 0.249864
H18   H     H_    0.328912 0.008408 0.627183 0.234804
H19   H     H_    0.256357 0.909773 0.561969 0.207418
C31   C     C_3   0.419971 0.635078 0.221429 -0.369116
C32   C     C_3   0.421003 0.744775 0.157597 -0.918518
H20   H     H_    0.335394 0.812794 0.195944 0.258230
H21   H     H_    0.526101 0.793331 0.134406 0.269399
H22   H     H_    0.399854 0.712464 0.095916 0.265672
H23   H     H_    0.316943 0.584658 0.240650 0.248874
H24   H     H_    0.421590 0.678956 0.285916 0.214578
O9    O     O_3   0.923059 0.548101 0.871831 -0.791223
H25   H     H_    0.973453 0.596528 0.904676 0.333144
O10   O     O_3   0.339805 0.372147 0.185107 -0.801043
H26   H     H_    0.244301 0.331813 0.211083 0.319352

loop_
_geom_bond_atom_site_label_1
_geom_bond_atom_site_label_2
_ccdc_geom_bond_type
C2    C4    A    
C29   C30   S    
C32   H21   S    
C6    C7    A    
C7    H1    S    
C30   H16   S    
C14   H10   S    
C21   N2    D    
H7    N1    S    
C9    C10   A    
C12   C24   S    
C23   O7    A    
C17   C22   S    
C30   H17   S    
C31   H24   S    
C27   H12   S    
O3    Zn1   S    
C24   C27   A    
C20   H6    S    
O2    Zn2   S    
H9    N2    S    
N1    Zn1   S    
C2    C3    A    
C23   O8    A    
C32   H22   S    
O1    Zn1   S    
O10   H26   S    
C21   H8    S    
O6    Zn2   S    
C29   H18   S    
C30   H15   S    
C16   H3    S    
O4    Zn2   S    
C1    O1    A    
C26   C27   A    
C31   C32   S    
C31   H23   S    
C12   O3    A    
O5    Zn1   S    
C5    C6    A    
C29   H19   S    
C12   O4    A    
C9    O9    S    
O8    Zn2   S    
C5    C11   A    
C3    C7    A    
O9    H25   S    
C23   C25   S    
C14   C25   A    
C6    O10   S    
C26   H11   S    
C18   H5    S    
C1    O2    A    
C15   C25   A    
C1    C19   S    
C10   C11   A    
C19   C29   S    
C22   O6    A    
N2    Zn2   S    
C13   H2    S    
C20   N1    D    
C20   C21   S    
C24   C28   A    
C16   C18   S    
C18   C19   D    
C22   O5    A    
C4    C8    A    
C17   H4    S    
C8    C9    A    
C2    C28   A    
C13   C14   A    
C11   C15   A    
C15   C31   S    
C3    C26   A    
C28   H13   S    
C32   H20   S    
C16   C17   D    
C8    H14   S    
C4    C5    A    
O7    Zn1   S    
C10   C13   A    
