data_mof_unit_12819.cif
_audit_creation_date              2012-12-10T18:12:32-0500
_audit_creation_method            fapswitch 2.2
_symmetry_space_group_name_H-M    P1
_symmetry_Int_Tables_number       1
_space_group_crystal_system       triclinic
_cell_length_a                    12.782018
_cell_length_b                    13.034489
_cell_length_c                    15.671264
_cell_angle_alpha                 93.378575
_cell_angle_beta                  103.218763
_cell_angle_gamma                 81.899892
_cell_volume                      2515.43913654

loop_
_atom_site_label
_atom_site_type_symbol
_atom_type_description
_atom_site_fract_x
_atom_site_fract_y
_atom_site_fract_z
_atom_type_partial_charge
C1    C     C_R   0.439346 0.690746 0.484779 0.876178
C2    C     C_R   0.597835 0.197730 0.510212 -0.141569
C3    C     C_R   0.294207 0.840995 0.465505 -0.306735
C4    C     C_R   0.502020 0.500384 0.661815 0.871885
C5    C     C_R   0.260459 0.947050 0.452796 0.599617
C6    C     C_R   0.338596 0.012711 0.454799 -0.285685
C7    C     C_R   0.448134 0.971463 0.460772 0.007690
C8    C     C_R   0.472690 0.864529 0.447423 0.079943
C9    C     C_R   0.533636 0.032702 0.476126 0.061740
C10   C     C_R   0.632516 0.992763 0.450955 0.100431
C11   C     C_R   0.644741 0.890702 0.417410 -0.240021
C12   C     C_3   0.503886 0.502450 0.917800 -0.031684
C13   C     C_R   0.567178 0.826705 0.417764 -0.133070
C14   C     C_R   0.527384 0.129427 0.521162 0.056172
C15   C     C_R   0.694961 0.159979 0.485790 -0.262590
C16   C     C_R   0.560756 0.308618 0.510635 0.882312
C17   C     C_R   0.401031 0.799337 0.463756 -0.193735
C18   C     C_R   0.103086 0.321231 0.395775 -0.064637
C19   C     C_R   0.798420 0.636055 0.601071 0.673670
C20   C     C_R   0.900501 0.669580 0.618128 -0.368741
C21   C     C_R   0.981958 0.616486 0.581173 -0.248437
C22   C     C_R   0.963385 0.528614 0.525732 -0.005986
C23   C     C_3   0.559330 0.422688 0.038149 0.577972
C24   C     C_R   0.857044 0.498260 0.506662 0.020506
C25   C     C_R   0.046036 0.471218 0.487126 -0.011368
C26   C     C_R   0.026074 0.377473 0.439316 0.015071
C27   C     C_R   0.927903 0.342616 0.433581 -0.361439
C28   C     C_R   0.496845 0.502502 0.338222 0.876070
C29   C     C_R   0.839321 0.408609 0.450517 0.527032
C30   C     C_R   0.149185 0.501397 0.495552 -0.161139
C31   C     C_R   0.201230 0.360051 0.403284 0.615008
C32   C     C_3   0.393548 0.501729 0.003709 -0.063816
C33   C     C_3   0.434710 0.587013 0.961074 0.510641
C34   C     C_3   0.491036 0.506511 0.081926 -0.057897
C35   C     C_1   0.506430 0.500915 0.751702 -0.189456
C36   C     C_1   0.490663 0.505785 0.248296 -0.217906
C37   C     C_3   0.462227 0.416093 0.959602 -0.309937
C38   C     C_3   0.316017 0.737941 0.964914 -0.338863
C39   C     C_3   0.464150 0.154382 0.593732 -0.378480
C40   C     C_3   0.493245 0.070503 0.663309 -0.344018
C41   C     C_3   0.438803 0.101984 0.739762 -0.890383
C42   C     C_3   0.090232 0.948176 0.368149 -0.407878
C43   C     C_3   0.264761 0.337091 0.277425 -0.291551
C44   C     C_3   0.081562 0.223283 0.339961 -0.381032
C45   C     C_3   0.603168 0.506510 0.995477 -0.414291
C46   C     C_3   0.001803 0.248564 0.251856 -0.356601
C47   C     C_3   0.987159 0.151708 0.193168 -0.917179
C48   C     C_3   0.743888 0.683072 0.728619 -0.317871
C49   C     C_3   0.278434 0.494721 0.013307 -0.391947
C50   C     C_3   0.201219 0.483932 0.923640 -0.297328
C51   C     C_3   0.085119 0.483577 0.933129 -0.928561
C52   C     C_3   0.723566 0.340739 0.328464 -0.262569
C53   C     C_3   0.614324 0.736145 0.035126 -0.309773
C54   C     C_3   0.679563 0.275189 0.031503 -0.332112
C55   C     C_3   0.827290 0.016780 0.443479 -0.435660
C56   C     C_3   0.532535 0.590623 0.038538 0.433159
C57   C     C_3   0.895342 0.944001 0.515273 -0.321537
C58   C     C_3   0.930417 0.001912 0.602509 -0.798250
C59   C     C_1   0.507184 0.501384 0.827343 0.031888
C60   C     C_1   0.488832 0.507068 0.172608 0.043211
C61   C     C_R   0.716265 0.056017 0.460729 0.150678
H1    H     H_    0.236901 0.791645 0.475589 0.170382
H2    H     H_    0.754382 0.211380 0.486302 0.201847
H3    H     H_    0.715518 0.857649 0.393699 0.148653
H4    H     H_    0.361956 0.747563 0.033679 0.191440
H5    H     H_    0.237859 0.709905 0.964082 0.168418
H6    H     H_    0.296796 0.815938 0.936154 0.191549
H7    H     H_    0.466299 0.174510 0.772533 0.253328
H8    H     H_    0.349265 0.114091 0.716075 0.270738
H9    H     H_    0.460608 0.039652 0.788497 0.252111
H10   H     H_    0.466927 0.996003 0.634495 0.241760
H11   H     H_    0.582586 0.057952 0.688771 0.222848
H12   H     H_    0.312222 0.094616 0.446258 0.175774
H13   H     H_    0.485158 0.227894 0.628893 0.192312
H14   H     H_    0.375601 0.168423 0.567833 0.212677
H15   H     H_    0.082530 0.865318 0.374798 0.169878
H16   H     H_    0.123214 0.958229 0.309647 0.177242
H17   H     H_    0.007421 0.991170 0.356509 0.189154
H18   H     H_    0.344245 0.327839 0.258703 0.198889
H19   H     H_    0.227420 0.419194 0.265854 0.145345
H20   H     H_    0.215326 0.284102 0.233075 0.149952
H21   H     H_    0.066482 0.114096 0.181667 0.261114
H22   H     H_    0.949698 0.096010 0.223848 0.254969
H23   H     H_    0.580642 0.748203 0.392238 0.165257
H24   H     H_    0.932974 0.173413 0.128937 0.248766
H25   H     H_    0.921400 0.283281 0.262289 0.227428
H26   H     H_    0.031476 0.306223 0.216952 0.216223
H27   H     H_    0.157821 0.180191 0.326908 0.237264
H28   H     H_    0.051193 0.168281 0.376639 0.229731
H29   H     H_    0.804125 0.736145 0.758010 0.144694
H30   H     H_    0.774411 0.602264 0.750289 0.154075
H31   H     H_    0.669953 0.708406 0.754117 0.194304
H32   H     H_    0.080552 0.417840 0.973572 0.262553
H33   H     H_    0.056125 0.557552 0.964416 0.257409
H34   H     H_    0.915592 0.265799 0.408451 0.157658
H35   H     H_    0.031213 0.475042 0.867337 0.254122
H36   H     H_    0.203071 0.549049 0.881593 0.248554
H37   H     H_    0.227317 0.410291 0.890322 0.221144
H38   H     H_    0.280443 0.425997 0.052694 0.201619
H39   H     H_    0.249812 0.564731 0.049737 0.190776
H40   H     H_    0.759459 0.258342 0.325986 0.135698
H41   H     H_    0.754288 0.389388 0.285986 0.177017
H42   H     H_    0.636226 0.338881 0.300620 0.193069
H43   H     H_    0.559797 0.755257 0.970278 0.190890
H44   H     H_    0.692873 0.693107 0.026507 0.157776
H45   H     H_    0.174745 0.568385 0.533842 0.154733
H46   H     H_    0.631552 0.810436 0.070197 0.184654
H47   H     H_    0.740458 0.317188 0.012712 0.164001
H48   H     H_    0.624481 0.246257 0.972115 0.162028
H49   H     H_    0.724191 0.206585 0.068681 0.187994
H50   H     H_    0.977673 0.064509 0.594267 0.266307
H51   H     H_    0.858566 0.036039 0.628037 0.256306
H52   H     H_    0.982271 0.947056 0.651240 0.231893
H53   H     H_    0.849791 0.880967 0.525440 0.223253
H54   H     H_    0.969141 0.906899 0.493964 0.232794
H55   H     H_    0.818518 0.976678 0.378256 0.154670
H56   H     H_    0.059107 0.645537 0.598299 0.165766
H57   H     H_    0.872860 0.082425 0.439639 0.198834
H58   H     H_    0.916870 0.737321 0.659822 0.166109
H59   H     H_    0.687904 0.507115 0.989397 0.155942
H60   H     H_    0.435470 0.344255 0.925045 0.154807
N1    N     N_R   0.222180 0.444680 0.455580 -0.153652
N2    N     N_R   0.776980 0.554790 0.543960 -0.158180
O1    O     O_R   0.366730 0.627160 0.478790 -0.626865
O2    O     O_3   0.153325 0.988841 0.445397 -0.618281
O3    O     O_3   0.282077 0.307931 0.365529 -0.598963
O4    O     O_3   0.715968 0.689183 0.636392 -0.574843
O5    O     O_3   0.737432 0.381412 0.415937 -0.573019
O6    O     O_3   0.565722 0.680139 0.086183 -0.603290
O7    O     O_3   0.621466 0.337892 0.085871 -0.608366
O8    O     O_R   0.544830 0.662520 0.507160 -0.566228
O9    O     O_R   0.410960 0.482330 0.609040 -0.612659
O10   O     O_R   0.589060 0.517690 0.637410 -0.591813
O11   O     O_R   0.455170 0.337480 0.492840 -0.565332
O12   O     O_R   0.633270 0.372840 0.521210 -0.562446
O13   O     O_R   0.410940 0.482310 0.362590 -0.603327
O14   O     O_R   0.589040 0.517670 0.390960 -0.556214
O15   O     O_3   0.374365 0.672051 0.912428 -0.612703
Zn1   Zn    Zn3+2 0.381080 0.476390 0.481050 0.968138
Zn2   Zn    Zn3+2 0.618920 0.523610 0.518950 1.012400

loop_
_geom_bond_atom_site_label_1
_geom_bond_atom_site_label_2
_ccdc_geom_bond_type
C52   H42   S    
C34   C56   S    
C8    C13   A    
C23   C45   S    
C40   H10   S    
C27   C29   A    
O1    Zn1   S    
C27   H34   S    
C19   C20   A    
C18   C26   A    
C16   O11   A    
C52   O5    S    
C7    C8    A    
C4    O9    A    
O9    Zn1   S    
C13   H23   S    
C52   H41   S    
C26   C27   A    
C58   H51   S    
C47   H24   S    
N1    Zn1   S    
C5    C6    A    
C47   H21   S    
C55   H55   S    
C53   H43   S    
C43   H18   S    
C54   H49   S    
C35   C59   T    
C39   H13   S    
C12   C37   S    
C24   C29   A    
C21   H56   S    
O8    Zn2   S    
C42   O2    S    
C14   C39   S    
C12   C59   S    
C30   N1    A    
C45   C56   S    
C22   C25   A    
C58   H52   S    
C39   H14   S    
C2    C16   S    
C9    C10   A    
C56   O6    S    
C51   H35   S    
C33   C56   S    
C4    C35   S    
C48   H29   S    
C21   C22   A    
C30   H45   S    
C34   C60   S    
O13   Zn1   S    
C43   O3    S    
C44   C46   S    
C41   H7    S    
C38   O15   S    
O12   Zn2   S    
C54   O7    S    
O14   Zn2   S    
C52   H40   S    
C50   H37   S    
C58   H50   S    
C38   H5    S    
C57   H54   S    
C11   H3    S    
C39   C40   S    
C1    O8    A    
C43   H19   S    
C23   C37   S    
N2    Zn2   S    
C48   H30   S    
C24   N2    A    
C23   O7    S    
C32   C34   S    
C9    C14   A    
C18   C44   S    
C49   H38   S    
C53   H46   S    
C38   H4    S    
C33   O15   S    
C23   C34   S    
C19   N2    A    
C50   C51   S    
C15   C61   A    
C32   C37   S    
C38   H6    S    
C2    C15   A    
C57   H53   S    
C51   H32   S    
C37   H60   S    
C45   H59   S    
C40   C41   S    
C36   C60   T    
C42   H17   S    
C47   H22   S    
C55   C57   S    
C43   H20   S    
C22   C24   A    
C10   C61   A    
C53   O6    S    
O11   Zn1   S    
C6    H12   S    
C41   H8    S    
C46   H26   S    
C3    H1    S    
C25   C30   A    
C7    C9    A    
C46   C47   S    
C50   H36   S    
C40   H11   S    
C28   O13   A    
C1    C17   S    
C28   O14   A    
C31   N1    A    
C12   C45   S    
C3    C5    A    
C6    C7    A    
C54   H48   S    
C42   H15   S    
C8    C17   A    
C54   H47   S    
C32   C33   S    
C25   C26   A    
C1    O1    A    
C49   H39   S    
C11   C13   A    
C57   C58   S    
C55   C61   S    
C19   O4    S    
C3    C17   A    
C2    C14   A    
C32   C49   S    
C10   C11   A    
C51   H33   S    
C53   H44   S    
C20   C21   A    
C28   C36   S    
O10   Zn2   S    
C49   C50   S    
C48   H31   S    
C29   O5    S    
C5    O2    S    
C15   H2    S    
C42   H16   S    
C41   H9    S    
C18   C31   A    
C31   O3    S    
C46   H25   S    
C12   C33   S    
C44   H27   S    
C16   O12   A    
C20   H58   S    
C44   H28   S    
C4    O10   A    
C48   O4    S    
C55   H57   S    
