data_mof_unit_29349.cif
_audit_creation_date              2012-12-10T19:47:19-0500
_audit_creation_method            fapswitch 2.2
_symmetry_space_group_name_H-M    P1
_symmetry_Int_Tables_number       1
_space_group_crystal_system       triclinic
_cell_length_a                    14.958312
_cell_length_b                    14.17768
_cell_length_c                    10.63665
_cell_angle_alpha                 89.979721
_cell_angle_beta                  90.22374
_cell_angle_gamma                 90.033405
_cell_volume                      2255.74090138

loop_
_atom_site_label
_atom_site_type_symbol
_atom_type_description
_atom_site_fract_x
_atom_site_fract_y
_atom_site_fract_z
_atom_type_partial_charge
C1    C     C_R   0.327723 0.499918 0.499442 0.937267
C2    C     C_R   0.672110 0.500019 0.499095 0.904901
C3    C     C_R   0.231816 0.499048 0.494434 -0.170495
C4    C     C_R   0.767670 0.499685 0.493729 -0.159896
C5    C     C_R   0.185616 0.423697 0.548474 -0.335298
C6    C     C_R   0.810404 0.432377 0.419420 -0.332429
C7    C     C_R   0.092513 0.420355 0.541734 0.519436
C8    C     C_R   0.903679 0.429822 0.414532 0.531073
C9    C     C_R   0.047843 0.495376 0.482499 -0.037677
C10   C     C_R   0.951497 0.497335 0.484133 -0.034030
C11   C     C_R   0.460617 0.105244 0.401149 -0.278091
C12   C     C_R   0.539536 0.105261 0.598812 -0.277501
C13   C     C_R   0.461047 0.204467 0.403231 0.019285
C14   C     C_R   0.539003 0.204485 0.596752 0.020453
C15   C     C_R   0.500098 0.053364 0.499980 0.138213
C16   C     C_R   0.570057 0.894730 0.556256 -0.271074
C17   C     C_R   0.430076 0.894744 0.443795 -0.272760
C18   C     C_R   0.568541 0.795504 0.555573 0.030905
C19   C     C_R   0.431499 0.795532 0.444481 0.034771
C20   C     C_R   0.500091 0.946623 0.500003 0.133099
C21   C     C_R   0.502725 0.499998 0.260392 0.864590
C22   C     C_R   0.502853 0.500019 0.739659 0.870953
C23   C     C_R   0.651417 0.589493 0.132054 -0.174624
C24   C     C_R   0.650535 0.591265 0.869988 -0.186498
C25   C     C_R   0.720210 0.634123 0.066864 -0.127056
C26   C     C_R   0.719554 0.635352 0.936066 -0.154859
C27   C     C_R   0.579647 0.546588 0.934653 0.100497
C28   C     C_R   0.579873 0.546111 0.066454 0.090607
C29   C     C_R   0.509179 0.499626 0.128308 -0.093750
C30   C     C_R   0.509152 0.499813 0.871884 -0.096303
C31   C     C_R   0.442626 0.450854 0.063901 -0.217523
C32   C     C_R   0.442686 0.450833 0.935513 -0.210506
C33   C     C_R   0.094256 0.569632 0.424770 0.549631
C34   C     C_R   0.908382 0.564218 0.560109 0.550269
C35   C     C_R   0.186619 0.572037 0.433309 -0.306087
C36   C     C_R   0.815918 0.566546 0.561862 -0.315988
H1    H     H_    0.389469 0.414531 0.113381 0.148531
H2    H     H_    0.389601 0.414448 0.885418 0.152264
H3    H     H_    0.626500 0.930190 0.599142 0.136785
H4    H     H_    0.373643 0.930208 0.400958 0.136474
H5    H     H_    0.622619 0.756766 0.599365 0.124455
H6    H     H_    0.377356 0.756829 0.400767 0.126247
H7    H     H_    0.655679 0.588301 0.233507 0.152719
H8    H     H_    0.654047 0.591612 0.768571 0.138550
H9    H     H_    0.774517 0.667219 0.117990 0.140785
H10   H     H_    0.773067 0.669866 0.885614 0.135009
H11   H     H_    0.222792 0.630116 0.390950 0.173861
H12   H     H_    0.782115 0.619062 0.618377 0.163279
H13   H     H_    0.222154 0.369605 0.598824 0.171824
H14   H     H_    0.770681 0.384172 0.363436 0.168645
H15   H     H_    0.430578 0.069776 0.321460 0.135861
H16   H     H_    0.569610 0.069802 0.678488 0.136841
H17   H     H_    0.430334 0.243156 0.326797 0.128177
H18   H     H_    0.569687 0.243190 0.673183 0.132795
N1    N     N_R   0.500000 0.252470 0.500000 -0.095039
N2    N     N_R   0.500000 0.747550 0.500000 -0.095386
O1    O     O_R   0.369060 0.579480 0.500010 -0.623673
O2    O     O_R   0.630940 0.579480 0.499990 -0.642070
O3    O     O_R   0.369050 0.420520 0.500010 -0.623735
O4    O     O_R   0.630950 0.420520 0.499990 -0.616202
O5    O     O_R   0.500000 0.579490 0.316770 -0.622043
O6    O     O_R   0.500000 0.579490 0.683230 -0.617966
O7    O     O_R   0.499990 0.420540 0.316770 -0.627118
O8    O     O_R   0.500010 0.420540 0.683230 -0.627796
Zn1   Zn    Zn3+2 0.500000 0.606140 0.500000 0.941677
Zn2   Zn    Zn3+2 0.500000 0.393860 0.500000 0.937327
O9    O     O_3   0.048951 0.642984 0.367355 -0.575759
C37   C     C_3   0.042789 0.623428 0.237687 -0.337204
H19   H     H_    0.005675 0.556624 0.219844 0.180768
H20   H     H_    0.110132 0.620529 0.193673 0.159641
H21   H     H_    0.004975 0.681243 0.191573 0.193854
O10   O     O_3   0.956661 0.630071 0.628095 -0.578078
C38   C     C_3   0.968163 0.595704 0.751511 -0.326986
H22   H     H_    0.008356 0.529689 0.752373 0.183230
H23   H     H_    0.902870 0.583756 0.798689 0.154137
H24   H     H_    0.005282 0.649224 0.807047 0.193733
O11   O     O_3   0.042658 0.351272 0.602719 -0.612712
C39   C     C_3   0.077269 0.260186 0.580337 -0.292640
H25   H     H_    0.023513 0.207955 0.597911 0.183938
H26   H     H_    0.132564 0.244303 0.646984 0.161804
H27   H     H_    0.099418 0.250546 0.481242 0.169229
O12   O     O_3   0.950549 0.368792 0.336088 -0.614803
C40   C     C_3   0.913777 0.277041 0.336242 -0.296155
H28   H     H_    0.965864 0.226984 0.304131 0.183065
H29   H     H_    0.857243 0.272364 0.268551 0.165029
H30   H     H_    0.892707 0.254027 0.431838 0.171329

loop_
_geom_bond_atom_site_label_1
_geom_bond_atom_site_label_2
_ccdc_geom_bond_type
C19   N2    A    
C4    C36   A    
C34   O10   S    
C38   H22   S    
C24   C27   A    
C35   H11   S    
O11   C39   S    
C8    O12   S    
C28   C29   A    
C24   C26   A    
C1    O3    A    
O3    Zn2   S    
C39   H26   S    
N2    Zn1   S    
C17   C20   A    
C23   H7    S    
C17   C19   A    
C11   C15   A    
C31   C32   A    
C37   H19   S    
C32   H2    S    
C9    C10   S    
C21   O5    A    
C19   H6    S    
C18   N2    A    
C7    O11   S    
C14   N1    A    
O7    Zn2   S    
O4    Zn2   S    
C27   C30   A    
C9    C33   A    
C38   H23   S    
C5    H13   S    
C2    O4    A    
C12   H16   S    
C13   H17   S    
C15   C20   S    
O9    C37   S    
C4    C6    A    
C18   H5    S    
C5    C7    A    
C39   H25   S    
C6    C8    A    
C25   C26   A    
C21   C29   S    
C31   H1    S    
C1    C3    S    
C17   H4    S    
O8    Zn2   S    
C2    C4    S    
C1    O1    A    
C22   O6    A    
O2    Zn1   S    
C40   H28   S    
C12   C15   A    
C3    C35   A    
C16   C20   A    
C10   C34   A    
C23   C28   A    
C6    H14   S    
C16   C18   A    
C40   H29   S    
C12   C14   A    
C24   H8    S    
C38   H24   S    
C25   H9    S    
N1    Zn2   S    
C33   O9    S    
C7    C9    A    
C22   C30   S    
O6    Zn1   S    
C14   H18   S    
O1    Zn1   S    
O10   C38   S    
C3    C5    A    
C2    O2    A    
C29   C31   A    
C30   C32   A    
C11   C13   A    
C39   H27   S    
C37   H21   S    
C33   C35   A    
C36   H12   S    
C34   C36   A    
C23   C25   A    
C21   O7    A    
C11   H15   S    
C26   H10   S    
C16   H3    S    
C22   O8    A    
O5    Zn1   S    
C40   H30   S    
C8    C10   A    
O12   C40   S    
C27   C28   A    
C37   H20   S    
C13   N1    A    
