data_mof_unit_48072.cif
_audit_creation_date              2013-03-05T15:56:27-0500
_audit_creation_method            fapswitch 2.2
_symmetry_space_group_name_H-M    P1
_symmetry_Int_Tables_number       1
_space_group_crystal_system       triclinic
_cell_length_a                    6.928163
_cell_length_b                    14.562036
_cell_length_c                    16.01115
_cell_angle_alpha                 90.325265
_cell_angle_beta                  90.039437
_cell_angle_gamma                 90.024202
_cell_volume                      1615.30888865

loop_
_atom_site_label
_atom_site_type_symbol
_atom_site_description
_atom_site_fract_x
_atom_site_fract_y
_atom_site_fract_z
_atom_type_partial_charge
O1    O     O_R   0.494400 0.415640 0.412830 -0.594377
O2    O     O_R   0.823920 0.405510 0.586560 -0.604937
O3    O     O_R   0.994250 0.584360 0.587170 -0.598008
C1    C     C_R   0.654978 0.383190 0.615245 0.950885
O4    O     O_R   0.824110 0.404610 0.413450 -0.598167
O5    O     O_R   0.994440 0.583460 0.412820 -0.597447
C2    C     C_R   0.655040 0.382360 0.384323 0.956526
O6    O     O_R   0.494210 0.416540 0.587180 -0.598208
O7    O     O_3   0.660810 0.558680 0.500000 -0.267818
V1    V     V_3+5 0.935650 0.489110 0.500000 1.151117
O8    O     O_R   0.324150 0.594490 0.413440 -0.549125
C3    C     C_R   0.155461 0.617254 0.384730 0.962393
O9    O     O_R   0.323970 0.595390 0.586550 -0.602831
C4    C     C_R   0.155180 0.617801 0.615468 0.845772
V2    V     V_3+5 0.435660 0.510890 0.500000 1.166222
O10   O     O_3   0.160630 0.441320 0.500000 -0.274163
C5    C     C_3   0.054126 0.644384 0.765368 -0.349778
H1    H     H_    0.906970 0.618023 0.750897 0.149032
H2    H     H_    0.142578 0.584751 0.785637 0.133907
C6    C     C_3   0.041115 0.715708 0.837778 -0.367003
H3    H     H_    0.123025 0.690133 0.892735 0.131125
H4    H     H_    0.887807 0.723343 0.857328 0.151763
H5    H     H_    0.870287 0.748023 0.644183 0.155696
H6    H     H_    0.852146 0.853274 0.750572 0.150683
C7    C     C_3   0.018485 0.771385 0.660785 -0.356141
C8    C     C_3   0.348334 0.724494 0.709926 -0.353318
C9    C     C_3   0.144632 0.687877 0.686096 0.128847
H7    H     H_    0.416996 0.757298 0.654771 0.145766
H8    H     H_    0.442852 0.666560 0.729267 0.150034
C10   C     C_3   0.122933 0.810064 0.810378 0.131940
C11   C     C_3   0.006086 0.842644 0.733197 -0.357038
C12   C     C_3   0.335840 0.795166 0.782019 -0.337049
H9    H     H_    0.424351 0.770508 0.835441 0.151766
H10   H     H_    0.399219 0.861437 0.761127 0.139424
H11   H     H_    0.080549 0.804586 0.604415 0.129320
H12   H     H_    0.063054 0.909609 0.711301 0.123662
C13   C     C_R   0.957272 0.766035 0.209663 -0.090832
H13   H     H_    0.818934 0.776420 0.179633 0.140970
C14   C     C_R   0.969922 0.702611 0.274848 -0.201009
H14   H     H_    0.841289 0.665222 0.292273 0.200693
C15   C     C_R   0.146044 0.686445 0.316194 -0.320568
C16   C     C_R   0.310718 0.736929 0.290915 0.640183
C17   C     C_R   0.297775 0.798307 0.223690 -0.287593
H15   H     H_    0.427087 0.834070 0.204143 0.159107
C18   C     C_R   0.121473 0.814110 0.182753 -0.182104
C19   C     C_R   0.809007 0.288142 0.727862 -0.126192
H16   H     H_    0.948006 0.318628 0.714234 0.143924
C20   C     C_R   0.796106 0.224173 0.792512 -0.203861
H17   H     H_    0.924934 0.208118 0.827623 0.209034
C21   C     C_R   0.619083 0.182571 0.812810 -0.317193
C22   C     C_R   0.453166 0.206842 0.766206 0.661171
C23   C     C_R   0.466248 0.273377 0.703318 -0.311296
H18   H     H_    0.336158 0.292525 0.670128 0.154626
C24   C     C_R   0.643881 0.313875 0.682784 -0.189383
C25   C     C_R   0.791573 0.247829 0.305329 -0.258113
H19   H     H_    0.912587 0.247441 0.348227 0.169459
C26   C     C_R   0.779579 0.179398 0.243055 0.388117
C27   C     C_R   0.621549 0.179077 0.186272 -0.299424
C28   C     C_R   0.474366 0.244544 0.197495 -0.094332
H20   H     H_    0.351447 0.245968 0.155684 0.146980
C29   C     C_R   0.484325 0.309760 0.261983 -0.107418
H21   H     H_    0.368099 0.358985 0.268639 0.123816
C30   C     C_R   0.644101 0.312874 0.315991 -0.184911
O11   O     O_R   0.771300 0.080930 0.910090 -0.604604
O12   O     O_R   0.441270 0.092800 0.083770 -0.585438
O13   O     O_R   0.271080 0.913920 0.084380 -0.602671
C31   C     C_R   0.610178 0.112980 0.114699 0.994074
O14   O     O_R   0.441580 0.091910 0.910670 -0.551736
O15   O     O_R   0.271390 0.913020 0.910040 -0.601449
C32   C     C_R   0.610118 0.114038 0.881603 0.945896
O16   O     O_R   0.770990 0.081830 0.084440 -0.567007
O17   O     O_3   0.604750 0.938760 0.997250 -0.294142
V3    V     V_3+5 0.329850 0.008280 0.997210 1.201809
O18   O     O_R   0.941680 0.901940 0.910610 -0.606442
C33   C     C_R   0.110847 0.879962 0.881299 0.839148
O19   O     O_R   0.941370 0.902830 0.083720 -0.586344
C34   C     C_R   0.110334 0.881004 0.112939 1.026973
V4    V     V_3+5 0.829860 0.986420 0.997150 1.183518
O20   O     O_3   0.104830 0.056030 0.997180 -0.252817
O21   O     O_3   0.488063 0.722578 0.328161 -0.634903
C35   C     C_3   0.525116 0.795468 0.384260 -0.199912
H22   H     H_    0.662359 0.781077 0.417448 0.168228
H23   H     H_    0.409465 0.801477 0.432292 0.110175
H24   H     H_    0.543291 0.861601 0.350700 0.155061
O22   O     O_3   0.274823 0.170138 0.785161 -0.626305
C36   C     C_3   0.231790 0.100410 0.726670 -0.273205
H25   H     H_    0.341232 0.044465 0.728543 0.118726
H26   H     H_    0.218738 0.128288 0.662353 0.139108
H27   H     H_    0.090219 0.070107 0.743323 0.167687
N1    N     N_R   0.921908 0.107689 0.242244 0.229373
O23   O     O_R   0.101222 0.126627 0.259359 -0.427121
O24   O     O_R   0.867336 0.022177 0.240675 -0.430007

loop_
_geom_bond_atom_site_label_1
_geom_bond_atom_site_label_2
_geom_bond_distance
_ccdc_geom_bond_type
C7    C11   1.553995 S    
C25   H19   1.083499 S    
C16   O21   1.381871 S    
C15   C16   1.417463 A    
C1    O6    1.296387 A    
C22   O22   1.380682 S    
C35   H22   1.109559 S    
N1    O23   1.301112 A    
C14   C15   1.408349 A    
C6    C10   1.551847 S    
O22   C36   1.409086 S    
C8    C12   1.544578 S    
C8    C9    1.554968 S    
C3    C15   1.495367 S    
O19   V4    2.004552 S    
O5    C3    1.300653 A    
C10   C11   1.553432 S    
C36   H26   1.112697 S    
V2    O10   2.157650 S    
C5    C6    1.554845 S    
O12   V3    2.002463 S    
C29   C30   1.404771 A    
O17   V4    1.706788 S    
O8    V2    2.004532 S    
O12   C31   1.303174 A    
C25   C30   1.403351 A    
O15   V3    2.003257 S    
O1    V2    2.004176 S    
O11   C32   1.299899 A    
C4    C9    1.520690 S    
O7    V1    2.157244 S    
C20   C21   1.406751 A    
C28   H20   1.083147 S    
O1    C2    1.296325 A    
O9    C4    1.299132 A    
C35   H23   1.114108 S    
C23   C24   1.404478 A    
C21   C22   1.416055 A    
C19   C20   1.399353 A    
C28   C29   1.400523 A    
C26   N1    1.436546 S    
C22   C23   1.404266 A    
C5    C9    1.554080 S    
O19   C34   1.300563 A    
O18   C33   1.302172 A    
C14   H14   1.081735 S    
O4    C2    1.300662 A    
C36   H25   1.113678 S    
O17   V3    2.157271 S    
C27   C28   1.407152 A    
O13   V3    2.005968 S    
C12   H10   1.113333 S    
O2    C1    1.299484 A    
C17   H15   1.083346 S    
C13   H13   1.083035 S    
N1    O24   1.301312 A    
C19   C24   1.404423 A    
C5    H1    1.113012 S    
V3    O20   1.707282 S    
C17   C18   1.405471 A    
C2    C30   1.487908 S    
O3    C4    1.296873 A    
C7    H11   1.112905 S    
C20   H17   1.080876 S    
C6    H4    1.112950 S    
O6    V2    2.005514 S    
C25   C26   1.408053 A    
C16   C17   1.405806 A    
C13   C18   1.404751 A    
O2    V1    2.005456 S    
C35   H24   1.112599 S    
C23   H18   1.083367 S    
O13   C34   1.296864 A    
C19   H16   1.083101 S    
C1    C24   1.485451 S    
V4    O20   2.157554 S    
O11   V4    2.005794 S    
O21   C35   1.409932 S    
C36   H27   1.108674 S    
O5    V1    2.006009 S    
O8    C3    1.299373 A    
C7    C9    1.553327 S    
C8    H7    1.113335 S    
C12   H9    1.113344 S    
O9    V2    2.004035 S    
O14   V3    2.005501 S    
H6    C11   1.113051 S    
O4    V1    2.002497 S    
C13   C14   1.400308 A    
O3    V1    2.003351 S    
V1    O10   1.707266 S    
C10   C12   1.558555 S    
C10   C33   1.523016 S    
C26   C27   1.422636 A    
C21   C32   1.491823 S    
C5    H2    1.112797 S    
O15   C33   1.294978 A    
C31   O16   1.296318 A    
H5    C7    1.113056 S    
O7    V2    1.707806 S    
C29   H21   1.083197 S    
C27   C31   1.494370 S    
C6    H3    1.112742 S    
C8    H8    1.113366 S    
O14   C32   1.298458 A    
O18   V4    2.004093 S    
C11   H12   1.110547 S    
C18   C34   1.488837 S    
O16   V4    2.007294 S    
