data_mof_unit_22849.cif
_audit_creation_date              2012-12-10T18:06:41-0500
_audit_creation_method            fapswitch 2.2
_symmetry_space_group_name_H-M    P1
_symmetry_Int_Tables_number       1
_space_group_crystal_system       triclinic
_cell_length_a                    12.589835
_cell_length_b                    13.136993
_cell_length_c                    15.394267
_cell_angle_alpha                 83.671255
_cell_angle_beta                  98.729951
_cell_angle_gamma                 95.948514
_cell_volume                      2491.45739867

loop_
_atom_site_label
_atom_site_type_symbol
_atom_type_description
_atom_site_fract_x
_atom_site_fract_y
_atom_site_fract_z
_atom_type_partial_charge
C1    C     C_R   0.441695 0.309008 0.503956 0.857088
C2    C     C_R   0.415477 0.440129 0.104789 0.027051
C3    C     C_R   0.308224 0.461629 0.069656 0.076154
C4    C     C_R   0.484709 0.409304 0.050083 0.103684
C5    C     C_R   0.453892 0.421530 0.957924 0.075469
C6    C     C_R   0.345155 0.436735 0.924345 -0.262209
C7    C     C_R   0.272865 0.453758 0.979889 -0.182818
C8    C     C_R   0.584981 0.370009 0.083987 -0.227736
C9    C     C_R   0.658487 0.356629 0.028168 -0.241364
C10   C     C_R   0.636068 0.386433 0.938069 0.177208
C11   C     C_R   0.533721 0.420204 0.902664 0.089575
C12   C     C_R   0.434323 0.509556 0.336055 0.871044
C13   C     C_R   0.715057 0.384987 0.882989 -0.197840
C14   C     C_R   0.693990 0.419368 0.793503 -0.191359
C15   C     C_R   0.516606 0.458950 0.814195 -0.257576
C16   C     C_R   0.685535 0.950206 0.403601 -0.002658
C17   C     C_R   0.571710 0.801010 0.454754 -0.227688
C18   C     C_R   0.320810 0.158803 0.547707 -0.185680
C19   C     C_R   0.297802 0.053193 0.559793 -0.173249
C20   C     C_R   0.357759 0.988871 0.524846 -0.132682
C21   C     C_R   0.436029 0.029698 0.470026 0.112103
C22   C     C_R   0.453936 0.136926 0.452937 0.082417
C23   C     C_R   0.552553 0.691890 0.483639 0.901122
C24   C     C_R   0.505637 0.967717 0.439986 -0.033076
C25   C     C_R   0.600510 0.012552 0.406620 0.008138
C26   C     C_R   0.603944 0.116998 0.375549 -0.227379
C27   C     C_R   0.526589 0.176768 0.393785 -0.180876
C28   C     C_R   0.484821 0.861846 0.444072 0.385513
C29   C     C_R   0.671913 0.845091 0.433675 -0.248278
C30   C     C_R   0.402517 0.200976 0.498351 -0.122343
C31   C     C_R   0.137091 0.641413 0.623146 -0.305308
C32   C     C_R   0.758667 0.385074 0.391668 0.029348
C33   C     C_R   0.854274 0.361840 0.367366 -0.264554
C34   C     C_R   0.563716 0.484374 0.664442 0.864849
C35   C     C_R   0.951571 0.405247 0.408664 -0.192697
C36   C     C_R   0.953041 0.473071 0.474289 0.021952
C37   C     C_R   0.853187 0.494377 0.496361 0.235615
C38   C     C_R   0.048926 0.521542 0.517740 -0.009590
C39   C     C_R   0.043192 0.591950 0.580480 0.194988
C40   C     C_R   0.943902 0.612361 0.599980 -0.276686
C41   C     C_R   0.850268 0.563896 0.558578 -0.216069
C42   C     C_R   0.151186 0.502991 0.501759 -0.081481
C43   C     C_R   0.235694 0.620058 0.603860 0.043135
C44   C     C_R   0.389684 0.496447 0.244280 -0.102083
C45   C     C_R   0.594436 0.457007 0.759028 -0.061585
C46   C     C_R   0.239145 0.492734 0.124204 0.481423
C47   C     C_R   0.282243 0.512411 0.211347 -0.341598
C48   C     C_R   0.454413 0.459474 0.191493 -0.275822
H1    H     H_    0.190650 0.466144 0.951157 0.193636
H2    H     H_    0.793046 0.357875 0.909202 0.138062
H3    H     H_    0.738020 0.797174 0.438412 0.219559
H4    H     H_    0.664538 0.153271 0.336723 0.121757
H5    H     H_    0.279077 0.207061 0.581516 0.163741
H6    H     H_    0.345535 0.908023 0.546057 0.189409
H7    H     H_    0.238141 0.020857 0.601287 0.150594
H8    H     H_    0.526810 0.255238 0.364397 0.151376
H9    H     H_    0.309706 0.657222 0.635993 0.133653
H10   H     H_    0.443146 0.493639 0.787579 0.161014
H11   H     H_    0.938499 0.666032 0.647509 0.158304
H12   H     H_    0.134179 0.695598 0.670795 0.144766
H13   H     H_    0.164255 0.450331 0.456424 0.127575
H14   H     H_    0.682906 0.354035 0.358120 0.115473
H15   H     H_    0.023446 0.385594 0.386715 0.130821
H16   H     H_    0.852936 0.311257 0.316153 0.139938
H17   H     H_    0.776619 0.583410 0.575888 0.215558
H18   H     H_    0.754979 0.416093 0.751510 0.164107
H19   H     H_    0.734792 0.327075 0.056098 0.147227
H20   H     H_    0.232990 0.541460 0.253164 0.154667
H21   H     H_    0.537695 0.450931 0.217781 0.169230
H22   H     H_    0.313600 0.433966 0.855296 0.152592
H23   H     H_    0.607456 0.347228 0.153404 0.137171
N1    N     N_R   0.239390 0.551900 0.544730 -0.102560
N2    N     N_R   0.759950 0.448600 0.455730 -0.125591
O1    O     O_R   0.374950 0.371210 0.521360 -0.616926
O2    O     O_R   0.542050 0.338030 0.492790 -0.609688
O3    O     O_R   0.368720 0.526070 0.390200 -0.623656
O4    O     O_R   0.535820 0.492890 0.361630 -0.629321
O5    O     O_R   0.457950 0.661970 0.507210 -0.553567
O6    O     O_R   0.625050 0.628790 0.478640 -0.639563
O7    O     O_R   0.464180 0.507110 0.638370 -0.620308
O8    O     O_R   0.631280 0.473930 0.609800 -0.631829
Zn1   Zn    Zn3+2 0.388420 0.522150 0.519080 0.946075
Zn2   Zn    Zn3+2 0.611580 0.477850 0.480920 0.928204
C49   C     C_2   0.790986 0.993362 0.376786 0.403568
H24   H     H_    0.811957 0.075521 0.368405 0.051810
O9    O     O_2   0.857284 0.936783 0.364541 -0.570260
O10   O     O_3   0.379012 0.818477 0.434488 -0.612490
C50   C     C_3   0.344449 0.806249 0.344349 0.135744
H25   H     H_    0.395954 0.755326 0.319113 0.132392
H26   H     H_    0.346139 0.882171 0.304138 0.136901
C51   C     C_3   0.229111 0.756785 0.333485 -0.777038
H27   H     H_    0.175181 0.806559 0.356708 0.263538
H28   H     H_    0.201035 0.746178 0.262852 0.200690
H29   H     H_    0.224932 0.680584 0.372522 0.263850
O11   O     O_3   0.134102 0.512331 0.087844 -0.625068
C52   C     C_3   0.059257 0.477058 0.146800 0.097560
H30   H     H_    0.057157 0.535596 0.193311 0.153282
H31   H     H_    0.078401 0.402177 0.184643 0.131587
C53   C     C_3   0.947139 0.461603 0.094561 -0.818891
H32   H     H_    0.945465 0.402207 0.048198 0.242713
H33   H     H_    0.887529 0.436028 0.140540 0.205083
H34   H     H_    0.924454 0.534841 0.056416 0.267941

loop_
_geom_bond_atom_site_label_1
_geom_bond_atom_site_label_2
_ccdc_geom_bond_type
O10   C50   S    
C43   N1    A    
C17   C29   A    
O11   C52   S    
C48   H21   S    
C4    C8    A    
C26   C27   A    
C17   C23   S    
C31   C43   A    
C1    O1    A    
C36   C37   A    
C49   O9    D    
C38   C42   A    
C3    C7    A    
C38   C39   A    
O4    Zn2   S    
C52   C53   S    
C16   C49   S    
C18   C19   A    
C18   H5    S    
C34   O7    A    
C11   C15   A    
C46   O11   S    
C19   C20   A    
C8    C9    A    
C52   H31   S    
C18   C30   A    
C34   O8    A    
C9    C10   A    
C44   C47   A    
C50   H25   S    
C40   H11   S    
C21   C22   A    
C12   O4    A    
O1    Zn1   S    
O8    Zn2   S    
C14   C45   A    
C1    O2    A    
C24   C25   A    
C7    H1    S    
C20   H6    S    
O3    Zn1   S    
C51   H27   S    
C27   H8    S    
C41   H17   S    
C2    C48   A    
C16   C29   A    
C35   C36   A    
C31   H12   S    
C2    C4    A    
C9    H19   S    
C26   H4    S    
C51   H28   S    
O5    Zn1   S    
C53   H32   S    
C50   C51   S    
C52   H30   S    
C28   O10   S    
C42   N1    A    
C14   H18   S    
C34   C45   S    
C49   H24   S    
C42   H13   S    
O7    Zn1   S    
C40   C41   A    
C53   H33   S    
C50   H26   S    
C22   C27   A    
C12   O3    A    
C15   H10   S    
C15   C45   A    
C47   H20   S    
C32   N2    A    
C29   H3    S    
C19   H7    S    
C16   C25   A    
C6    H22   S    
C37   N2    A    
C46   C47   A    
C8    H23   S    
C22   C30   A    
C17   C28   A    
C24   C28   A    
C4    C5    A    
C10   C13   A    
C5    C11   A    
C6    C7    A    
C3    C46   A    
C32   C33   A    
C36   C38   A    
C2    C3    A    
C25   C26   A    
C32   H14   S    
C12   C44   S    
C51   H29   S    
O6    Zn2   S    
O2    Zn2   S    
C5    C6    A    
C33   H16   S    
C1    C30   S    
C33   C35   A    
C31   C39   A    
C23   O5    A    
C37   C41   A    
C10   C11   A    
C43   H9    S    
C13   H2    S    
C39   C40   A    
C53   H34   S    
C20   C21   A    
C21   C24   A    
C35   H15   S    
C23   O6    A    
C13   C14   A    
N2    Zn2   S    
N1    Zn1   S    
C44   C48   A    
