data_mof_unit_48052.cif
_audit_creation_date              2012-12-10T17:35:33-0500
_audit_creation_method            fapswitch 2.2
_symmetry_space_group_name_H-M    P1
_symmetry_Int_Tables_number       1
_space_group_crystal_system       triclinic
_cell_length_a                    10.728955
_cell_length_b                    12.312553
_cell_length_c                    13.143833
_cell_angle_alpha                 116.708493
_cell_angle_beta                  77.10091
_cell_angle_gamma                 101.280169
_cell_volume                      1502.83667909

loop_
_atom_site_label
_atom_site_type_symbol
_atom_type_description
_atom_site_fract_x
_atom_site_fract_y
_atom_site_fract_z
_atom_type_partial_charge
C1    C     C_R   0.506076 0.855244 0.286844 0.888481
C2    C     C_3   0.122244 0.999639 0.499768 0.078988
C3    C     C_3   0.071373 0.119487 0.595093 -0.395525
C4    C     C_3   0.041253 0.889741 0.520576 -0.354331
C5    C     C_R   0.332884 0.273248 0.026673 -0.186046
C6    C     C_R   0.452453 0.228452 0.835743 -0.060753
C7    C     C_R   0.567130 0.817844 0.081472 -0.207024
C8    C     C_R   0.581373 0.740154 0.964311 0.501259
C9    C     C_R   0.540281 0.615715 0.928627 -0.280832
C10   C     C_R   0.479416 0.567751 0.009416 0.021869
C11   C     C_R   0.448183 0.650312 0.126211 0.080985
C12   C     C_R   0.740215 0.998003 0.497674 0.843607
C13   C     C_R   0.446133 0.440431 0.977489 0.109000
C14   C     C_R   0.367150 0.398878 0.057882 0.157851
C15   C     C_R   0.321572 0.483290 0.167707 -0.224853
C16   C     C_R   0.360523 0.607238 0.201240 -0.158985
C17   C     C_R   0.491904 0.352933 0.868566 -0.248904
C18   C     C_R   0.374443 0.188313 0.915638 -0.166507
C19   C     C_R   0.503916 0.773803 0.163610 -0.166111
C20   C     C_R   0.706836 0.346697 0.328113 -0.279334
C21   C     C_R   0.325537 0.760143 0.646520 0.125162
C22   C     C_R   0.288634 0.664451 0.679693 -0.204886
C23   C     C_R   0.480567 0.145243 0.713822 0.795272
C24   C     C_R   0.354686 0.561051 0.624947 -0.176997
C25   C     C_R   0.459188 0.552138 0.535757 0.019601
C26   C     C_R   0.494103 0.653157 0.505391 0.289394
C27   C     C_R   0.530475 0.447538 0.475894 -0.020499
C28   C     C_R   0.635224 0.447025 0.388158 0.157304
C29   C     C_R   0.668145 0.546552 0.360651 -0.248456
C30   C     C_R   0.599242 0.647088 0.417909 -0.169355
C31   C     C_R   0.502765 0.342409 0.498510 0.027911
C32   C     C_R   0.674765 0.246628 0.354679 0.079752
C33   C     C_R   0.259984 0.000842 0.501156 0.753386
C34   C     C_3   0.960600 0.979903 0.375753 0.323263
C35   C     C_3   0.105044 0.988092 0.381340 -0.393651
C36   C     C_3   0.929138 0.119264 0.589566 -0.461423
C37   C     C_3   0.897883 0.892262 0.525763 -0.317564
C38   C     C_3   0.878535 0.995613 0.495613 -0.004615
Cu1   Cu    Cu3+1 0.529690 0.098270 0.475420 0.950533
Cu2   Cu    Cu3+1 0.470310 0.901730 0.524580 0.957277
H1    H     H_    0.947304 0.056873 0.358008 0.088650
H2    H     H_    0.056279 0.893038 0.603115 0.173360
H3    H     H_    0.870452 0.135306 0.675424 0.183977
H4    H     H_    0.080314 0.128163 0.681263 0.172610
H5    H     H_    0.342441 0.092088 0.891336 0.168969
H6    H     H_    0.256469 0.453394 0.228439 0.144382
H7    H     H_    0.271778 0.240960 0.087405 0.145948
H8    H     H_    0.559071 0.379462 0.807203 0.159693
H9    H     H_    0.606374 0.912876 0.108404 0.201837
H10   H     H_    0.552367 0.559272 0.837051 0.172876
H11   H     H_    0.317348 0.668473 0.285460 0.166418
H12   H     H_    0.729531 0.168760 0.308641 0.143147
H13   H     H_    0.748328 0.546870 0.293812 0.198757
H14   H     H_    0.787079 0.345701 0.260992 0.150284
H15   H     H_    0.424657 0.334586 0.563265 0.117682
H16   H     H_    0.273943 0.840175 0.689677 0.118632
H17   H     H_    0.322171 0.489913 0.654307 0.128502
H18   H     H_    0.208651 0.670508 0.748175 0.155531
H19   H     H_    0.632446 0.718425 0.390664 0.239824
H20   H     H_    0.150284 0.907139 0.311541 0.203139
H21   H     H_    0.157103 0.069215 0.367690 0.149814
H22   H     H_    0.920302 0.196403 0.570197 0.184842
H23   H     H_    0.129220 0.200229 0.584326 0.174838
H24   H     H_    0.846970 0.908315 0.614212 0.189794
H25   H     H_    0.856170 0.801572 0.466449 0.221380
H26   H     H_    0.072233 0.801987 0.450054 0.200307
N1    N     N_R   0.574690 0.246280 0.438200 -0.186375
N2    N     N_R   0.426100 0.754320 0.561190 -0.210617
O1    O     O_R   0.537340 0.972510 0.318130 -0.572739
O2    O     O_R   0.487200 0.806530 0.359650 -0.605190
O3    O     O_R   0.707380 0.082980 0.479220 -0.589821
O4    O     O_R   0.657240 0.917000 0.520740 -0.585291
O5    O     O_R   0.512800 0.193470 0.640350 -0.590351
O6    O     O_R   0.462660 0.027490 0.681870 -0.569537
O7    O     O_R   0.342760 0.083000 0.479260 -0.592683
O8    O     O_R   0.292620 0.917020 0.520780 -0.612725
S1    S     S_3+6 0.652192 0.798870 0.862013 -0.018676
O9    O     O_2   0.710873 0.700154 0.752849 -0.311991
O10   O     O_2   0.549906 0.846040 0.835791 -0.299917
O11   O     O_3   0.766461 0.914380 0.915989 -0.539875
H27   H     H_    0.799447 0.943844 0.855101 0.363979
S2    S     S_3+6 0.915937 0.841369 0.254126 -0.048183
O12   O     O_2   0.953821 0.731592 0.256924 -0.336040
O13   O     O_2   0.774031 0.824809 0.253317 -0.345633
O14   O     O_3   0.993682 0.853217 0.132808 -0.523146
H28   H     H_    0.960246 0.778981 0.069227 0.385376

loop_
_geom_bond_atom_site_label_1
_geom_bond_atom_site_label_2
_ccdc_geom_bond_type
C2    C35   S    
C17   H8    S    
C7    C8    A    
S1    O9    D    
C31   N1    A    
C5    H7    S    
C11   C19   A    
C29   C30   A    
Cu2   O2    S    
C28   C29   A    
C15   C16   A    
C34   C35   S    
C32   H12   S    
C33   O7    A    
C8    C9    A    
C37   H25   S    
C16   H11   S    
Cu1   O7    S    
C9    C10   A    
C12   O4    A    
C21   C22   A    
C34   H1    S    
C23   O5    A    
C36   H22   S    
S1    O10   D    
C6    C18   A    
C3    H4    S    
C1    C19   S    
C27   C31   A    
C24   C25   A    
C7    H9    S    
C20   H14   S    
Cu1   Cu2   S    
C24   H17   S    
C5    C18   A    
C20   C28   A    
C25   C26   A    
O14   H28   S    
C1    O1    A    
Cu2   O8    S    
C35   H20   S    
C29   H13   S    
C2    C4    S    
C37   C38   S    
C11   C16   A    
C33   O8    A    
C30   H19   S    
Cu1   O1    S    
C35   H21   S    
C5    C14   A    
C32   N1    A    
C2    C33   S    
C12   O3    A    
C26   C30   A    
S2    O13   D    
C21   N2    A    
C8    S1    S    
C22   C24   A    
C23   O6    A    
C18   H5    S    
C37   H24   S    
C20   C32   A    
S1    O11   S    
C6    C17   A    
Cu2   O4    S    
C34   C38   S    
Cu1   N1    S    
C9    H10   S    
O11   H27   S    
C10   C13   A    
C22   H18   S    
C21   H16   S    
C3    H23   S    
C25   C27   A    
S2    O14   S    
C7    C19   A    
C1    O2    A    
C13   C17   A    
C26   N2    A    
C36   C38   S    
C2    C3    S    
C4    H26   S    
C4    H2    S    
C3    C36   S    
C6    C23   S    
Cu2   O6    S    
Cu1   O5    S    
C12   C38   S    
C10   C11   A    
C4    C37   S    
S2    O12   D    
Cu2   N2    S    
C27   C28   A    
Cu1   O3    S    
C14   C15   A    
C36   H3    S    
C34   S2    S    
C15   H6    S    
C31   H15   S    
C13   C14   A    
