data_mof_unit_16924.cif
_audit_creation_date              2012-12-11T14:55:44-0500
_audit_creation_method            fapswitch 2.2
_symmetry_space_group_name_H-M    P1
_symmetry_Int_Tables_number       1
_space_group_crystal_system       triclinic
_cell_length_a                    28.006489
_cell_length_b                    17.233859
_cell_length_c                    17.99402
_cell_angle_alpha                 90.108696
_cell_angle_beta                  137.960532
_cell_angle_gamma                 89.941148
_cell_volume                      5815.8268495

loop_
_atom_site_label
_atom_site_type_symbol
_atom_type_description
_atom_site_fract_x
_atom_site_fract_y
_atom_site_fract_z
_atom_type_partial_charge
C1    C     C_R   0.687184 0.898315 0.803361 -0.143343
C2    C     C_3   0.290632 0.701763 0.017842 -0.230891
C3    C     C_3   0.707667 0.709759 0.935973 0.127126
C4    C     C_3   0.208402 0.790599 0.937176 0.127001
C5    C     C_3   0.791694 0.208987 0.063247 0.126887
C6    C     C_3   0.836901 0.737261 0.031916 0.115677
C7    C     C_3   0.163105 0.262841 0.968187 0.115711
C8    C     C_3   0.271505 0.761914 0.055969 -0.196996
C9    C     C_3   0.728882 0.237698 0.944360 -0.196949
C10   C     C_3   0.772946 0.709180 0.910632 -0.204254
C11   C     C_3   0.227127 0.290919 0.089451 -0.204286
C12   C     C_3   0.726537 0.210270 0.088820 -0.204246
C13   C     C_3   0.246074 0.351245 0.049854 -0.227188
C14   C     C_3   0.273124 0.790150 0.910810 -0.204301
C15   C     C_3   0.229286 0.261295 0.945042 -0.197056
C16   C     C_3   0.770625 0.738613 0.054885 -0.197045
C17   C     C_3   0.318556 0.821868 0.070075 0.109578
C18   C     C_3   0.681440 0.178168 0.929891 0.109526
C19   C     C_3   0.726311 0.769084 0.897620 0.107091
C20   C     C_3   0.273673 0.230916 0.102384 0.107098
C21   C     C_3   0.773567 0.269235 0.101673 0.107162
C22   C     C_3   0.226487 0.730755 0.898324 0.107205
C23   C     C_3   0.182365 0.321821 0.930546 0.109566
C24   C     C_3   0.753990 0.648756 0.950128 -0.227122
C25   C     C_3   0.817635 0.678186 0.069459 0.109558
C26   C     C_1   0.590854 0.252742 0.913350 0.011084
C27   C     C_1   0.409046 0.748200 0.085745 0.011412
C28   C     C_1   0.362398 0.307661 0.113002 -0.007794
C29   C     C_1   0.637554 0.692138 0.886784 -0.007856
C30   C     C_1   0.138434 0.808427 0.888409 -0.007548
C31   C     C_1   0.861743 0.190701 0.112504 -0.007902
C32   C     C_1   0.908912 0.750857 0.086256 0.011207
C33   C     C_1   0.091109 0.249358 0.913943 0.011270
C34   C     C_3   0.254735 0.851132 0.950832 -0.227377
C35   C     C_3   0.744964 0.148867 0.049226 -0.227161
C36   C     C_3   0.790308 0.798229 0.017269 -0.230557
C37   C     C_3   0.209612 0.201775 0.982759 -0.230595
C38   C     C_R   0.715301 0.754599 0.619849 0.117337
C39   C     C_R   0.284608 0.245381 0.379845 0.117220
C40   C     C_R   0.386384 0.852127 0.641544 0.124645
C41   C     C_R   0.312812 0.101684 0.196643 -0.143306
C42   C     C_R   0.613605 0.147869 0.358435 0.124669
C43   C     C_R   0.113296 0.351841 0.357931 0.124591
C44   C     C_R   0.886750 0.648003 0.642153 0.124524
C45   C     C_R   0.784800 0.254487 0.380251 0.117086
C46   C     C_R   0.215200 0.745506 0.619745 0.117063
C47   C     C_R   0.262642 0.375120 0.401360 -0.223123
C48   C     C_R   0.737198 0.624870 0.598193 -0.223233
C49   C     C_R   0.606659 0.250033 0.258423 -0.220402
C50   C     C_R   0.393313 0.749943 0.741522 -0.220383
C51   C     C_R   0.893591 0.750332 0.742246 -0.220370
C52   C     C_R   0.335121 0.924573 0.183429 -0.124703
C53   C     C_R   0.106429 0.249484 0.257835 -0.220406
C54   C     C_R   0.236887 0.875147 0.597894 -0.223054
C55   C     C_R   0.763101 0.124837 0.402074 -0.223076
C56   C     C_R   0.306502 0.322962 0.415125 -0.180918
C57   C     C_R   0.693335 0.677057 0.584367 -0.180813
C58   C     C_R   0.578350 0.212485 0.287200 -0.169703
C59   C     C_R   0.421626 0.787501 0.712761 -0.169723
C60   C     C_R   0.921951 0.712757 0.713448 -0.169515
C61   C     C_R   0.078116 0.287037 0.286719 -0.169519
C62   C     C_R   0.193178 0.822992 0.584367 -0.180708
C63   C     C_R   0.664864 0.075427 0.816567 -0.124945
C64   C     C_R   0.806821 0.176999 0.415621 -0.180495
C65   C     C_R   0.213460 0.225372 0.311225 -0.287482
C66   C     C_R   0.786480 0.774545 0.688616 -0.287648
C67   C     C_R   0.667255 0.111300 0.379251 -0.271494
C68   C     C_R   0.332725 0.888685 0.620715 -0.271504
C69   C     C_R   0.833222 0.611312 0.621463 -0.271369
C70   C     C_R   0.166776 0.388556 0.378508 -0.271417
C71   C     C_R   0.286336 0.725643 0.688184 -0.287712
C72   C     C_R   0.713665 0.274354 0.311807 -0.287980
C73   C     C_R   0.170661 0.275935 0.302300 0.189338
C74   C     C_R   0.165881 0.424128 0.816973 -0.124438
C75   C     C_R   0.829288 0.723951 0.697587 0.189316
C76   C     C_R   0.698345 0.150737 0.356105 0.188717
C77   C     C_R   0.301636 0.849245 0.643855 0.188765
C78   C     C_R   0.802012 0.650818 0.644453 0.188737
C79   C     C_R   0.197909 0.349097 0.355348 0.188703
C80   C     C_R   0.329017 0.776233 0.696982 0.189462
C81   C     C_R   0.670967 0.223749 0.302978 0.189462
C82   C     C_R   0.325547 0.104878 0.404911 -0.144990
C83   C     C_R   0.674437 0.895118 0.595015 -0.144978
C84   C     C_R   0.639918 0.070870 0.507984 -0.124658
C85   C     C_R   0.834122 0.575870 0.183028 -0.124494
C86   C     C_R   0.360093 0.929140 0.492033 -0.124643
C87   C     C_R   0.860142 0.570973 0.492102 -0.123840
C88   C     C_R   0.139854 0.429007 0.507884 -0.123811
C89   C     C_R   0.174436 0.604954 0.595091 -0.146121
C90   C     C_R   0.825564 0.395043 0.404903 -0.146128
C91   C     C_R   0.442428 0.834678 0.579145 -0.136116
C92   C     C_R   0.557574 0.165326 0.420857 -0.136111
C93   C     C_R   0.591226 0.802915 0.504220 -0.134385
C94   C     C_R   0.408741 0.197092 0.495691 -0.134280
C95   C     C_R   0.908820 0.302940 0.495779 -0.135737
C96   C     C_R   0.812936 0.398491 0.196128 -0.143278
C97   C     C_R   0.091181 0.697058 0.504219 -0.135718
C98   C     C_R   0.057549 0.334486 0.420780 -0.134541
C99   C     C_R   0.942476 0.665467 0.579274 -0.134585
C100  C     C_R   0.580666 0.167205 0.725799 -0.132445
C101  C     C_R   0.419334 0.832814 0.274186 -0.132602
C102  C     C_R   0.395890 0.193694 0.286253 -0.145327
C103  C     C_R   0.604103 0.806310 0.713749 -0.145309
C104  C     C_R   0.104086 0.693610 0.714311 -0.145669
C105  C     C_R   0.895943 0.306400 0.285684 -0.145616
C106  C     C_R   0.918571 0.667178 0.273519 -0.132874
C107  C     C_R   0.187073 0.601499 0.803863 -0.143098
C108  C     C_R   0.081428 0.332825 0.726483 -0.132918
C109  C     C_R   0.674263 0.822835 0.808015 0.063938
C110  C     C_R   0.325727 0.177169 0.191993 0.063943
C111  C     C_R   0.363022 0.866180 0.171615 0.052577
C112  C     C_R   0.636964 0.133836 0.828369 0.052567
C113  C     C_R   0.138204 0.365888 0.829087 0.052136
C114  C     C_R   0.861798 0.634114 0.170915 0.052115
C115  C     C_R   0.825909 0.323120 0.191047 0.063919
C116  C     C_R   0.174128 0.676885 0.808933 0.063902
C117  C     C_R   0.337753 0.184179 0.428203 0.077133
C118  C     C_3   0.709720 0.298257 0.982059 -0.230691
C119  C     C_R   0.662201 0.815824 0.571632 0.077091
C120  C     C_R   0.603599 0.127845 0.425592 0.062535
C121  C     C_R   0.396407 0.872164 0.574416 0.062540
C122  C     C_R   0.896552 0.628002 0.574665 0.062494
C123  C     C_R   0.103473 0.371928 0.425376 0.062439
C124  C     C_R   0.162161 0.684214 0.571673 0.076875
C125  C     C_R   0.837839 0.315781 0.428319 0.076869
C126  C     C_3   0.662721 0.238200 0.967555 0.115613
C127  C     C_3   0.337243 0.762245 0.031996 0.115678
C128  C     C_3   0.292307 0.290146 0.063929 0.127170
H1    H     H_    0.738817 0.925452 0.856604 0.092645
H2    H     H_    0.083223 0.194954 0.213080 0.132534
H3    H     H_    0.216255 0.932065 0.560219 0.129332
H4    H     H_    0.783729 0.067916 0.439741 0.129304
H5    H     H_    0.283172 0.432142 0.438990 0.129373
H6    H     H_    0.716627 0.567884 0.560445 0.129351
H7    H     H_    0.583348 0.304432 0.213606 0.132643
H8    H     H_    0.416620 0.695542 0.786333 0.132648
H9    H     H_    0.274000 0.077187 0.341386 0.089492
H10   H     H_    0.725994 0.922791 0.658523 0.089485
H11   H     H_    0.679343 0.030958 0.532619 0.100303
H12   H     H_    0.261182 0.074545 0.143409 0.092596
H13   H     H_    0.320674 0.969057 0.467409 0.100313
H14   H     H_    0.820741 0.531054 0.467452 0.100190
H15   H     H_    0.179252 0.468924 0.532503 0.100189
H16   H     H_    0.226013 0.577399 0.658610 0.089776
H17   H     H_    0.773987 0.422597 0.341380 0.089768
H18   H     H_    0.478709 0.788162 0.633616 0.102422
H19   H     H_    0.521285 0.211837 0.366374 0.102412
H20   H     H_    0.565735 0.747614 0.484045 0.083384
H21   H     H_    0.434226 0.252398 0.515866 0.083406
H22   H     H_    0.934368 0.247661 0.516037 0.083280
H23   H     H_    0.287006 0.957156 0.117500 0.100065
H24   H     H_    0.065634 0.752337 0.483963 0.083283
H25   H     H_    0.021264 0.287884 0.366272 0.102707
H26   H     H_    0.978797 0.712024 0.633856 0.102722
H27   H     H_    0.550891 0.218345 0.707134 0.108633
H28   H     H_    0.449110 0.781682 0.292828 0.108574
H29   H     H_    0.420420 0.250498 0.315072 0.098837
H30   H     H_    0.579570 0.749507 0.684923 0.098877
H31   H     H_    0.079990 0.750596 0.685309 0.099007
H32   H     H_    0.920043 0.249419 0.314721 0.099113
H33   H     H_    0.948833 0.717752 0.292161 0.108649
H34   H     H_    0.712979 0.042846 0.882509 0.100198
H35   H     H_    0.051165 0.282254 0.707844 0.108633
H36   H     H_    0.270830 0.750901 0.116014 0.131387
H37   H     H_    0.729847 0.248375 0.884595 0.131413
H38   H     H_    0.772903 0.699020 0.849627 0.140048
H39   H     H_    0.227233 0.301160 0.150516 0.140081
H40   H     H_    0.726618 0.200942 0.149956 0.140013
H41   H     H_    0.272754 0.799807 0.849392 0.139991
H42   H     H_    0.230178 0.249736 0.885301 0.131428
H43   H     H_    0.769666 0.750092 0.114562 0.131435
H44   H     H_    0.695630 0.359817 0.955140 0.123730
H45   H     H_    0.214233 0.456546 0.882708 0.099688
H46   H     H_    0.305000 0.640216 0.044715 0.123670
H47   H     H_    0.260040 0.413114 0.075323 0.126098
H48   H     H_    0.740085 0.586885 0.924644 0.126107
H49   H     H_    0.241013 0.912963 0.925382 0.126115
H50   H     H_    0.758409 0.087024 0.074718 0.126221
H51   H     H_    0.804874 0.859814 0.044205 0.123703
H52   H     H_    0.194984 0.140192 0.955839 0.123645
H53   H     H_    0.805693 0.832620 0.721875 0.120040
H54   H     H_    0.194290 0.167264 0.278098 0.120009
H55   H     H_    0.307934 0.941393 0.572219 0.119780
H56   H     H_    0.785771 0.543452 0.117291 0.099718
H57   H     H_    0.692048 0.058595 0.427751 0.119782
H58   H     H_    0.191469 0.441406 0.426939 0.119785
H59   H     H_    0.808527 0.558477 0.573000 0.119764
H60   H     H_    0.694411 0.332383 0.278658 0.120162
H61   H     H_    0.305594 0.667618 0.721342 0.120121
H62   H     H_    0.640223 0.657771 0.536806 0.117072
H63   H     H_    0.359569 0.342301 0.462496 0.117098
H64   H     H_    0.466660 0.761072 0.737616 0.133099
H65   H     H_    0.533318 0.238922 0.262354 0.133115
H66   H     H_    0.033171 0.260467 0.261997 0.132757
H67   H     H_    0.761277 0.425491 0.142977 0.092617
H68   H     H_    0.966935 0.739284 0.738264 0.132892
H69   H     H_    0.859878 0.157742 0.462863 0.116947
H70   H     H_    0.140122 0.842250 0.537129 0.117000
H71   H     H_    0.238724 0.574481 0.856992 0.092493
H72   H     H_    0.916822 0.804829 0.787079 0.132556
N1    N     N_R   0.625380 0.928280 0.709340 -0.034151
N2    N     N_R   0.613900 0.929750 0.547530 -0.037052
N3    N     N_R   0.613900 0.070250 0.547530 -0.042701
N4    N     N_R   0.386100 0.929750 0.452470 -0.042700
N5    N     N_R   0.886100 0.570250 0.452470 -0.042461
N6    N     N_R   0.113900 0.429750 0.547530 -0.042461
N7    N     N_R   0.113900 0.570250 0.547530 -0.037384
N8    N     N_R   0.886100 0.429750 0.452470 -0.037381
N9    N     N_R   0.437800 0.869550 0.507970 -0.043841
N10   N     N_R   0.562200 0.130450 0.492030 -0.043839
N11   N     N_R   0.562200 0.869550 0.492030 -0.037428
N12   N     N_R   0.374620 0.071720 0.290660 -0.034157
N13   N     N_R   0.437800 0.130450 0.507970 -0.037458
N14   N     N_R   0.937800 0.369550 0.507970 -0.037569
N15   N     N_R   0.062200 0.630450 0.492030 -0.037574
N16   N     N_R   0.062200 0.369550 0.492030 -0.043805
N17   N     N_R   0.937800 0.630450 0.507970 -0.043804
N18   N     N_R   0.573690 0.128980 0.653840 -0.045174
N19   N     N_R   0.426310 0.871020 0.346160 -0.045159
N20   N     N_R   0.426310 0.128980 0.346160 -0.037194
N21   N     N_R   0.573690 0.871020 0.653840 -0.037198
N22   N     N_R   0.073690 0.628980 0.653840 -0.037246
N23   N     N_R   0.374620 0.928280 0.290660 -0.043005
N24   N     N_R   0.926310 0.371020 0.346160 -0.037250
N25   N     N_R   0.926310 0.628980 0.346160 -0.044967
N26   N     N_R   0.073690 0.371020 0.653840 -0.044964
N27   N     N_1   0.534111 0.264193 0.870488 -0.085316
N28   N     N_1   0.465737 0.737147 0.128243 -0.085229
N29   N     N_1   0.417493 0.322099 0.151379 -0.108588
N30   N     N_1   0.582441 0.677621 0.848312 -0.108547
N31   N     N_1   0.083423 0.823039 0.850242 -0.108304
N32   N     N_1   0.916822 0.175740 0.151073 -0.108257
N33   N     N_1   0.965767 0.761560 0.129223 -0.085202
N34   N     N_R   0.625380 0.071720 0.709340 -0.043003
N35   N     N_1   0.034265 0.238742 0.871052 -0.085198
N36   N     N_R   0.125380 0.428280 0.709340 -0.042533
N37   N     N_R   0.874620 0.571720 0.290660 -0.042526
N38   N     N_R   0.874620 0.428280 0.290660 -0.034226
N39   N     N_R   0.125380 0.571720 0.709340 -0.034239
N40   N     N_R   0.386100 0.070250 0.452470 -0.037068
Ni1   Ni    Ni4+2 0.616560 0.000000 0.627280 0.215343
Ni2   Ni    Ni4+2 0.383440 0.000000 0.372720 0.215351
Ni3   Ni    Ni4+2 0.116560 0.500000 0.627280 0.215421
Ni4   Ni    Ni4+2 0.883440 0.500000 0.372720 0.215417
Ni5   Ni    Ni4+2 0.497990 0.870580 0.500000 0.209572
Ni6   Ni    Ni4+2 0.502010 0.129420 0.500000 0.209565
Ni7   Ni    Ni4+2 0.997990 0.370580 0.500000 0.209657
Ni8   Ni    Ni4+2 0.002010 0.629420 0.500000 0.209648

loop_
_geom_bond_atom_site_label_1
_geom_bond_atom_site_label_2
_ccdc_geom_bond_type
C30   N31   T    
C63   H34   S    
C6    C32   S    
C68   H55   S    
C86   N4    A    
C39   C65   A    
C92   N10   A    
N6    Ni3   S    
N17   Ni8   S    
N1    N21   A    
N2    N11   A    
C4    C8    S    
N13   N40   A    
C1    N1    A    
C42   C58   A    
C69   C78   A    
C65   C73   A    
C48   C57   A    
C60   H68   S    
C52   H23   S    
N16   Ni7   S    
C7    C11   S    
C54   H3    S    
N5    N17   A    
N21   Ni5   S    
C106  C114  A    
C11   C13   S    
C50   C59   A    
N18   Ni6   S    
N36   Ni3   S    
C48   H6    S    
C85   C114  A    
C51   C75   A    
C29   N30   T    
C20   C128  S    
C97   C124  A    
C1    H1    S    
C19   C36   S    
C14   H41   S    
C94   C117  A    
C27   N28   T    
C77   C80   A    
C105  H32   S    
C12   C126  S    
N23   Ni2   S    
C83   C119  A    
C99   H26   S    
N38   Ni4   S    
N22   N39   A    
C16   C25   S    
N26   N36   A    
C13   C23   S    
C93   H20   S    
C14   C22   S    
C103  N21   A    
C26   C126  S    
C106  H33   S    
C48   C78   A    
C63   C112  A    
C3    C29   S    
C95   C125  A    
C72   H60   S    
C41   H12   S    
N12   Ni2   S    
C1    C109  A    
C104  C116  A    
C41   N12   A    
N22   Ni8   S    
C97   H24   S    
C96   H67   S    
C87   N5    A    
C99   N17   A    
C84   H11   S    
C45   C125  S    
C43   C70   A    
C14   C127  S    
C82   N40   A    
N4    N9    A    
C93   N11   A    
C67   C76   A    
C61   H66   S    
N19   Ni5   S    
C96   C115  A    
C3    C19   S    
N14   Ni7   S    
C47   C79   A    
N5    Ni4   S    
C18   C35   S    
C69   H59   S    
C88   H15   S    
N20   Ni6   S    
C72   C81   A    
C33   N35   T    
C91   N9    A    
C32   N33   T    
C54   C77   A    
C2    C127  S    
N25   Ni8   S    
C15   C23   S    
C4    C22   S    
C49   H7    S    
C98   H25   S    
C100  N18   A    
N15   Ni8   S    
C40   C59   A    
C64   H69   S    
C47   H5    S    
C92   H19   S    
C11   H39   S    
C9    C118  S    
C7    C33   S    
C46   C124  S    
C3    C24   S    
C36   H51   S    
C53   C61   A    
C83   N2    A    
C17   C111  S    
C102  H29   S    
C104  N22   A    
C71   C80   A    
C65   H54   S    
C19   C109  S    
C7    C37   S    
C98   C123  A    
C108  H35   S    
C4    C34   S    
C11   C20   S    
C44   C60   A    
N3    Ni1   S    
C90   N8    A    
N9    Ni5   S    
C40   C68   A    
C2    H46   S    
C38   C66   A    
N26   Ni7   S    
C21   C115  S    
C52   C111  A    
C24   C25   S    
N18   N34   A    
C74   H45   S    
C8    H36   S    
C88   N6    A    
C17   C127  S    
N12   N20   A    
C101  H28   S    
C10   C24   S    
C39   C117  S    
N2    Ni1   S    
C107  N39   A    
C12   C21   S    
C49   C58   A    
C27   C127  S    
C15   H42   S    
C94   H21   S    
C108  C113  A    
C5    C9    S    
C21   C118  S    
C40   C121  S    
N7    Ni3   S    
C23   C113  S    
C38   C57   A    
C88   C123  A    
C101  N19   A    
N24   Ni7   S    
C39   C56   A    
C118  H44   S    
C10   C19   S    
C84   C120  A    
C55   C64   A    
C86   C121  A    
N7    N15   A    
N40   Ni2   S    
C73   C79   A    
C106  N25   A    
C5    C21   S    
C44   C69   A    
N3    N10   A    
C95   H22   S    
C71   H61   S    
C12   C35   S    
C62   H70   S    
C46   C71   A    
C44   C122  S    
C99   C122  A    
C20   C110  S    
C38   C119  S    
C84   N3    A    
C66   H53   S    
C46   C62   A    
C100  C112  A    
C85   H56   S    
C15   C128  S    
C97   N15   A    
C42   C67   A    
C59   H64   S    
C102  C110  A    
C85   N37   A    
C101  C111  A    
C17   C34   S    
C55   C76   A    
C104  H31   S    
C74   N36   A    
C24   H48   S    
C43   C123  S    
C43   C61   A    
N1    Ni1   S    
N6    N16   A    
C68   C77   A    
C13   H47   S    
C37   H52   S    
C98   N16   A    
C94   N13   A    
N8    N14   A    
C58   H65   S    
N37   Ni4   S    
C70   C79   A    
C96   N38   A    
C105  C115  A    
C53   C73   A    
N8    Ni4   S    
C18   C112  S    
C50   C80   A    
C76   C81   A    
C14   C34   S    
C87   C122  A    
N4    Ni2   S    
C51   H72   S    
C103  H30   S    
N25   N37   A    
C51   C60   A    
C89   C124  A    
C102  N20   A    
C10   H38   S    
C82   H9    S    
C105  N24   A    
C54   C62   A    
C45   C64   A    
C8    C17   S    
C13   C128  S    
C103  C109  A    
C41   C110  A    
N11   Ni5   S    
C26   N27   T    
C9    H37   S    
C92   C120  A    
C57   H62   S    
C118  C126  S    
C12   H40   S    
C15   C37   S    
C25   C114  S    
C16   C36   S    
C63   N34   A    
C107  H71   S    
C20   C37   S    
C74   C113  A    
C16   H43   S    
C42   C120  S    
C89   N7    A    
C108  N26   A    
C35   H50   S    
C31   N32   T    
C7    C23   S    
C66   C75   A    
C5    C35   S    
C22   C116  S    
C2    C22   S    
C90   C125  A    
C6    C36   S    
C49   C81   A    
C89   H16   S    
C83   H10   S    
C87   H14   S    
N13   Ni6   S    
C75   C78   A    
C4    C30   S    
C107  C116  A    
C56   H63   S    
C6    C10   S    
C70   H58   S    
N34   Ni1   S    
N19   N23   A    
C6    C25   S    
C67   H57   S    
C9    C18   S    
C100  H27   S    
C52   N23   A    
N39   Ni3   S    
C55   H4    S    
C91   C121  A    
C2    C8    S    
C90   H17   S    
C95   N14   A    
N10   Ni6   S    
C34   H49   S    
C50   H8    S    
C53   H2    S    
C93   C119  A    
C82   C117  A    
C5    C31   S    
N24   N38   A    
C28   N29   T    
C91   H18   S    
C18   C126  S    
C3    C16   S    
C28   C128  S    
C86   H13   S    
C47   C56   A    
C45   C72   A    
