data_mof_unit_62569.cif
_audit_creation_date              2012-12-10T17:54:29-0500
_audit_creation_method            fapswitch 2.2
_symmetry_space_group_name_H-M    P1
_symmetry_Int_Tables_number       1
_space_group_crystal_system       tetragonal
_cell_length_a                    21.600626
_cell_length_b                    21.600626
_cell_length_c                    30.094435
_cell_angle_alpha                 90.0
_cell_angle_beta                  90.0
_cell_angle_gamma                 90.0
_cell_volume                      14041.6734552

loop_
_atom_site_label
_atom_site_type_symbol
_atom_type_description
_atom_site_fract_x
_atom_site_fract_y
_atom_site_fract_z
_atom_type_partial_charge
C1    C     C_R   0.500000 0.120063 0.500000 0.993689
C2    C     C_R   1.000000 0.500000 0.773219 0.061794
C3    C     C_R   0.958827 0.538489 0.842617 -0.218372
C4    C     C_R   0.538489 0.958827 0.157383 -0.218371
C5    C     C_R   0.041173 0.538489 0.157383 -0.218372
C6    C     C_R   0.461511 0.041173 0.157383 -0.218372
C7    C     C_R   0.958827 0.461511 0.157383 -0.218370
C8    C     C_R   0.038489 0.541173 0.342617 -0.218373
C9    C     C_R   0.541173 0.961511 0.342617 -0.218373
C10   C     C_R   0.961511 0.458827 0.342617 -0.218371
C11   C     C_R   0.458827 0.038489 0.342617 -0.218371
C12   C     C_R   0.038489 0.458827 0.657383 -0.218373
C13   C     C_R   0.500000 1.000000 0.226781 0.061794
C14   C     C_R   0.541173 0.038489 0.657383 -0.218371
C15   C     C_R   0.961511 0.541173 0.657383 -0.218371
C16   C     C_R   0.458827 0.961511 0.657383 -0.218373
C17   C     C_R   0.500000 0.000000 0.865378 -0.042386
C18   C     C_R   0.000000 0.500000 0.865378 -0.042386
C19   C     C_R   0.500000 0.000000 0.134622 -0.042386
C20   C     C_R   0.000000 0.500000 0.134622 -0.042386
C21   C     C_R   0.000000 0.500000 0.365378 -0.042386
C22   C     C_R   0.500000 0.000000 0.365378 -0.042386
C23   C     C_R   0.000000 0.500000 0.634622 -0.042386
C24   C     C_R   1.000000 0.500000 0.226781 0.061794
C25   C     C_R   0.500000 1.000000 0.634622 -0.042386
C26   C     C_R   0.460481 0.959183 0.796437 0.114593
C27   C     C_R   0.959183 0.539519 0.796437 0.114593
C28   C     C_R   0.539519 0.040816 0.796437 0.114593
C29   C     C_R   0.040816 0.460481 0.796437 0.114593
C30   C     C_R   0.460481 0.040816 0.203563 0.114593
C31   C     C_R   0.959183 0.460481 0.203563 0.114593
C32   C     C_R   0.539519 0.959183 0.203563 0.114593
C33   C     C_R   0.040816 0.539519 0.203563 0.114593
C34   C     C_R   0.960481 0.459183 0.296437 0.114593
C35   C     C_R   1.000000 0.500000 0.273219 0.061794
C36   C     C_R   0.459183 0.039519 0.296437 0.114593
C37   C     C_R   0.039519 0.540817 0.296437 0.114593
C38   C     C_R   0.540817 0.960481 0.296437 0.114593
C39   C     C_R   0.960481 0.540817 0.703563 0.114593
C40   C     C_R   0.459183 0.960481 0.703563 0.114593
C41   C     C_R   0.039519 0.459183 0.703563 0.114593
C42   C     C_R   0.540817 0.039519 0.703563 0.114593
C43   C     C_R   0.500000 1.000000 0.273219 0.061794
C44   C     C_R   1.000000 0.500000 0.726781 0.061794
C45   C     C_R   0.500000 0.000000 0.726781 0.061794
C46   C     C_R   0.420611 0.919657 0.773136 -0.190968
C47   C     C_R   0.919657 0.579389 0.773136 -0.190968
C48   C     C_R   0.579389 0.080342 0.773136 -0.190968
C49   C     C_R   0.120062 0.500000 0.500000 0.993687
C50   C     C_R   0.080342 0.420611 0.773136 -0.190968
C51   C     C_R   0.420611 0.080342 0.226864 -0.190968
C52   C     C_R   0.919658 0.420611 0.226864 -0.190968
C53   C     C_R   0.579389 0.919658 0.226864 -0.190968
C54   C     C_R   0.080342 0.579389 0.226863 -0.190968
C55   C     C_R   0.920611 0.419657 0.273136 -0.190968
C56   C     C_R   0.419657 0.079389 0.273136 -0.190968
C57   C     C_R   0.079389 0.580343 0.273136 -0.190969
C58   C     C_R   0.580343 0.920611 0.273136 -0.190969
C59   C     C_R   0.920611 0.580343 0.726864 -0.190968
C60   C     C_R   0.500000 0.879937 0.500000 0.993687
C61   C     C_R   0.419657 0.920611 0.726864 -0.190969
C62   C     C_R   0.079389 0.419657 0.726864 -0.190969
C63   C     C_R   0.580343 0.079389 0.726864 -0.190969
C64   C     C_R   0.533609 0.217745 0.467437 0.574915
C65   C     C_R   0.217746 0.466390 0.467438 0.574915
C66   C     C_R   0.466390 0.782254 0.467438 0.574916
C67   C     C_R   0.782255 0.533609 0.467437 0.574914
C68   C     C_R   0.533610 0.782254 0.532562 0.574915
C69   C     C_R   0.217746 0.533610 0.532562 0.574915
C70   C     C_R   0.466391 0.217745 0.532563 0.574914
C71   C     C_R   0.879937 0.500000 0.500000 0.993690
C72   C     C_R   0.782255 0.466391 0.532563 0.574915
C73   C     C_R   0.033609 0.717745 0.967437 0.574914
C74   C     C_R   0.717745 0.966392 0.967436 0.574913
C75   C     C_R   0.966392 0.282255 0.967436 0.574914
C76   C     C_R   0.282255 0.033609 0.967437 0.574914
C77   C     C_R   0.033608 0.282255 0.032564 0.574913
C78   C     C_R   0.717745 0.033608 0.032564 0.574913
C79   C     C_R   0.966391 0.717745 0.032563 0.574914
C80   C     C_R   0.282255 0.966391 0.032563 0.574914
C81   C     C_R   0.500000 0.186084 0.500000 -0.308459
C82   C     C_R   0.000000 0.620062 0.000000 0.993689
C83   C     C_R   0.186084 0.500000 0.500000 -0.308459
C84   C     C_R   0.500000 0.813916 0.500000 -0.308459
C85   C     C_R   0.813916 0.500000 0.500000 -0.308459
C86   C     C_R   1.000000 0.686084 0.000000 -0.308459
C87   C     C_R   0.686084 0.000000 0.000000 -0.308460
C88   C     C_R   1.000000 0.313916 0.000000 -0.308461
C89   C     C_R   0.313916 1.000000 0.000000 -0.308459
C90   C     C_R   0.500000 1.000000 0.586800 0.910729
C91   C     C_R   0.000000 0.500000 0.586800 0.910729
C92   C     C_R   0.500000 1.000000 0.413200 0.910730
C93   C     C_R   0.620062 0.000000 0.000000 0.993691
C94   C     C_R   0.000000 0.500000 0.413200 0.910730
C95   C     C_R   0.000000 0.500000 0.086800 0.910732
C96   C     C_R   0.500000 0.000000 0.086800 0.910731
C97   C     C_R   1.000000 0.500000 0.913200 0.910732
C98   C     C_R   0.500000 1.000000 0.913200 0.910732
C99   C     C_R   0.532953 0.281686 0.467152 -0.251645
C100  C     C_R   0.281687 0.467046 0.467152 -0.251645
C101  C     C_R   0.467046 0.718313 0.467152 -0.251645
C102  C     C_R   0.718314 0.532953 0.467152 -0.251645
C103  C     C_R   0.532954 0.718313 0.532848 -0.251645
C104  C     C_R   0.000000 0.379938 0.000000 0.993691
C105  C     C_R   0.281687 0.532954 0.532848 -0.251645
C106  C     C_R   0.467047 0.281686 0.532848 -0.251645
C107  C     C_R   0.718314 0.467047 0.532848 -0.251645
C108  C     C_R   0.032953 0.781686 0.967152 -0.251645
C109  C     C_R   0.781686 0.967048 0.967151 -0.251644
C110  C     C_R   0.967048 0.218313 0.967151 -0.251644
C111  C     C_R   0.218313 0.032953 0.967152 -0.251645
C112  C     C_R   0.032952 0.218313 0.032849 -0.251644
C113  C     C_R   0.781686 0.032952 0.032849 -0.251644
C114  C     C_R   0.967047 0.781686 0.032848 -0.251645
C115  C     C_R   0.379937 0.000000 0.000000 0.993690
C116  C     C_R   0.218313 0.967047 0.032848 -0.251645
C117  C     C_R   0.500000 0.313410 0.500000 -0.208465
C118  C     C_R   0.313410 0.500000 0.500000 -0.208466
C119  C     C_R   0.500000 0.686590 0.500000 -0.208466
C120  C     C_R   0.686590 0.500000 0.500000 -0.208465
C121  C     C_R   0.000000 0.813410 0.000000 -0.208466
C122  C     C_R   0.813410 0.000000 0.000000 -0.208465
C123  C     C_R   1.000000 0.186590 0.000000 -0.208465
C124  C     C_R   0.186590 1.000000 0.000000 -0.208466
C125  C     C_R   0.379677 0.500000 0.500000 0.934292
C126  C     C_R   0.500000 0.000000 0.773219 0.061794
C127  C     C_R   0.500000 0.620323 0.500000 0.934292
C128  C     C_R   0.620323 0.500000 0.500000 0.934292
C129  C     C_R   0.500000 0.379677 0.500000 0.934292
C130  C     C_R   0.879677 0.000000 0.000000 0.934293
C131  C     C_R   1.000000 0.120323 0.000000 0.934292
C132  C     C_R   0.120323 1.000000 0.000000 0.934292
C133  C     C_R   1.000000 0.879677 0.000000 0.934293
C134  C     C_R   0.538489 0.041173 0.842617 -0.218371
C135  C     C_R   0.041173 0.461511 0.842617 -0.218371
C136  C     C_R   0.461511 0.958827 0.842617 -0.218372
F1    F     F_    0.565677 0.186774 0.435604 -0.645877
F2    F     F_    0.686774 0.934325 0.935603 -0.645877
F3    F     F_    0.934324 0.313226 0.935603 -0.645877
F4    F     F_    0.313226 0.065677 0.935604 -0.645877
F5    F     F_    0.065675 0.313226 0.064397 -0.645877
F6    F     F_    0.686774 0.065676 0.064397 -0.645878
F7    F     F_    0.934323 0.686774 0.064396 -0.645877
F8    F     F_    0.313226 0.934323 0.064396 -0.645877
F9    F     F_    0.186775 0.434321 0.435606 -0.645877
F10   F     F_    0.434320 0.813226 0.435606 -0.645876
F11   F     F_    0.813226 0.565677 0.435604 -0.645877
F12   F     F_    0.565679 0.813225 0.564394 -0.645877
F13   F     F_    0.186774 0.565679 0.564394 -0.645877
F14   F     F_    0.434323 0.186774 0.564396 -0.645877
F15   F     F_    0.813226 0.434323 0.564396 -0.645877
F16   F     F_    0.065677 0.686774 0.935604 -0.645877
H1    H     H_    0.390009 0.888319 0.790694 0.158717
H2    H     H_    0.388318 0.109991 0.290694 0.158717
H3    H     H_    0.109991 0.611682 0.290694 0.158717
H4    H     H_    0.611682 0.890009 0.290694 0.158717
H5    H     H_    0.890009 0.611682 0.709306 0.158717
H6    H     H_    0.388318 0.890009 0.709306 0.158717
H7    H     H_    0.109991 0.388318 0.709306 0.158717
H8    H     H_    0.611682 0.109991 0.709306 0.158717
H9    H     H_    0.558692 0.306391 0.441832 0.194095
H10   H     H_    0.306392 0.441306 0.441833 0.194094
H11   H     H_    0.441306 0.693608 0.441833 0.194094
H12   H     H_    0.888319 0.609991 0.790694 0.158717
H13   H     H_    0.693608 0.558692 0.441832 0.194095
H14   H     H_    0.558694 0.693608 0.558167 0.194094
H15   H     H_    0.306392 0.558694 0.558167 0.194094
H16   H     H_    0.441308 0.306391 0.558168 0.194095
H17   H     H_    0.693608 0.441308 0.558168 0.194095
H18   H     H_    0.058692 0.806391 0.941831 0.194095
H19   H     H_    0.806391 0.941310 0.941831 0.194095
H20   H     H_    0.941310 0.193608 0.941831 0.194095
H21   H     H_    0.193608 0.058692 0.941831 0.194095
H22   H     H_    0.058690 0.193608 0.058169 0.194095
H23   H     H_    0.609991 0.111681 0.790694 0.158717
H24   H     H_    0.806391 0.058690 0.058169 0.194095
H25   H     H_    0.941308 0.806391 0.058168 0.194095
H26   H     H_    0.193608 0.941308 0.058168 0.194095
H27   H     H_    0.568393 0.072439 0.860938 0.155516
H28   H     H_    0.072439 0.431607 0.860938 0.155516
H29   H     H_    0.431607 0.927561 0.860938 0.155516
H30   H     H_    0.927561 0.568393 0.860938 0.155516
H31   H     H_    0.568393 0.927561 0.139062 0.155516
H32   H     H_    0.072438 0.568393 0.139062 0.155516
H33   H     H_    0.431607 0.072439 0.139062 0.155516
H34   H     H_    0.111681 0.390009 0.790694 0.158717
H35   H     H_    0.927561 0.431607 0.139062 0.155516
H36   H     H_    0.068392 0.572439 0.360938 0.155516
H37   H     H_    0.572439 0.931607 0.360938 0.155516
H38   H     H_    0.931607 0.427561 0.360938 0.155516
H39   H     H_    0.427561 0.068393 0.360938 0.155516
H40   H     H_    0.068393 0.427561 0.639062 0.155516
H41   H     H_    0.572439 0.068393 0.639062 0.155516
H42   H     H_    0.931607 0.572439 0.639062 0.155516
H43   H     H_    0.427561 0.931607 0.639062 0.155516
H44   H     H_    0.390009 0.111681 0.209306 0.158717
H45   H     H_    0.888319 0.390009 0.209306 0.158717
H46   H     H_    0.609991 0.888319 0.209306 0.158717
H47   H     H_    0.111681 0.609991 0.209306 0.158717
H48   H     H_    0.890009 0.388318 0.290694 0.158717
O1    O     O_R   0.448270 0.091530 0.499990 -0.595932
O2    O     O_R   0.591530 0.051730 0.999990 -0.595934
O3    O     O_R   0.051730 0.408470 0.999990 -0.595934
O4    O     O_R   0.408470 0.948270 0.999990 -0.595932
O5    O     O_R   0.948270 0.408470 0.000010 -0.595934
O6    O     O_R   0.591530 0.948270 0.000010 -0.595934
O7    O     O_R   0.051730 0.591530 0.000010 -0.595933
O8    O     O_R   0.408470 0.051730 0.000010 -0.595933
O9    O     O_R   0.448270 0.999890 0.566070 -0.617247
O10   O     O_R   0.999890 0.551730 0.566070 -0.617248
O11   O     O_R   0.551730 0.000110 0.566070 -0.617248
O12   O     O_R   0.091530 0.551730 0.499990 -0.595931
O13   O     O_R   0.000110 0.448270 0.566070 -0.617247
O14   O     O_R   0.448270 0.000110 0.433930 -0.617247
O15   O     O_R   0.999890 0.448270 0.433930 -0.617247
O16   O     O_R   0.551730 0.999890 0.433930 -0.617247
O17   O     O_R   0.000110 0.551730 0.433930 -0.617247
O18   O     O_R   0.948270 0.499890 0.066070 -0.617247
O19   O     O_R   0.499890 0.051730 0.066070 -0.617248
O20   O     O_R   0.051730 0.500110 0.066070 -0.617248
O21   O     O_R   0.500110 0.948270 0.066070 -0.617247
O22   O     O_R   0.948270 0.500110 0.933930 -0.617247
O23   O     O_R   0.551730 0.908470 0.499990 -0.595931
O24   O     O_R   0.499890 0.948270 0.933930 -0.617247
O25   O     O_R   0.051730 0.499890 0.933930 -0.617248
O26   O     O_R   0.500110 0.051730 0.933930 -0.617248
O27   O     O_R   0.408290 0.499920 0.462700 -0.621908
O28   O     O_R   0.499920 0.591710 0.462700 -0.621908
O29   O     O_R   0.591710 0.500080 0.462700 -0.621908
O30   O     O_R   0.500080 0.408290 0.462700 -0.621908
O31   O     O_R   0.408290 0.500080 0.537300 -0.621908
O32   O     O_R   0.499920 0.408290 0.537300 -0.621909
O33   O     O_R   0.591710 0.499920 0.537300 -0.621909
O34   O     O_R   0.908470 0.448270 0.499990 -0.595932
O35   O     O_R   0.500080 0.591710 0.537300 -0.621908
O36   O     O_R   0.908290 0.999920 0.962700 -0.621908
O37   O     O_R   0.999920 0.091710 0.962700 -0.621908
O38   O     O_R   0.091710 0.000080 0.962700 -0.621908
O39   O     O_R   0.000080 0.908290 0.962700 -0.621908
O40   O     O_R   0.908290 0.000080 0.037300 -0.621909
O41   O     O_R   0.999920 0.908290 0.037300 -0.621909
O42   O     O_R   0.091710 0.999920 0.037300 -0.621909
O43   O     O_R   0.000080 0.091710 0.037300 -0.621909
O44   O     O_R   0.448270 0.908470 0.500010 -0.595931
O45   O     O_R   0.091530 0.448270 0.500010 -0.595931
O46   O     O_R   0.551730 0.091530 0.500010 -0.595933
O47   O     O_R   0.908470 0.551730 0.500010 -0.595933
O48   O     O_R   0.948270 0.591530 0.999990 -0.595932
Zn1   Zn    Zn3+2 0.430930 0.000000 0.500000 1.052354
Zn2   Zn    Zn3+2 0.500000 0.500000 0.549800 0.989367
Zn3   Zn    Zn3+2 0.000000 0.000000 0.950200 0.989367
Zn4   Zn    Zn3+2 0.000000 0.000000 0.049800 0.989367
Zn5   Zn    Zn3+2 0.000000 0.569070 0.500000 1.052354
Zn6   Zn    Zn3+2 0.569070 0.000000 0.500000 1.052354
Zn7   Zn    Zn3+2 0.000000 0.430930 0.500000 1.052354
Zn8   Zn    Zn3+2 0.930930 0.500000 0.000000 1.052353
Zn9   Zn    Zn3+2 0.500000 0.069070 0.000000 1.052352
Zn10  Zn    Zn3+2 0.069070 0.500000 0.000000 1.052352
Zn11  Zn    Zn3+2 0.500000 0.930930 0.000000 1.052353
Zn12  Zn    Zn3+2 0.500000 0.500000 0.450200 0.989368

loop_
_geom_bond_atom_site_label_1
_geom_bond_atom_site_label_2
_ccdc_geom_bond_type
C78   C87   A    
C112  H22   S    
O6    Zn11  S    
C89   C115  S    
C128  O29   A    
C108  H18   S    
O38   Zn3   S    
C60   C84   S    
C107  C120  A    
C13   C32   A    
C97   O25   A    
C70   F14   S    
C68   C103  A    
C71   O47   A    
C31   C52   A    
C30   C51   A    
C1    O1    A    
C74   C109  A    
C72   C85   A    
C5    C20   A    
C8    H36   S    
C6    C19   A    
C57   H3    S    
C12   C23   A    
C130  O40   A    
C94   O15   A    
C10   H38   S    
C29   C135  A    
C2    C29   A    
C28   C134  A    
C53   H46   S    
C41   C62   A    
C7    H35   S    
C11   C36   A    
C35   C37   A    
O25   Zn10  S    
C51   C56   A    
C116  H26   S    
C1    O46   A    
C78   F6    S    
C90   O11   A    
O4    Zn11  S    
C9    C22   A    
C65   C83   A    
C21   C94   S    
C1    C81   S    
C80   C89   A    
C95   O18   A    
C97   O22   A    
C124  C132  S    
C3    C18   A    
C34   C35   A    
C26   C126  A    
C71   O34   A    
O12   Zn5   S    
C70   C81   A    
C132  O38   A    
C133  O41   A    
C38   C58   A    
C15   H42   S    
C125  O27   A    
C64   C99   A    
C79   F7    S    
C113  C122  A    
C80   C116  A    
C77   C88   A    
C2    C44   A    
C80   F8    S    
C98   O24   A    
C136  H29   S    
C92   O14   A    
C2    C27   A    
O19   Zn9   S    
C18   C97   S    
C134  H27   S    
O34   Zn7   S    
C117  C129  S    
C17   C98   S    
C108  C121  A    
C5    H32   S    
C68   F12   S    
C52   C55   A    
C76   C89   A    
C14   C42   A    
C48   H23   S    
C6    H33   S    
C114  H25   S    
C120  C128  S    
C15   C23   A    
C34   C55   A    
C4    H31   S    
C22   C92   S    
C71   C85   S    
C115  O8    A    
C4    C19   A    
C66   C101  A    
O41   Zn4   S    
C63   H8    S    
O14   Zn1   S    
C91   O10   A    
C9    H37   S    
C93   O6    A    
O26   Zn9   S    
C82   O7    A    
C88   C104  S    
C28   C126  A    
O33   Zn2   S    
C95   O20   A    
C29   C50   A    
C76   F4    S    
C10   C21   A    
C121  C133  S    
C40   C45   A    
C12   H40   S    
C67   C85   A    
C24   C35   A    
C60   O44   A    
O44   Zn1   S    
C46   C61   A    
O39   Zn3   S    
C68   C84   A    
C104  O3    A    
C13   C30   A    
C101  H11   S    
C7    C31   A    
C112  C123  A    
C56   H2    S    
C70   C106  A    
O2    Zn9   S    
C69   C105  A    
C48   C63   A    
O46   Zn6   S    
C82   C86   S    
O7    Zn10  S    
C47   C59   A    
C129  O30   A    
C6    C30   A    
C94   O17   A    
C54   H47   S    
C105  H15   S    
C5    C33   A    
C42   C45   A    
C101  C119  A    
C77   C112  A    
O20   Zn10  S    
O10   Zn5   S    
C12   C41   A    
C69   C83   A    
C110  C123  A    
C99   C117  A    
C74   F2    S    
C55   H48   S    
C129  O32   A    
C72   C107  A    
C45   C126  A    
C72   F15   S    
C39   C59   A    
C115  O4    A    
C17   C136  A    
O15   Zn7   S    
C8    C21   A    
C25   C90   S    
O48   Zn8   S    
C10   C34   A    
O17   Zn5   S    
C104  O5    A    
C110  H20   S    
O31   Zn2   S    
C93   O2    A    
C40   C61   A    
C15   C39   A    
C4    C32   A    
O5    Zn8   S    
C58   H4    S    
O27   Zn12  S    
C16   C40   A    
C113  H24   S    
C18   C135  A    
C47   H12   S    
O47   Zn5   S    
C132  O42   A    
C118  C125  S    
C14   H41   S    
O30   Zn12  S    
O40   Zn4   S    
C102  H13   S    
O1    Zn1   S    
O24   Zn11  S    
C73   F16   S    
C67   F11   S    
C127  O28   A    
C74   C87   A    
C41   C44   A    
C23   C91   S    
C105  C118  A    
O13   Zn7   S    
C78   C113  A    
O32   Zn2   S    
C8    C37   A    
O36   Zn3   S    
C65   F9    S    
C50   H34   S    
C60   O23   A    
C32   C53   A    
C13   C43   A    
C102  C120  A    
C36   C56   A    
C107  H17   S    
C27   C47   A    
C16   C25   A    
C46   H1    S    
C99   H9    S    
C28   C48   A    
C75   C110  A    
O16   Zn6   S    
O43   Zn4   S    
C116  C124  A    
C123  C131  S    
C111  C124  A    
C111  H21   S    
C20   C95   S    
C103  C119  A    
C65   C100  A    
C64   F1    S    
C125  O31   A    
O8    Zn9   S    
C135  H28   S    
C90   O9    A    
O28   Zn12  S    
C53   C58   A    
O3    Zn10  S    
C39   C44   A    
C52   H45   S    
O22   Zn8   S    
C96   O19   A    
C11   C22   A    
C127  O35   A    
C24   C33   A    
O35   Zn2   S    
C82   O48   A    
C51   H44   S    
O42   Zn4   S    
C49   C83   S    
C3    C27   A    
C24   C31   A    
C69   F13   S    
C38   C43   A    
C106  C117  A    
C16   H43   S    
C75   F3    S    
C61   H6    S    
C59   H5    S    
O23   Zn6   S    
C33   C54   A    
C131  O37   A    
C76   C111  A    
C50   C62   A    
C87   C93   S    
C49   O12   A    
C130  O36   A    
C9    C38   A    
C7    C20   A    
C92   O16   A    
C11   H39   S    
C14   C25   A    
C109  C122  A    
C3    H30   S    
C77   F5    S    
C64   C81   A    
C66   F10   S    
C26   C136  A    
O11   Zn6   S    
C114  C121  A    
C66   C84   A    
O29   Zn12  S    
C49   O45   A    
C75   C88   A    
C128  O33   A    
C100  C118  A    
C103  H14   S    
C91   O13   A    
C96   O21   A    
C79   C114  A    
O9    Zn1   S    
C17   C134  A    
O18   Zn8   S    
C62   H7    S    
O37   Zn3   S    
C36   C43   A    
C131  O43   A    
C73   C86   A    
C133  O39   A    
O45   Zn7   S    
C100  H10   S    
O21   Zn11  S    
C26   C46   A    
C42   C63   A    
C122  C130  S    
C79   C86   A    
C37   C57   A    
C19   C96   S    
C109  H19   S    
C67   C102  A    
C106  H16   S    
C73   C108  A    
C98   O26   A    
C54   C57   A    
C119  C127  S    
