data_mof_unit_55006.cif
_audit_creation_date              2012-12-10T20:30:10-0500
_audit_creation_method            fapswitch 2.2
_symmetry_space_group_name_H-M    P1
_symmetry_Int_Tables_number       1
_space_group_crystal_system       triclinic
_cell_length_a                    9.913404
_cell_length_b                    10.681339
_cell_length_c                    13.085367
_cell_angle_alpha                 90.204395
_cell_angle_beta                  69.84452
_cell_angle_gamma                 90.022924
_cell_volume                      1300.72814563

loop_
_atom_site_label
_atom_site_type_symbol
_atom_type_description
_atom_site_fract_x
_atom_site_fract_y
_atom_site_fract_z
_atom_type_partial_charge
C1    C     C_R   0.500920 0.739875 0.497702 0.907392
C2    C     C_R   0.429341 0.477646 0.985895 0.153167
C3    C     C_R   0.454955 0.440104 0.877718 0.090126
C4    C     C_R   0.538610 0.457396 0.030548 -0.120645
C5    C     C_R   0.655158 0.375794 0.977126 -0.052313
C6    C     C_R   0.665567 0.322401 0.877163 -0.177640
C7    C     C_R   0.567987 0.355616 0.827122 -0.239736
C8    C     C_R   0.537839 0.518628 0.125293 0.541465
C9    C     C_R   0.742229 0.396713 0.128088 -0.385204
C10   C     C_R   0.367088 0.489347 0.822824 -0.128653
C11   C     C_R   0.376705 0.936681 0.505497 0.110165
C12   C     C_R   0.419860 0.495071 0.704261 0.869998
C13   C     C_R   0.505056 0.871653 0.484377 -0.094900
C14   C     C_R   0.636686 0.935128 0.444873 -0.199132
C15   C     C_R   0.636980 0.064796 0.444959 -0.206443
C16   C     C_R   0.505517 0.128699 0.483690 -0.089088
C17   C     C_R   0.377051 0.064280 0.505020 0.128027
C18   C     C_3   0.242246 0.072995 0.601790 -0.500811
C19   C     C_3   0.241782 0.931255 0.602522 -0.368526
C20   C     C_R   0.886729 0.497306 0.594896 -0.013957
C21   C     C_R   0.971065 0.494107 0.405196 -0.153826
C22   C     C_R   0.114559 0.495405 0.405136 -0.095898
C23   C     C_R   0.501198 0.260281 0.497292 0.853761
C24   C     C_R   0.028275 0.490349 0.595205 0.016160
C25   C     C_3   0.995808 0.570414 0.694644 0.366730
C26   C     C_3   0.846137 0.589466 0.688190 0.301337
C27   C     C_R   0.580125 0.499226 0.295707 0.964184
C28   C     C_R   0.758422 0.348451 0.025406 0.638373
C29   C     C_R   0.628859 0.478834 0.179001 -0.249163
C30   C     C_R   0.237441 0.548985 0.881696 -0.151933
C31   C     C_R   0.198371 0.564409 0.993539 -0.156280
C32   C     C_R   0.294251 0.531289 0.045415 -0.104202
H1    H     H_    0.813540 0.365541 0.169693 0.200894
H2    H     H_    0.738590 0.114183 0.420281 0.170718
H3    H     H_    0.259792 0.115203 0.674042 0.215394
H4    H     H_    0.151942 0.113941 0.580965 0.212787
H5    H     H_    0.258589 0.890422 0.675307 0.231693
H6    H     H_    0.151128 0.891205 0.582020 0.234768
H7    H     H_    0.952131 0.491264 0.328624 0.147095
H8    H     H_    0.202027 0.493845 0.328196 0.171579
H9    H     H_    0.994614 0.515058 0.766685 0.045147
H10   H     H_    0.761563 0.551633 0.761115 0.088567
H11   H     H_    0.751696 0.258085 0.835705 0.201160
H12   H     H_    0.168360 0.586720 0.841036 0.195079
H13   H     H_    0.258583 0.544434 0.132432 0.179818
H14   H     H_    0.096270 0.607065 0.039454 0.157323
H15   H     H_    0.580962 0.313525 0.748945 0.169062
H16   H     H_    0.738110 0.885582 0.419129 0.152827
N1    N     N_R   0.856940 0.500860 0.500710 -0.087724
N2    N     N_R   0.142580 0.500820 0.500710 -0.072876
O1    O     O_R   0.385310 0.683210 0.499990 -0.564971
O2    O     O_R   0.614650 0.683240 0.500000 -0.619535
O3    O     O_R   0.328390 0.499940 0.653610 -0.584123
O4    O     O_R   0.557730 0.499980 0.653620 -0.603268
O5    O     O_R   0.385350 0.316760 0.500000 -0.618095
O6    O     O_R   0.614690 0.316790 0.500010 -0.627420
O7    O     O_R   0.442270 0.500020 0.346380 -0.589166
O8    O     O_R   0.671610 0.500060 0.346390 -0.638193
Zn1   Zn    Zn3+2 0.346870 0.499980 0.499990 1.009369
Zn2   Zn    Zn3+2 0.653130 0.500020 0.500010 0.953279
F1    F     F_    0.079870 0.676759 0.679551 -0.658302
O9    O     O_3   0.812577 0.715120 0.667884 -0.547585
C33   C     C_3   0.895977 0.765014 0.565235 -0.120243
H17   H     H_    0.848554 0.740591 0.503055 0.164263
H18   H     H_    0.009693 0.735064 0.535043 0.177628
H19   H     H_    0.894590 0.868580 0.571937 0.150457
F2    F     F_    0.869587 0.269602 0.976454 -0.668692
F3    F     F_    0.450929 0.618555 0.166667 -0.681245

loop_
_geom_bond_atom_site_label_1
_geom_bond_atom_site_label_2
_ccdc_geom_bond_type
C2    C4    A    
C33   H18   S    
C23   O5    A    
C6    C7    A    
C19   H5    S    
C19   H6    S    
O5    Zn1   S    
C27   C29   S    
C5    C28   A    
C11   C13   A    
C32   H13   S    
C10   C30   A    
C15   H2    S    
C3    C7    A    
C31   C32   A    
C21   H7    S    
C9    C29   A    
C30   C31   A    
C4    C8    A    
C22   H8    S    
C27   O7    A    
C21   N1    A    
C17   C18   S    
O3    Zn1   S    
C33   H19   S    
C23   O6    A    
C3    C10   A    
O4    Zn2   S    
C21   C22   A    
C9    H1    S    
C1    O1    A    
C30   H12   S    
O9    C33   S    
N1    Zn2   S    
C10   C12   S    
C20   N1    A    
N2    Zn1   S    
O6    Zn2   S    
C8    F3    S    
C16   C23   S    
C2    C3    A    
C6    H11   S    
C24   N2    A    
C5    C6    A    
C1    O2    A    
C12   O4    A    
O7    Zn1   S    
C1    C13   S    
C8    C29   A    
O8    Zn2   S    
C15   C16   A    
C16   C17   A    
C20   C24   A    
C22   N2    A    
C4    C5    A    
C28   F2    S    
O1    Zn1   S    
C24   C25   S    
C26   H10   S    
C2    C32   A    
C18   C19   S    
C18   H3    S    
C25   H9    S    
C14   H16   S    
C26   O9    S    
C14   C15   A    
C11   C19   S    
C25   F1    S    
O2    Zn2   S    
C25   C26   S    
C13   C14   A    
C18   H4    S    
C31   H14   S    
C11   C17   A    
C12   O3    A    
C9    C28   A    
C33   H17   S    
C20   C26   S    
C27   O8    A    
C7    H15   S    
