data_mof_unit_51032.cif
_audit_creation_date              2012-12-10T18:20:37-0500
_audit_creation_method            fapswitch 2.2
_symmetry_space_group_name_H-M    P1
_symmetry_Int_Tables_number       1
_space_group_crystal_system       triclinic
_cell_length_a                    15.809575
_cell_length_b                    10.733083
_cell_length_c                    9.555546
_cell_angle_alpha                 90.157196
_cell_angle_beta                  90.288031
_cell_angle_gamma                 88.908901
_cell_volume                      1621.11725134

loop_
_atom_site_label
_atom_site_type_symbol
_atom_type_description
_atom_site_fract_x
_atom_site_fract_y
_atom_site_fract_z
_atom_type_partial_charge
C1    C     C_R   0.500334 0.259750 0.500224 0.768060
C2    C     C_R   0.500710 0.739779 0.501200 0.782130
C3    C     C_3   0.571488 0.955199 0.444331 0.014313
C4    C     C_3   0.431740 0.043116 0.567826 0.015741
C5    C     C_3   0.501362 0.876363 0.506552 -0.075734
C6    C     C_3   0.500973 0.122383 0.502256 -0.077710
C7    C     C_3   0.498865 0.958426 0.639521 -0.264204
C8    C     C_3   0.503467 0.038636 0.369781 -0.274205
C9    C     C_3   0.499744 0.613792 0.051091 -0.100167
C10   C     C_3   0.500200 0.386832 0.947039 -0.108006
C11   C     C_3   0.434934 0.558896 0.949290 0.144895
C12   C     C_3   0.566133 0.442286 0.048517 0.176463
C13   C     C_3   0.564915 0.555713 0.950738 0.144431
C14   C     C_3   0.434003 0.445562 0.047121 0.175813
C15   C     C_R   0.340200 0.501065 0.499640 0.835709
C16   C     C_R   0.659718 0.498842 0.500192 0.831777
C17   C     C_3   0.976133 0.379308 0.505019 -0.174875
C18   C     C_3   0.023167 0.618182 0.487973 -0.170198
C19   C     C_3   0.029864 0.434620 0.386153 -0.158668
C20   C     C_3   0.969654 0.562843 0.606915 -0.159841
C21   C     C_1   0.250239 0.503488 0.498606 -0.186405
C22   C     C_1   0.749519 0.495955 0.499983 -0.186569
C23   C     C_3   0.030300 0.448095 0.615154 -0.161820
C24   C     C_3   0.969076 0.549320 0.377921 -0.154625
C25   C     C_3   0.082498 0.503420 0.496294 0.201336
C26   C     C_3   0.917012 0.494236 0.496881 0.200443
C27   C     C_1   0.174420 0.504785 0.497296 -0.115695
C28   C     C_1   0.825241 0.493940 0.498454 -0.117217
C29   C     C_3   0.568222 0.039654 0.575256 0.017775
C30   C     C_3   0.433399 0.958760 0.436895 0.013285
Cu1   Cu    Cu3+1 0.500020 0.499990 0.643150 0.917983
Cu2   Cu    Cu3+1 0.499980 0.500010 0.356850 0.931188
H1    H     H_    0.055926 0.382204 0.295260 0.126483
H2    H     H_    0.943648 0.615297 0.697829 0.120420
H3    H     H_    0.957051 0.280553 0.510858 0.122357
H4    H     H_    0.040251 0.717526 0.480563 0.114779
H5    H     H_    0.942604 0.590164 0.280093 0.123953
H6    H     H_    0.056673 0.407025 0.712921 0.118784
H7    H     H_    0.496549 0.919871 0.746939 0.129471
H8    H     H_    0.505071 0.071499 0.259790 0.128368
H9    H     H_    0.499491 0.709132 0.096451 0.126585
H10   H     H_    0.500375 0.291618 0.901364 0.134096
N1    N     N_3   0.500060 0.499970 0.858290 -0.196959
N2    N     N_3   0.499940 0.500030 0.141710 -0.183402
O1    O     O_R   0.500040 0.316850 0.620870 -0.562655
O2    O     O_R   0.499960 0.683150 0.379130 -0.570569
O3    O     O_R   0.500000 0.316860 0.379090 -0.615425
O4    O     O_R   0.500000 0.683140 0.620910 -0.620209
O5    O     O_R   0.379090 0.499980 0.620870 -0.590972
O6    O     O_R   0.620910 0.500020 0.379130 -0.577838
O7    O     O_R   0.379060 0.499990 0.379090 -0.576578
O8    O     O_R   0.620940 0.500010 0.620910 -0.591714
C31   C     C_R   0.655386 0.902614 0.397184 0.116608
C32   C     C_R   0.689064 0.934172 0.267367 -0.173174
C33   C     C_R   0.773724 0.904816 0.237690 -0.151683
C34   C     C_R   0.823805 0.839269 0.334270 -0.110600
C35   C     C_R   0.789485 0.803477 0.461771 -0.121571
C36   C     C_R   0.705451 0.834034 0.492794 -0.141867
H11   H     H_    0.651659 0.987282 0.192688 0.116704
H12   H     H_    0.801795 0.937794 0.142563 0.123564
H13   H     H_    0.889530 0.818388 0.311356 0.113715
H14   H     H_    0.828565 0.755204 0.538224 0.135716
H15   H     H_    0.680423 0.809171 0.593952 0.114653
C37   C     C_R   0.352601 0.093916 0.636359 0.122051
C38   C     C_R   0.334328 0.067658 0.776812 -0.160394
C39   C     C_R   0.257768 0.108505 0.834978 -0.149475
C40   C     C_R   0.198812 0.175045 0.753958 -0.117576
C41   C     C_R   0.216761 0.201778 0.614518 -0.125712
C42   C     C_R   0.293949 0.163257 0.556811 -0.137609
H16   H     H_    0.378164 0.014586 0.841409 0.107972
H17   H     H_    0.243733 0.087138 0.942408 0.134134
H18   H     H_    0.139138 0.205137 0.798978 0.110735
H19   H     H_    0.170567 0.251078 0.550727 0.138666
H20   H     H_    0.307662 0.184906 0.449445 0.127734
C43   C     C_R   0.644177 0.086300 0.653588 0.123814
C44   C     C_R   0.660360 0.049785 0.792385 -0.166530
C45   C     C_R   0.733658 0.088071 0.860693 -0.149737
C46   C     C_R   0.791098 0.163412 0.791992 -0.120021
C47   C     C_R   0.775106 0.200471 0.654419 -0.127762
C48   C     C_R   0.701741 0.162825 0.585616 -0.127883
H21   H     H_    0.617612 0.990271 0.847826 0.110120
H22   H     H_    0.746056 0.058386 0.966588 0.135235
H23   H     H_    0.848079 0.192565 0.845005 0.115072
H24   H     H_    0.819885 0.257418 0.600789 0.132378
H25   H     H_    0.689998 0.192247 0.479242 0.116910
C49   C     C_R   0.351770 0.909246 0.381908 0.120941
C50   C     C_R   0.320863 0.943289 0.250074 -0.180664
C51   C     C_R   0.237687 0.915400 0.212742 -0.156002
C52   C     C_R   0.186505 0.849273 0.303944 -0.110174
C53   C     C_R   0.218285 0.812162 0.434034 -0.128140
C54   C     C_R   0.300608 0.841141 0.472587 -0.134194
H26   H     H_    0.359198 0.996569 0.179448 0.115978
H27   H     H_    0.211887 0.949372 0.115278 0.129942
H28   H     H_    0.121978 0.828876 0.274815 0.114733
H29   H     H_    0.178901 0.764253 0.507410 0.131606
H30   H     H_    0.323228 0.815370 0.575890 0.112590
C55   C     C_3   0.359687 0.627342 0.879035 -0.392961
C56   C     C_3   0.306323 0.711473 0.974167 -0.401408
C57   C     C_3   0.226076 0.754086 0.895564 -0.852468
H31   H     H_    0.242232 0.821040 0.811913 0.257019
H32   H     H_    0.193657 0.673456 0.847498 0.251140
H33   H     H_    0.180210 0.798845 0.967649 0.239218
H34   H     H_    0.343567 0.793927 0.004856 0.221966
H35   H     H_    0.287682 0.661800 0.070136 0.235211
H36   H     H_    0.383678 0.685862 0.793161 0.232818
H37   H     H_    0.317719 0.556026 0.834207 0.221928
C58   C     C_3   0.655319 0.394753 0.089760 -0.373768
C59   C     C_3   0.661397 0.269593 0.163784 -0.342154
C60   C     C_3   0.753976 0.242128 0.202744 -0.903659
H38   H     H_    0.793549 0.233518 0.107526 0.252941
H39   H     H_    0.779220 0.317902 0.269301 0.263902
H40   H     H_    0.759823 0.155079 0.263203 0.254482
H41   H     H_    0.624553 0.271751 0.260757 0.257802
H42   H     H_    0.636801 0.195241 0.094558 0.199138
H43   H     H_    0.692936 0.384958 0.992325 0.186613
H44   H     H_    0.686319 0.466042 0.154719 0.217755
C61   C     C_3   0.640122 0.621549 0.883763 -0.389996
C62   C     C_3   0.691185 0.704507 0.981861 -0.396505
C63   C     C_3   0.772804 0.742395 0.908866 -0.859648
H45   H     H_    0.808180 0.658976 0.869867 0.245946
H46   H     H_    0.758077 0.804972 0.819408 0.257584
H47   H     H_    0.815131 0.790938 0.982254 0.240260
H48   H     H_    0.653222 0.789239 0.009066 0.216576
H49   H     H_    0.708015 0.655463 0.080042 0.234183
H50   H     H_    0.683184 0.548731 0.840329 0.220046
H51   H     H_    0.616264 0.680958 0.797002 0.232027
C64   C     C_3   0.344855 0.403408 0.086670 -0.372159
C65   C     C_3   0.338258 0.275221 0.152312 -0.340171
C66   C     C_3   0.245479 0.253644 0.189315 -0.913609
H52   H     H_    0.223042 0.324349 0.266306 0.260415
H53   H     H_    0.204692 0.259811 0.094556 0.251897
H54   H     H_    0.237724 0.161225 0.236669 0.255416
H55   H     H_    0.360968 0.202993 0.077285 0.198392
H56   H     H_    0.376733 0.268920 0.248441 0.253981
H57   H     H_    0.314903 0.474149 0.155464 0.220379
H58   H     H_    0.306272 0.400689 0.989341 0.184288

loop_
_geom_bond_atom_site_label_1
_geom_bond_atom_site_label_2
_ccdc_geom_bond_type
C50   C51   A    
C18   H4    S    
C7    C29   S    
C10   H10   S    
C61   C62   S    
Cu1   O8    S    
C33   C34   A    
C65   C66   S    
C55   C56   S    
C35   C36   A    
C53   H29   S    
C45   C46   A    
C2    O2    A    
C12   C13   S    
C17   C23   S    
Cu1   N1    S    
C18   C24   S    
C17   C26   S    
C24   C26   S    
C66   H52   S    
C49   C54   A    
C60   H39   S    
C47   H24   S    
C11   C14   S    
C56   H34   S    
C59   C60   S    
C40   H18   S    
C59   H42   S    
C52   H28   S    
C3    C29   S    
C9    C13   S    
C62   C63   S    
C54   H30   S    
C51   H27   S    
C46   H23   S    
C39   H17   S    
C41   C42   A    
C58   C59   S    
C11   N1    S    
C15   O7    A    
C30   C49   S    
C43   C48   A    
C66   H54   S    
C55   H36   S    
C23   C25   S    
C39   C40   A    
C21   C27   T    
C22   C28   T    
C33   H12   S    
C18   C25   S    
Cu1   O5    S    
C4    C7    S    
C19   C25   S    
C32   H11   S    
C63   H46   S    
C40   C41   A    
C35   H14   S    
C64   H58   S    
C4    C6    S    
C3    C8    S    
C10   C14   S    
C60   H40   S    
C5    C7    S    
C49   C50   A    
C1    O3    A    
C6    C8    S    
C2    O4    A    
C41   H19   S    
C31   C32   A    
C14   C64   S    
C1    C6    S    
C59   H41   S    
C43   C44   A    
Cu2   O7    S    
C48   H25   S    
C65   H56   S    
Cu1   Cu2   S    
C20   C23   S    
C31   C36   A    
C58   H43   S    
C57   H33   S    
C24   H5    S    
Cu2   N2    S    
C42   H20   S    
C62   H49   S    
C37   C42   A    
C44   C45   A    
C9    C11   S    
Cu2   O6    S    
C10   C12   S    
C55   H37   S    
C57   H32   S    
C56   C57   S    
Cu1   O4    S    
C19   H1    S    
Cu2   O3    S    
C2    C5    S    
C34   C35   A    
C64   C65   S    
C13   N1    S    
C14   N2    S    
C5    C30   S    
C61   H51   S    
C63   H47   S    
C36   H15   S    
C32   C33   A    
C9    N2    S    
C16   C22   S    
C10   N1    S    
C46   C47   A    
Cu2   O2    S    
C16   O8    A    
C16   O6    A    
C3    C5    S    
C44   H21   S    
C12   C58   S    
C13   C61   S    
C63   H45   S    
C29   C43   S    
C9    H9    S    
C25   C27   S    
C23   H6    S    
C8    H8    S    
C4    C37   S    
C26   C28   S    
C57   H31   S    
C11   C55   S    
C8    C30   S    
C37   C38   A    
C19   C24   S    
C20   H2    S    
C12   N2    S    
C65   H55   S    
C3    C31   S    
C1    O1    A    
C53   C54   A    
C20   C26   S    
C45   H22   S    
C56   H35   S    
C17   C19   S    
C18   C20   S    
C62   H48   S    
C15   O5    A    
C64   H57   S    
C58   H44   S    
C47   C48   A    
C15   C21   S    
C6    C29   S    
C51   C52   A    
C38   C39   A    
Cu1   O1    S    
C60   H38   S    
C7    H7    S    
C34   H13   S    
C17   H3    S    
C52   C53   A    
C50   H26   S    
C61   H50   S    
C4    C30   S    
C38   H16   S    
C66   H53   S    
