data_mof_unit_64897.cif
_audit_creation_date              2013-03-05T15:45:00-0500
_audit_creation_method            fapswitch 2.2
_symmetry_space_group_name_H-M    P1
_symmetry_Int_Tables_number       1
_space_group_crystal_system       triclinic
_cell_length_a                    21.850158
_cell_length_b                    21.782985
_cell_length_c                    22.201805
_cell_angle_alpha                 62.021867
_cell_angle_beta                  120.423911
_cell_angle_gamma                 89.439857
_cell_volume                      7610.867247

loop_
_atom_site_label
_atom_site_type_symbol
_atom_site_description
_atom_site_fract_x
_atom_site_fract_y
_atom_site_fract_z
_atom_type_partial_charge
O1    O     O_R   0.590210 0.447820 0.500000 -0.586517
O2    O     O_R   0.590150 0.552170 0.500020 -0.549506
C1    C     C_R   0.619845 0.498778 0.502268 0.942546
O3    O     O_R   0.439580 0.508290 0.379070 -0.558989
O4    O     O_R   0.439510 0.612640 0.379090 -0.539817
C2    C     C_R   0.426916 0.578987 0.340884 0.872786
Cu1   Cu    Cu3+1 0.500040 0.438210 0.499990 1.109294
Cu2   Cu    Cu3+1 0.499960 0.561790 0.500010 1.162627
O5    O     O_R   0.409850 0.447830 0.499980 -0.575373
O6    O     O_R   0.409790 0.552180 0.500000 -0.534312
O7    O     O_R   0.560490 0.387360 0.620910 -0.573581
O8    O     O_R   0.560420 0.491710 0.620930 -0.558178
C3    C     C_R   0.378020 0.503442 0.493365 0.932626
C4    C     C_R   0.579143 0.420627 0.660000 0.864735
C5    C     C_3   0.253969 0.705673 0.969241 0.248065
C6    C     C_3   0.328483 0.712079 0.027456 0.245232
C7    C     C_1   0.386968 0.622289 0.251570 0.009728
C8    C     C_1   0.127977 0.873468 0.749318 -0.008023
C9    C     C_3   0.229458 0.697012 0.025999 0.141754
C10   C     C_3   0.304305 0.703058 0.084886 -0.128628
C11   C     C_3   0.192730 0.780856 0.973666 0.150685
C12   C     C_3   0.216711 0.790022 0.915915 -0.192810
C13   C     C_3   0.267123 0.787453 0.031582 0.266654
C14   C     C_3   0.291658 0.796055 0.974809 0.172457
C15   C     C_1   0.350856 0.658451 0.176397 0.235402
C16   C     C_1   0.168203 0.835651 0.824486 0.261358
C17   C     C_R   0.765990 0.378497 0.644717 0.293296
C18   C     C_R   0.832464 0.316937 0.704514 0.273291
C19   C     C_R   0.880033 0.305919 0.683320 0.236537
C20   C     C_R   0.866294 0.360285 0.606150 0.203070
C21   C     C_R   0.811600 0.430214 0.557327 -0.150770
C22   C     C_R   0.754524 0.435267 0.569225 -0.081241
C23   C     C_R   0.688219 0.497324 0.505127 -0.085219
C24   C     C_R   0.684501 0.558378 0.439041 0.302121
C25   C     C_R   0.747647 0.558374 0.436729 0.246679
C26   C     C_R   0.811580 0.494749 0.496229 -0.138276
C27   C     C_3   0.702600 0.239520 0.025176 0.243273
C28   C     C_3   0.703643 0.316520 0.972191 0.254026
C29   C     C_1   0.623532 0.377242 0.749441 -0.082453
C30   C     C_1   0.873030 0.127601 0.250764 -0.004286
C31   C     C_3   0.705682 0.217716 0.969802 0.229883
C32   C     C_3   0.706323 0.295127 0.916006 -0.145130
C33   C     C_3   0.792143 0.189975 0.028254 0.257897
C34   C     C_3   0.789330 0.211480 0.084286 -0.082401
C35   C     C_3   0.793107 0.267021 0.975210 0.151169
C36   C     C_3   0.790081 0.288806 0.030613 0.246441
C37   C     C_1   0.660908 0.340332 0.824624 0.192028
C38   C     C_1   0.834884 0.165725 0.175612 0.231066
C39   C     C_R   0.220119 0.563025 0.335472 0.250190
C40   C     C_R   0.148448 0.579031 0.265894 0.282792
C41   C     C_R   0.099063 0.544758 0.279264 0.349929
C42   C     C_R   0.116217 0.505022 0.360005 0.285774
C43   C     C_R   0.180023 0.504860 0.426817 -0.146708
C44   C     C_R   0.237710 0.524329 0.417665 -0.172479
C45   C     C_R   0.309553 0.505032 0.490716 -0.087317
C46   C     C_R   0.319222 0.479712 0.566784 0.331584
C47   C     C_R   0.257162 0.474993 0.570804 0.256497
C48   C     C_R   0.187115 0.487991 0.500921 -0.114796
O9    O     O_R   0.052170 0.909710 0.500000 -0.592677
O10   O     O_R   0.947780 0.909820 0.499990 -0.521173
C49   C     C_R   0.998114 0.883012 0.496027 0.893537
O11   O     O_R   0.112650 0.939420 0.620930 -0.590240
O12   O     O_R   0.008260 0.939530 0.620910 -0.523355
C50   C     C_R   0.080800 0.919075 0.659905 0.800081
Cu3   Cu    Cu3+1 0.061810 0.999860 0.500010 1.119861
Cu4   Cu    Cu3+1 0.938190 0.999990 0.499990 1.183054
O13   O     O_R   0.052220 0.090030 0.500010 -0.581244
O14   O     O_R   0.947830 0.090140 0.500000 -0.529793
O15   O     O_R   0.991740 0.060320 0.379090 -0.533241
O16   O     O_R   0.887350 0.060430 0.379070 -0.573019
C51   C     C_R   0.001735 0.116163 0.504472 0.863513
C52   C     C_R   0.919331 0.081632 0.340167 0.877141
O17   O     O_R   0.964960 0.625150 0.430050 -0.548643
O18   O     O_R   0.034940 0.555150 0.570020 -0.555357
C53   C     C_R   0.001461 0.618299 0.501278 0.873101
O19   O     O_R   0.874830 0.535020 0.430000 -0.531687
O20   O     O_R   0.944810 0.465010 0.569970 -0.570287
C54   C     C_R   0.880227 0.498313 0.498828 0.913982
Cu5   Cu    Cu3+1 0.958570 0.541460 0.417120 1.227997
Cu6   Cu    Cu3+1 0.041430 0.458560 0.582880 1.225786
O21   O     O_R   0.965060 0.444870 0.429980 -0.520351
O22   O     O_R   0.035040 0.374860 0.569950 -0.561505
O23   O     O_R   0.055190 0.535000 0.430030 -0.566654
O24   O     O_R   0.125170 0.465000 0.570000 -0.534420
C55   C     C_R   0.004802 0.380921 0.499408 0.903601
C56   C     C_R   0.119492 0.494696 0.500696 0.863119
C57   C     C_R   0.006406 0.867220 0.371373 0.258524
C58   C     C_R   0.034720 0.852240 0.333028 0.106823
C59   C     C_R   0.067712 0.779008 0.363920 0.343678
C60   C     C_R   0.065903 0.721687 0.427111 0.411267
C61   C     C_R   0.028800 0.736803 0.458368 -0.188405
C62   C     C_R   0.010832 0.808109 0.440988 -0.156626
C63   C     C_R   0.996421 0.817069 0.492864 -0.086689
C64   C     C_R   0.986004 0.759561 0.548711 0.329998
C65   C     C_R   0.987966 0.693784 0.551424 0.251390
C66   C     C_R   0.007854 0.683245 0.505033 -0.178201
C67   C     C_R   0.062744 0.118632 0.657313 0.191695
C68   C     C_R   0.119995 0.111877 0.731660 0.184032
C69   C     C_R   0.154755 0.166527 0.727280 0.296129
C70   C     C_R   0.124230 0.232709 0.649542 0.329921
C71   C     C_R   0.059805 0.243200 0.575387 -0.114941
C72   C     C_R   0.041430 0.180431 0.579254 -0.179012
C73   C     C_R   0.999477 0.182987 0.504230 -0.063580
C74   C     C_R   0.957143 0.249919 0.426944 0.343393
C75   C     C_R   0.958261 0.315745 0.424301 0.271586
C76   C     C_R   0.010144 0.313146 0.498856 -0.108619
O25   O     O_3   0.399454 0.675832 0.055466 -0.629810
H1    H     H_    0.397127 0.692826 0.004163 0.370660
N1    N     N_R   0.943780 0.240226 0.742287 0.218324
O26   O     O_R   0.935233 0.176239 0.774329 -0.187862
O27   O     O_R   0.011170 0.244845 0.773150 -0.239004
N2    N     N_R   0.896099 0.340885 0.569987 0.124434
O28   O     O_R   0.855482 0.371260 0.489445 -0.340284
O29   O     O_R   0.954345 0.283142 0.616217 -0.313482
N3    N     N_R   0.746987 0.623213 0.374410 0.119207
O30   O     O_R   0.711847 0.639247 0.298328 -0.275745
O31   O     O_R   0.782472 0.665590 0.393995 -0.290641
O32   O     O_3   0.657290 0.382843 0.942676 -0.642720
H2    H     H_    0.668625 0.379963 0.993350 0.370810
O33   O     O_3   0.655379 0.224993 0.051580 -0.646395
H3    H     H_    0.603703 0.250254 0.999565 0.376830
O34   O     O_3   0.834416 0.325751 0.062928 -0.622538
H4    H     H_    0.820191 0.374469 0.013515 0.382777
N4    N     N_R   0.842610 0.283017 0.948168 0.162575
O35   O     O_R   0.893685 0.229848 0.971162 -0.234955
O36   O     O_R   0.836553 0.350822 0.901784 -0.303396
O37   O     O_3   0.838359 0.123282 0.058312 -0.574674
H5    H     H_    0.823148 0.123292 0.007992 0.379654
O38   O     O_3   0.661389 0.180628 0.937730 -0.645784
H6    H     H_    0.673694 0.133051 0.987303 0.376914
O39   O     O_3   0.390224 0.462112 0.635485 -0.706190
H7    H     H_    0.391416 0.439053 0.686633 0.384748
O40   O     O_3   0.247320 0.662554 0.936790 -0.630081
H8    H     H_    0.277429 0.611522 0.986184 0.372864
N5    N     N_R   0.274351 0.584190 0.320363 0.063000
O41   O     O_R   0.286890 0.644382 0.314365 -0.342797
O42   O     O_R   0.287198 0.560377 0.282745 -0.333630
O43   O     O_3   0.127358 0.623961 0.184673 -0.627137
H9    H     H_    0.157648 0.657395 0.182229 0.405261
O44   O     O_3   0.034125 0.547430 0.215156 -0.598863
H10   H     H_    0.031127 0.573390 0.162836 0.402462
N6    N     N_R   0.072866 0.458653 0.374741 0.140305
O45   O     O_R   0.106094 0.388308 0.428844 -0.328253
O46   O     O_R   0.000264 0.483656 0.321652 -0.223129
N7    N     N_R   0.265126 0.459868 0.644993 0.120749
O47   O     O_R   0.263302 0.512359 0.657422 -0.318252
O48   O     O_R   0.286937 0.392169 0.705794 -0.243415
O49   O     O_3   0.973128 0.770223 0.598715 -0.680515
H11   H     H_    0.961813 0.728193 0.630704 0.387138
N8    N     N_R   0.963742 0.941412 0.331591 0.125229
O50   O     O_R   0.896369 0.955484 0.313243 -0.361409
O51   O     O_R   0.985187 0.995653 0.298931 -0.271587
N9    N     N_R   0.027548 0.911368 0.260964 0.169373
O52   O     O_R   0.085602 0.931045 0.267808 -0.257758
O53   O     O_R   0.962412 0.947194 0.189022 -0.215611
O54   O     O_3   0.100613 0.760554 0.332777 -0.625730
H12   H     H_    0.097221 0.805357 0.287268 0.377731
O55   O     O_3   0.104966 0.651368 0.460173 -0.674306
H13   H     H_    0.126635 0.621896 0.520680 0.324950
N10   N     N_R   0.328260 0.848535 0.950119 0.186473
O56   O     O_R   0.389764 0.848803 0.007050 -0.233350
O57   O     O_R   0.302207 0.892407 0.871759 -0.297024
N11   N     N_R   0.970729 0.637255 0.602006 0.114216
O58   O     O_R   0.909143 0.622831 0.567001 -0.312732
O59   O     O_R   0.019078 0.596836 0.682877 -0.282198
O60   O     O_3   0.912122 0.248176 0.356340 -0.709517
H14   H     H_    0.873218 0.296478 0.308991 0.385395
N12   N     N_R   0.014632 0.074199 0.659771 0.146017
O61   O     O_R   0.041815 0.005059 0.719267 -0.279802
O62   O     O_R   0.942373 0.106298 0.612320 -0.253753
N13   N     N_R   0.140290 0.051992 0.811235 0.169708
O63   O     O_R   0.129619 0.064966 0.857312 -0.217643
O64   O     O_R   0.179984 0.986599 0.843116 -0.312291
O65   O     O_3   0.218041 0.157554 0.797713 -0.596620
H15   H     H_    0.239534 0.105649 0.845153 0.381632
N14   N     N_R   0.165070 0.284078 0.645907 0.152237
O66   O     O_R   0.184701 0.305768 0.594838 -0.317002
O67   O     O_R   0.192040 0.300779 0.701533 -0.209092
N15   N     N_R   0.905794 0.384031 0.346621 0.139303
O68   O     O_R   0.909434 0.406037 0.283316 -0.241986
O69   O     O_R   0.845356 0.414682 0.333736 -0.262619
O70   O     O_3   0.273931 0.830473 0.064189 -0.598446
H16   H     H_    0.243164 0.881423 0.014904 0.393897
N16   N     N_R   0.119850 0.817008 0.948218 0.202207
O71   O     O_R   0.108545 0.803907 0.004634 -0.234283
O72   O     O_R   0.065746 0.861890 0.869491 -0.230180
N17   N     N_R   0.193162 0.643679 0.049537 0.188402
O73   O     O_R   0.127292 0.649609 0.992416 -0.224343
O74   O     O_R   0.229416 0.585874 0.125345 -0.258137
O75   O     O_3   0.618471 0.617518 0.378950 -0.701132
H17   H     H_    0.623193 0.657464 0.336914 0.390132
O76   O     O_3   0.714949 0.385984 0.661822 -0.739263
H18   H     H_    0.714606 0.336400 0.696233 0.336377
O77   O     O_3   0.852366 0.266252 0.784026 -0.609899
H19   H     H_    0.830752 0.290783 0.800088 0.375102

loop_
_geom_bond_atom_site_label_1
_geom_bond_atom_site_label_2
_geom_bond_distance
_ccdc_geom_bond_type
C11   N16   1.456723 S    
Cu4   O14   1.977141 S    
C45   C46   1.401230 A    
O75   H17   0.987984 S    
C47   N7    1.432219 S    
O17   C53   1.287647 A    
C31   C32   1.548509 S    
C65   C66   1.405555 A    
C8    C16   1.202746 T    
O19   Cu5   1.986625 S    
Cu6   O24   1.986625 S    
C3    C45   1.466504 S    
N2    O29   1.299893 A    
C67   C68   1.410095 A    
C47   C48   1.415725 A    
N5    O41   1.300802 A    
O20   C54   1.288364 A    
C46   C47   1.405010 A    
Cu1   O7    1.941339 S    
N13   O64   1.300170 A    
C63   C64   1.411550 A    
O4    C2    1.297546 A    
N4    O36   1.300213 A    
C18   C19   1.398477 A    
N11   O59   1.300958 A    
O24   C56   1.293288 A    
C28   C32   1.547720 S    
N1    O27   1.301363 A    
C20   C21   1.423630 A    
O7    C4    1.296943 A    
C49   C63   1.470611 S    
C10   C15   1.463554 S    
C1    C23   1.462227 S    
C39   C44   1.424205 A    
N16   O71   1.300255 A    
N5    O42   1.298656 A    
C24   C25   1.406449 A    
O5    C3    1.298429 A    
O65   H15   0.989728 S    
N2    O28   1.301583 A    
O11   C50   1.298292 A    
C6    O25   1.397694 S    
C9    N17   1.455968 S    
C4    C29   1.430983 S    
O32   H2    0.991119 S    
C5    C12   1.547232 S    
N11   O58   1.300659 A    
N3    O31   1.300595 A    
C57   N8    1.434682 S    
C70   N14   1.436201 S    
C18   O77   1.381587 S    
O25   H1    0.991134 S    
C25   N3    1.433604 S    
O76   H18   0.990988 S    
N9    O53   1.300860 A    
C19   C20   1.412950 A    
C21   C26   1.423525 A    
O13   C51   1.304620 A    
C67   C72   1.419118 A    
C6    C10   1.546821 S    
C61   C66   1.414383 A    
C41   O44   1.384846 S    
N14   O67   1.301348 A    
O77   H19   0.990037 S    
C39   N5    1.413286 S    
O12   Cu4   1.940666 S    
O10   Cu4   1.973277 S    
C6    C14   1.540253 S    
O18   Cu6   1.979401 S    
C57   C62   1.426540 A    
C31   C33   1.541804 S    
O60   H14   0.987124 S    
C72   C73   1.408350 A    
C75   N15   1.434728 S    
O3    Cu1   1.950961 S    
C48   C56   1.480594 S    
C74   C75   1.408297 A    
N7    O48   1.300363 A    
C34   C36   1.547409 S    
C53   C66   1.459665 S    
N7    O47   1.300560 A    
O34   H4    0.991053 S    
C35   N4    1.456223 S    
C64   O49   1.386541 S    
O9    C49   1.302722 A    
N17   O74   1.299032 A    
O18   C53   1.279229 A    
C41   C42   1.400159 A    
C71   C72   1.404839 A    
Cu1   Cu2   2.692135 S    
O44   H10   0.989587 S    
C13   O70   1.398055 S    
Cu6   O22   1.970170 S    
C33   O37   1.398150 S    
C61   C62   1.409954 A    
Cu5   O21   1.979403 S    
C62   C63   1.428556 A    
C59   O54   1.383848 S    
Cu3   O13   1.973280 S    
C35   C36   1.540132 S    
C42   N6    1.430727 S    
N15   O68   1.301287 A    
C20   N2    1.445627 S    
O10   C49   1.300770 A    
O1    C1    1.299012 A    
C32   C35   1.547970 S    
N10   O57   1.300160 A    
O55   H13   0.990774 S    
C60   O55   1.377872 S    
O15   C52   1.300004 A    
C5    C9    1.540380 S    
C33   C34   1.547391 S    
C27   C28   1.540862 S    
C65   N11   1.435006 S    
C69   C70   1.408100 A    
C10   C13   1.547884 S    
C24   O75   1.386609 S    
Cu2   O8    1.950962 S    
C14   N10   1.456316 S    
C23   C24   1.405147 A    
O17   Cu5   1.969951 S    
C40   C41   1.393595 A    
O49   H11   0.987880 S    
O70   H16   0.990954 S    
C33   C35   1.541219 S    
N13   O63   1.300876 A    
C68   N13   1.432631 S    
O3    C2    1.302290 A    
N12   O61   1.298911 A    
O8    C4    1.298208 A    
C68   C69   1.409720 A    
C11   C13   1.541869 S    
O40   H8    0.991138 S    
N8    O51   1.300940 A    
Cu5   Cu6   2.652359 S    
C17   O76   1.377721 S    
O37   H5    0.991085 S    
C67   N12   1.439920 S    
C17   C18   1.417377 A    
N6    O46   1.299810 A    
C42   C43   1.429881 A    
C29   C37   1.202881 T    
O38   H6    0.991123 S    
O20   Cu6   1.975464 S    
C19   N1    1.434655 S    
C71   C76   1.434314 A    
C30   C38   1.202584 T    
C2    C7    1.435129 S    
C51   C73   1.453369 S    
C44   C45   1.428376 A    
O54   H12   0.988113 S    
C30   C52   1.430929 S    
O11   Cu3   1.951755 S    
C9    C11   1.538063 S    
C17   C22   1.423072 A    
O1    Cu1   1.983253 S    
C21   C22   1.412589 A    
O2    Cu2   1.979613 S    
C55   C76   1.486078 S    
O19   C54   1.287466 A    
O6    C3    1.299338 A    
O4    Cu2   1.941337 S    
C43   C48   1.428036 A    
C40   O43   1.384065 S    
C43   C44   1.413824 A    
C5    O40   1.397865 S    
O22   C55   1.289604 A    
C75   C76   1.427780 A    
C11   C12   1.549426 S    
N8    O50   1.301428 A    
C7    C15   1.203803 T    
C58   N9    1.432441 S    
C9    C10   1.549695 S    
N14   O66   1.298712 A    
O2    C1    1.293890 A    
N9    O52   1.300927 A    
N17   O73   1.300213 A    
C34   C38   1.461428 S    
C26   C54   1.475819 S    
O39   H7    0.988489 S    
C22   C23   1.421315 A    
C31   O38   1.397660 S    
C8    C50   1.430875 S    
C60   C61   1.423449 A    
Cu4   O16   1.951753 S    
C69   O65   1.383326 S    
C27   C34   1.546969 S    
O14   C51   1.290698 A    
Cu3   O15   1.940664 S    
N12   O62   1.301632 A    
C70   C71   1.427530 A    
C27   O33   1.397605 S    
N16   O72   1.299913 A    
C12   C14   1.550975 S    
C32   C37   1.462184 S    
Cu3   Cu4   2.700867 S    
C27   C31   1.540336 S    
C64   C65   1.404877 A    
N10   O56   1.300156 A    
O21   C55   1.294824 A    
C28   C36   1.541395 S    
C46   O39   1.386883 S    
O43   H9    0.989995 S    
C13   C14   1.541423 S    
C74   O60   1.386073 S    
O12   C50   1.301855 A    
Cu5   O23   1.975464 S    
Cu1   O5    1.979613 S    
O23   C56   1.287358 A    
C58   C59   1.408916 A    
C57   C58   1.415671 A    
Cu2   O6    1.983255 S    
C39   C40   1.412159 A    
C12   C16   1.462576 S    
C73   C74   1.394422 A    
N6    O45   1.298465 A    
O33   H3    0.991128 S    
C36   O34   1.397827 S    
C28   O32   1.397626 S    
O16   C52   1.300353 A    
C25   C26   1.411624 A    
N3    O30   1.300928 A    
C59   C60   1.393701 A    
N1    O26   1.301148 A    
O9    Cu3   1.977138 S    
C5    C6    1.543779 S    
N4    O35   1.300170 A    
N15   O69   1.300945 A    
