data_mof_unit_17030.cif
_audit_creation_date              2012-12-10T19:03:40-0500
_audit_creation_method            fapswitch 2.2
_symmetry_space_group_name_H-M    P1
_symmetry_Int_Tables_number       1
_space_group_crystal_system       triclinic
_cell_length_a                    15.896432
_cell_length_b                    10.804745
_cell_length_c                    9.627137
_cell_angle_alpha                 89.477998
_cell_angle_beta                  89.625526
_cell_angle_gamma                 91.947477
_cell_volume                      1652.46472232

loop_
_atom_site_label
_atom_site_type_symbol
_atom_type_description
_atom_site_fract_x
_atom_site_fract_y
_atom_site_fract_z
_atom_type_partial_charge
C1    C     C_R   0.502899 0.262678 0.500360 0.901179
C2    C     C_3   0.946590 0.443623 0.636105 -0.649800
C3    C     C_3   0.916053 0.518381 0.509114 0.133430
C4    C     C_3   0.955262 0.653203 0.520038 0.212109
C5    C     C_3   0.053280 0.647596 0.494504 0.219252
C6    C     C_1   0.823852 0.517077 0.508483 0.015410
C7    C     C_1   0.174774 0.506399 0.498507 0.202998
C8    C     C_1   0.250412 0.503587 0.499064 -0.073459
C9    C     C_R   0.483791 0.059638 0.616340 0.058773
C10   C     C_R   0.511664 0.129463 0.501289 -0.152757
C11   C     C_R   0.552023 0.068403 0.390800 0.409376
C12   C     C_R   0.340264 0.500532 0.500073 0.849889
C13   C     C_R   0.551133 0.937609 0.391050 -0.316168
C14   C     C_R   0.512358 0.870387 0.500988 -0.122633
C15   C     C_R   0.487452 0.933354 0.618429 0.092340
C16   C     C_3   0.410747 0.915635 0.707221 -0.556212
C17   C     C_3   0.404461 0.055889 0.702746 -0.174391
C18   C     C_R   0.570822 0.533475 0.071023 0.167160
C19   C     C_R   0.436702 0.441768 0.077540 0.429808
C20   C     C_R   0.433912 0.448929 0.929261 -0.082449
C21   C     C_R   0.570540 0.533715 0.925318 0.168883
C22   C     C_3   0.621204 0.651727 0.916736 -0.531670
C23   C     C_R   0.503395 0.737211 0.499542 0.797764
C24   C     C_3   0.625160 0.648652 0.075738 0.275611
C25   C     C_R   0.659387 0.502203 0.500111 0.809774
C26   C     C_3   0.045572 0.444507 0.641494 -0.025767
C27   C     C_3   0.043891 0.438828 0.375527 0.173811
C28   C     C_3   0.947014 0.458245 0.371400 -0.195300
C29   C     C_1   0.748611 0.509968 0.502977 -0.178385
C30   C     C_3   0.081649 0.509302 0.503365 0.026959
Cu1   Cu    Cu3+1 0.500000 0.499980 0.640670 0.986318
Cu2   Cu    Cu3+1 0.500000 0.500020 0.359330 1.007708
H1    H     H_    0.918442 0.348307 0.632025 0.237392
H2    H     H_    0.918923 0.482243 0.732290 0.154809
H3    H     H_    0.580188 0.889077 0.306583 0.149611
H4    H     H_    0.359252 0.862905 0.653585 0.197698
H5    H     H_    0.426109 0.879345 0.812145 0.193043
H6    H     H_    0.413857 0.098458 0.806304 0.159846
H7    H     H_    0.682570 0.638579 0.863864 0.208939
H8    H     H_    0.584574 0.729583 0.875300 0.171899
H9    H     H_    0.593916 0.725730 0.129505 0.074386
H10   H     H_    0.057115 0.339564 0.392140 0.155805
H11   H     H_    0.933971 0.525614 0.286745 0.154065
H12   H     H_    0.068255 0.678003 0.386522 0.160155
H13   H     H_    0.944208 0.686727 0.627841 0.096083
N1    N     N_R   0.500530 0.500930 0.147930 -0.254415
N2    N     N_R   0.500530 0.500890 0.852020 -0.215185
O1    O     O_R   0.500000 0.319640 0.618810 -0.551228
O2    O     O_R   0.500010 0.319680 0.381230 -0.558990
O3    O     O_R   0.379430 0.499990 0.618840 -0.545333
O4    O     O_R   0.379440 0.500030 0.381260 -0.528469
O5    O     O_R   0.499990 0.680320 0.618770 -0.580948
O6    O     O_R   0.500000 0.680360 0.381190 -0.601070
O7    O     O_R   0.620560 0.499970 0.618740 -0.586784
O8    O     O_R   0.620570 0.500010 0.381160 -0.546189
C31   C     C_2   0.075690 0.514513 0.769650 0.452242
H14   H     H_    0.031843 0.562182 0.835530 0.029962
O9    O     O_2   0.150345 0.521675 0.798906 -0.546572
O10   O     O_3   0.918376 0.729800 0.417095 -0.654266
C32   C     C_3   0.880442 0.836338 0.472136 0.042042
H15   H     H_    0.874056 0.903469 0.385169 0.190117
H16   H     H_    0.919733 0.884236 0.550070 0.138407
C33   C     C_3   0.792706 0.807956 0.534271 -0.389842
H17   H     H_    0.752267 0.760438 0.456612 0.214455
H18   H     H_    0.797834 0.747263 0.627336 0.207279
C34   C     C_3   0.750373 0.926277 0.577960 -0.886056
H19   H     H_    0.789010 0.976177 0.656736 0.255496
H20   H     H_    0.687659 0.902332 0.624103 0.252428
H21   H     H_    0.741658 0.987855 0.486489 0.281778
O11   O     O_3   0.599040 0.137172 0.293351 -0.600233
C35   C     C_3   0.573540 0.111259 0.155598 0.060833
H22   H     H_    0.556038 0.200220 0.106974 0.155208
H23   H     H_    0.517771 0.046042 0.147430 0.114331
C36   C     C_3   0.647228 0.062423 0.072280 -0.336880
H24   H     H_    0.701134 0.130620 0.075352 0.235061
H25   H     H_    0.667325 0.974494 0.119336 0.206845
C37   C     C_3   0.622774 0.039763 0.921324 -0.939324
H26   H     H_    0.571318 0.967883 0.915772 0.249138
H27   H     H_    0.677983 0.007300 0.862682 0.259762
H28   H     H_    0.601713 0.126650 0.871960 0.267412
C38   C     C_2   0.325296 0.094035 0.630515 0.509697
H29   H     H_    0.265444 0.080103 0.684125 0.078594
O12   O     O_2   0.326988 0.140515 0.514397 -0.574559
O13   O     O_3   0.373496 0.377247 0.150579 -0.579468
C39   C     C_3   0.382050 0.247680 0.133693 0.050331
H30   H     H_    0.420389 0.210977 0.218428 0.194544
H31   H     H_    0.411855 0.221633 0.033463 0.100165
C40   C     C_3   0.296146 0.181853 0.143980 -0.325994
H32   H     H_    0.267010 0.203959 0.245546 0.256548
H33   H     H_    0.256338 0.215050 0.058125 0.226674
C41   C     C_3   0.302897 0.041607 0.133615 -0.909490
H34   H     H_    0.341698 0.005914 0.219833 0.270360
H35   H     H_    0.239056 0.996936 0.140855 0.261136
H36   H     H_    0.331743 0.016690 0.032684 0.245306
C42   C     C_2   0.074054 0.311224 0.656018 0.298475
H37   H     H_    0.028638 0.234151 0.663321 0.087407
O14   O     O_2   0.148645 0.287982 0.661149 -0.538211
C43   C     C_2   0.355854 0.400867 0.865819 0.482422
H38   H     H_    0.295867 0.435452 0.899460 0.115503
O15   O     O_2   0.356918 0.315161 0.785051 -0.548405
O16   O     O_3   0.705989 0.618328 0.123477 -0.588841
C44   C     C_3   0.754745 0.725407 0.157446 0.077679
H39   H     H_    0.804571 0.694931 0.228766 0.212657
H40   H     H_    0.718127 0.794305 0.215349 0.104176
C45   C     C_3   0.797835 0.784035 0.028562 -0.390769
H41   H     H_    0.830209 0.711561 0.969224 0.221978
H42   H     H_    0.750107 0.825524 0.960502 0.220164
C46   C     C_3   0.862252 0.885324 0.068288 -0.899003
H43   H     H_    0.831578 0.958554 0.128779 0.256929
H44   H     H_    0.890479 0.927973 0.972700 0.251212
H45   H     H_    0.913342 0.845633 0.131070 0.272920
O17   O     O_3   0.085237 0.481997 0.251816 -0.625390
C47   C     C_3   0.060057 0.416457 0.130875 0.086764
H46   H     H_    0.098796 0.456919 0.044983 0.212064
H47   H     H_    0.993668 0.432916 0.103213 0.105401
C48   C     C_3   0.075767 0.277008 0.137821 -0.426209
H48   H     H_    0.136501 0.263280 0.189423 0.229583
H49   H     H_    0.025563 0.227820 0.199212 0.235308
C49   C     C_3   0.077117 0.219403 0.994090 -0.893733
H50   H     H_    0.016489 0.233867 0.940585 0.245406
H51   H     H_    0.086734 0.118379 0.003879 0.256903
H52   H     H_    0.129640 0.261544 0.931589 0.295005
C50   C     C_2   0.898870 0.339236 0.334689 0.298976
H53   H     H_    0.856543 0.338561 0.246676 0.099420
O18   O     O_2   0.905907 0.244468 0.403102 -0.589145
O19   O     O_3   0.102123 0.719004 0.590460 -0.619642
C51   C     C_3   0.097784 0.849553 0.577304 0.082624
H54   H     H_    0.150685 0.889171 0.639387 0.169066
H55   H     H_    0.041094 0.881844 0.630334 0.125940
C52   C     C_3   0.108163 0.902970 0.428740 -0.432209
H56   H     H_    0.166864 0.868889 0.381284 0.231081
H57   H     H_    0.053819 0.875210 0.363029 0.236324
C53   C     C_3   0.112033 0.043976 0.428986 -0.859428
H58   H     H_    0.051370 0.079755 0.466542 0.264363
H59   H     H_    0.123836 0.078252 0.321652 0.252478
H60   H     H_    0.163645 0.079277 0.495878 0.294604

loop_
_geom_bond_atom_site_label_1
_geom_bond_atom_site_label_2
_ccdc_geom_bond_type
C34   H20   S    
C33   H18   S    
O19   C51   S    
C18   C21   A    
C42   H37   S    
Cu1   O5    S    
C3    C6    S    
C38   H29   S    
C28   C50   S    
C50   H53   S    
C37   H26   S    
C31   H14   S    
C45   H42   S    
O16   C44   S    
C36   H25   S    
C32   C33   S    
C18   C24   S    
C3    C28   S    
C13   H3    S    
C50   O18   D    
C34   H21   S    
C15   C16   S    
C46   H43   S    
C44   C45   S    
C32   H16   S    
C24   O16   S    
C19   C20   A    
C48   H49   S    
C16   C17   S    
C36   C37   S    
C5    O19   S    
C53   H60   S    
O11   C35   S    
C9    C10   A    
Cu2   O8    S    
C16   H5    S    
C47   C48   S    
C2    H2    S    
C37   H27   S    
C34   H19   S    
C33   C34   S    
O10   C32   S    
C7    C30   S    
Cu1   N2    S    
C21   C22   S    
C27   C30   S    
C24   H9    S    
C18   N1    A    
O17   C47   S    
C38   O12   D    
C23   O6    A    
C4    H13   S    
C49   H51   S    
C25   C29   S    
C45   C46   S    
C19   N1    A    
C36   H24   S    
C39   H31   S    
C48   C49   S    
C7    C8    T    
C25   O7    A    
C41   H34   S    
C35   H23   S    
C39   H30   S    
C32   H15   S    
C14   C23   S    
C52   H57   S    
C51   H55   S    
Cu2   O4    S    
C41   H35   S    
Cu1   Cu2   S    
C40   C41   S    
C8    C12   S    
C22   H8    S    
C2    C26   S    
O13   C39   S    
C44   H40   S    
C2    H1    S    
C9    C17   S    
C5    H12   S    
C40   H33   S    
C27   O17   S    
C26   C30   S    
C43   O15   D    
Cu1   O1    S    
C53   H58   S    
C22   C24   S    
C52   C53   S    
Cu1   O3    S    
C19   O13   S    
Cu2   O6    S    
C12   O4    A    
C47   H46   S    
C39   C40   S    
C26   C42   S    
Cu2   N1    S    
C1    C10   S    
C25   O8    A    
C4    C5    S    
C26   C31   S    
C35   C36   S    
C12   O3    A    
C49   H50   S    
C42   O14   D    
C1    O1    A    
C51   H54   S    
C45   H41   S    
C28   H11   S    
C46   H45   S    
C52   H56   S    
C9    C15   A    
C51   C52   S    
C35   H22   S    
C16   H4    S    
C41   H36   S    
C11   C13   A    
C27   H10   S    
C23   O5    A    
C46   H44   S    
C37   H28   S    
C22   H7    S    
C4    O10   S    
C49   H52   S    
C31   O9    D    
C48   H48   S    
C2    C3    S    
C17   C38   S    
C17   H6    S    
Cu1   O7    S    
C44   H39   S    
Cu2   O2    S    
C20   N2    A    
C10   C11   A    
C11   O11   S    
C33   H17   S    
C6    C29   T    
C20   C43   S    
C40   H32   S    
C43   H38   S    
C5    C30   S    
C27   C28   S    
C53   H59   S    
C14   C15   A    
C47   H47   S    
C13   C14   A    
C1    O2    A    
C3    C4    S    
C21   N2    A    
