data_mof_unit_47608.cif
_audit_creation_date              2012-12-10T17:07:09-0500
_audit_creation_method            fapswitch 2.2
_symmetry_space_group_name_H-M    P1
_symmetry_Int_Tables_number       1
_space_group_crystal_system       triclinic
_cell_length_a                    17.304326
_cell_length_b                    11.027971
_cell_length_c                    9.807363
_cell_angle_alpha                 111.592732
_cell_angle_beta                  93.345415
_cell_angle_gamma                 92.122309
_cell_volume                      1733.79508931

loop_
_atom_site_label
_atom_site_type_symbol
_atom_type_description
_atom_site_fract_x
_atom_site_fract_y
_atom_site_fract_z
_atom_type_partial_charge
C1    C     C_R   0.493168 0.253651 0.440559 0.750446
C2    C     C_R   0.508864 0.746064 0.558638 0.729612
C3    C     C_2   0.484353 0.112902 0.406720 0.242535
C4    C     C_2   0.523158 0.885879 0.589761 0.243784
C5    C     C_2   0.516273 0.066939 0.503864 -0.206870
C6    C     C_2   0.502899 0.930082 0.483774 -0.190995
C7    C     C_2   0.506108 0.511240 0.080564 -0.078882
C8    C     C_2   0.493871 0.488802 0.919462 -0.076217
C9    C     C_R   0.352167 0.506213 0.522131 0.799347
C10   C     C_R   0.647871 0.494136 0.477920 0.772441
C11   C     C_R   0.269010 0.510291 0.539093 -0.062650
C12   C     C_R   0.731112 0.491945 0.461328 -0.059399
C13   C     C_R   0.219854 0.419074 0.426769 -0.232685
C14   C     C_R   0.779698 0.583336 0.574587 -0.247353
C15   C     C_R   0.140216 0.418699 0.434696 -0.149905
C16   C     C_R   0.859366 0.585895 0.567099 -0.150269
C17   C     C_R   0.108255 0.510837 0.554765 0.148183
C18   C     C_R   0.891982 0.495756 0.446405 0.148855
C19   C     C_R   0.156879 0.599517 0.669922 -0.186251
C20   C     C_R   0.843918 0.407129 0.330206 -0.189757
C21   C     C_R   0.237502 0.602021 0.663175 0.146731
C22   C     C_R   0.763267 0.402528 0.336433 0.149596
C23   C     C_2   0.024096 0.517878 0.561560 -0.218528
C24   C     C_2   0.976234 0.490236 0.440040 -0.218744
Cu1   Cu    Cu3+1 0.513640 0.521550 0.643210 0.931131
Cu2   Cu    Cu3+1 0.486360 0.478450 0.356790 0.927766
H1    H     H_    0.243292 0.347093 0.332622 0.151829
H2    H     H_    0.755773 0.653838 0.669073 0.146089
H3    H     H_    0.998803 0.457905 0.332193 0.145539
H4    H     H_    0.001647 0.550286 0.669496 0.145377
H5    H     H_    0.131746 0.670228 0.762864 0.125964
H6    H     H_    0.869544 0.338044 0.236694 0.125130
H7    H     H_    0.895146 0.658950 0.655586 0.130728
H8    H     H_    0.103907 0.345727 0.347072 0.130658
H9    H     H_    0.476527 0.863273 0.378160 0.183763
H10   H     H_    0.553258 0.130838 0.598509 0.175682
H11   H     H_    0.449642 0.415621 0.851952 0.165047
H12   H     H_    0.550305 0.584468 0.148106 0.154976
H13   H     H_    0.575222 0.623830 0.925308 0.188085
H14   H     H_    0.424807 0.376149 0.074654 0.193228
N1    N     N_2   0.465840 0.446060 0.141630 -0.281186
N2    N     N_2   0.534160 0.553940 0.858370 -0.286037
O1    O     O_R   0.507280 0.332200 0.576490 -0.586786
O2    O     O_R   0.492720 0.667800 0.423510 -0.597165
O3    O     O_R   0.484240 0.295800 0.334620 -0.577201
O4    O     O_R   0.515760 0.704200 0.665380 -0.564106
O5    O     O_R   0.399260 0.520290 0.634950 -0.571231
O6    O     O_R   0.600740 0.479710 0.365050 -0.573551
O7    O     O_R   0.376220 0.483890 0.393080 -0.569845
O8    O     O_R   0.623780 0.516110 0.606920 -0.572872
C25   C     C_3   0.715048 0.296969 0.212611 -0.418590
C26   C     C_3   0.699726 0.338238 0.081492 -0.780204
H15   H     H_    0.661985 0.261816 0.994269 0.238761
H16   H     H_    0.670287 0.431344 0.115040 0.261344
H17   H     H_    0.755174 0.351388 0.035478 0.235873
H18   H     H_    0.746319 0.205525 0.176541 0.195904
H19   H     H_    0.659338 0.271199 0.248843 0.202115
C27   C     C_3   0.286524 0.708107 0.785046 -0.412770
C28   C     C_3   0.302102 0.669203 0.917771 -0.776375
H20   H     H_    0.330828 0.575455 0.885539 0.260592
H21   H     H_    0.340632 0.745899 0.003067 0.240802
H22   H     H_    0.246835 0.658350 0.965557 0.239113
H23   H     H_    0.342200 0.731520 0.746928 0.210254
H24   H     H_    0.256032 0.800436 0.820029 0.191957
O9    O     O_3   0.551724 0.972373 0.728161 -0.622199
C29   C     C_3   0.626827 0.942317 0.766414 0.087195
H25   H     H_    0.669222 0.017890 0.760014 0.142492
H26   H     H_    0.645411 0.845534 0.693152 0.117839
C30   C     C_3   0.630196 0.947611 0.924626 -0.320350
H27   H     H_    0.616816 0.046722 0.999113 0.209971
H28   H     H_    0.585853 0.875989 0.933622 0.221542
C31   C     C_3   0.709922 0.916835 0.973535 -0.967638
H29   H     H_    0.722410 0.815027 0.906242 0.257829
H30   H     H_    0.711072 0.927095 0.090606 0.251320
H31   H     H_    0.755562 0.985379 0.962381 0.256822
O10   O     O_3   0.430687 0.033917 0.295305 -0.611196
C32   C     C_3   0.453377 0.020207 0.154409 0.082565
H32   H     H_    0.463340 0.915575 0.094172 0.141897
H33   H     H_    0.508366 0.076612 0.155205 0.126979
C33   C     C_3   0.387193 0.058958 0.071276 -0.347762
H34   H     H_    0.334476 0.994395 0.060432 0.218141
H35   H     H_    0.373383 0.161202 0.134134 0.233179
C34   C     C_3   0.408141 0.047804 0.918591 -0.873235
H36   H     H_    0.458795 0.115894 0.927479 0.283540
H37   H     H_    0.358326 0.073791 0.860370 0.241556
H38   H     H_    0.421892 0.946083 0.853676 0.276698

loop_
_geom_bond_atom_site_label_1
_geom_bond_atom_site_label_2
_ccdc_geom_bond_type
C29   H26   S    
C19   H5    S    
Cu1   O1    S    
Cu2   O2    S    
C7    C8    S    
C32   H32   S    
C2    O4    A    
C17   C23   S    
C18   C24   S    
C19   C21   A    
C8    N2    D    
C31   H31   S    
C4    O9    S    
C29   C30   S    
C5    H10   S    
C12   C22   A    
C6    H9    S    
C25   H18   S    
C30   H28   S    
Cu1   O8    S    
Cu2   O3    S    
C24   H3    S    
C1    O1    A    
C2    O2    A    
C23   C24   D    
C25   H19   S    
Cu1   O5    S    
C15   H8    S    
C26   H17   S    
Cu2   O6    S    
C29   H25   S    
C28   H20   S    
C33   C34   S    
C26   H16   S    
H13   N2    S    
C32   H33   S    
C27   H24   S    
C28   H21   S    
C25   C26   S    
C23   H4    S    
C9    O7    A    
O10   C32   S    
C33   H35   S    
Cu2   O7    S    
C33   H34   S    
Cu1   Cu2   S    
C11   C21   A    
C1    C3    S    
C30   C31   S    
C2    C4    S    
C16   H7    S    
C34   H36   S    
C3    O10   S    
C9    C11   S    
C10   C12   S    
C31   H30   S    
H14   N1    S    
C34   H37   S    
C12   C14   A    
C9    O5    A    
C13   C15   A    
C10   O6    A    
C14   C16   A    
C4    C6    D    
C8    H11   S    
C10   O8    A    
C26   H15   S    
C20   H6    S    
C32   C33   S    
C27   H23   S    
C15   C17   A    
C28   H22   S    
C20   C22   A    
C31   H29   S    
C3    C5    D    
Cu1   N2    S    
C27   C28   S    
C21   C27   S    
C11   C13   A    
C1    O3    A    
C5    C6    S    
C17   C19   A    
C7    H12   S    
C18   C20   A    
C7    N1    D    
C30   H27   S    
C34   H38   S    
C16   C18   A    
O9    C29   S    
C13   H1    S    
C14   H2    S    
Cu1   O4    S    
Cu2   N1    S    
C22   C25   S    
