data_mof_unit_20039.cif
_audit_creation_date              2012-12-10T17:15:40-0500
_audit_creation_method            fapswitch 2.2
_symmetry_space_group_name_H-M    P1
_symmetry_Int_Tables_number       1
_space_group_crystal_system       triclinic
_cell_length_a                    17.177761
_cell_length_b                    12.980697
_cell_length_c                    11.768267
_cell_angle_alpha                 99.452437
_cell_angle_beta                  87.917043
_cell_angle_gamma                 92.300695
_cell_volume                      2585.18576136

loop_
_atom_site_label
_atom_site_type_symbol
_atom_type_description
_atom_site_fract_x
_atom_site_fract_y
_atom_site_fract_z
_atom_type_partial_charge
C1    C     C_R   0.497683 0.299426 0.479108 0.874505
C2    C     C_R   0.500064 0.700628 0.521454 0.875027
C3    C     C_R   0.497345 0.814125 0.535060 -0.116133
C4    C     C_R   0.495074 0.185973 0.467130 -0.093109
C5    C     C_R   0.496361 0.015385 0.346245 0.458925
C6    C     C_R   0.494147 0.984056 0.656628 0.462391
C7    C     C_R   0.497803 0.124230 0.357527 -0.284537
C8    C     C_R   0.496345 0.875614 0.644900 -0.253132
C9    C     C_R   0.491554 0.139348 0.566091 -0.209130
C10   C     C_R   0.494447 0.861139 0.437189 -0.160926
C11   C     C_R   0.493083 0.031313 0.557073 -0.002763
C12   C     C_R   0.494688 0.969124 0.446341 0.012298
C13   C     C_R   0.429830 0.394049 0.034229 0.385396
C14   C     C_R   0.583298 0.587781 0.961040 0.387804
C15   C     C_R   0.438751 0.404513 0.154563 -0.060833
C16   C     C_R   0.574123 0.577171 0.840969 -0.065099
C17   C     C_R   0.530806 0.545373 0.151105 0.127233
C18   C     C_R   0.463788 0.462939 0.850661 0.130970
C19   C     C_R   0.529615 0.533234 0.028167 -0.109677
C20   C     C_R   0.473458 0.463067 0.970792 -0.110928
C21   C     C_R   0.350913 0.504585 0.517096 0.828488
C22   C     C_R   0.649049 0.494429 0.482727 0.839638
C23   C     C_R   0.266548 0.516343 0.530325 -0.081786
C24   C     C_R   0.733210 0.480276 0.468595 -0.044258
C25   C     C_R   0.227818 0.586250 0.472490 -0.036395
C26   C     C_R   0.772041 0.414193 0.531359 -0.093382
C27   C     C_R   0.145294 0.589562 0.481249 -0.042084
C28   C     C_R   0.854128 0.408297 0.520091 -0.041628
C29   C     C_R   0.104063 0.521342 0.546512 0.068223
C30   C     C_R   0.895631 0.471730 0.449421 0.148299
C31   C     C_R   0.143842 0.457184 0.607228 -0.099347
C32   C     C_R   0.855690 0.530749 0.382903 -0.184243
C33   C     C_R   0.224330 0.454337 0.598796 -0.198988
C34   C     C_R   0.775202 0.534698 0.392020 -0.221579
C35   C     C_2   0.018793 0.509450 0.547555 -0.216136
C36   C     C_2   0.980891 0.484763 0.448759 -0.137143
Cu1   Cu    Cu3+1 0.505800 0.507690 0.615350 0.957351
Cu2   Cu    Cu3+1 0.494200 0.492310 0.384650 0.947504
H1    H     H_    0.615216 0.614553 0.787967 0.142724
H2    H     H_    0.408896 0.351046 0.203900 0.139509
H3    H     H_    0.745914 0.584186 0.342679 0.143866
H4    H     H_    0.253531 0.399964 0.641832 0.174109
H5    H     H_    0.012278 0.481641 0.366428 0.154064
H6    H     H_    0.987588 0.512854 0.630032 0.153175
H7    H     H_    0.112060 0.405438 0.657393 0.163488
H8    H     H_    0.887343 0.577898 0.327433 0.147948
H9    H     H_    0.490988 0.813279 0.353474 0.240211
H10   H     H_    0.488957 0.187613 0.650335 0.184846
H11   H     H_    0.496751 0.839944 0.721891 0.169186
H12   H     H_    0.503046 0.160280 0.280764 0.161079
N1    N     N_R   0.514530 0.519260 0.788680 -0.245514
N2    N     N_R   0.485470 0.480740 0.211320 -0.245834
O1    O     O_R   0.504120 0.354440 0.581590 -0.593595
O2    O     O_R   0.495880 0.645560 0.418410 -0.589478
O3    O     O_R   0.494320 0.341440 0.386760 -0.596285
O4    O     O_R   0.505680 0.658560 0.613240 -0.594223
O5    O     O_R   0.391870 0.507230 0.608700 -0.585193
O6    O     O_R   0.608130 0.492770 0.391300 -0.612442
O7    O     O_R   0.382070 0.494240 0.413880 -0.587261
O8    O     O_R   0.617930 0.505760 0.586120 -0.577114
C37   C     C_2   0.273925 0.658185 0.408205 0.440051
H13   H     H_    0.262124 0.661068 0.318941 0.116959
O9    O     O_2   0.325522 0.715202 0.455256 -0.560960
C38   C     C_2   0.727178 0.347249 0.603478 0.360117
H14   H     H_    0.745916 0.341491 0.689114 0.041382
O10   O     O_2   0.669807 0.295899 0.566418 -0.540027
O11   O     O_3   0.390480 0.306804 0.974765 -0.617010
C39   C     C_3   0.317202 0.284767 0.026534 0.111283
H15   H     H_    0.273066 0.276756 0.958646 0.191947
H16   H     H_    0.296664 0.347989 0.095787 0.120671
C40   C     C_3   0.319380 0.180394 0.070745 -0.393554
H17   H     H_    0.332682 0.117535 0.997285 0.244905
H18   H     H_    0.366088 0.183563 0.134021 0.200204
C41   C     C_3   0.241827 0.153459 0.127969 -0.883593
H19   H     H_    0.228307 0.214126 0.203517 0.259882
H20   H     H_    0.245429 0.077048 0.157941 0.260535
H21   H     H_    0.194176 0.147769 0.065676 0.263687
O12   O     O_3   0.651181 0.634906 0.010099 -0.613730
C42   C     C_3   0.670553 0.732889 0.975885 0.106976
H22   H     H_    0.679572 0.791035 0.055178 0.204406
H23   H     H_    0.623808 0.764202 0.929132 0.102534
C43   C     C_3   0.747241 0.725952 0.904900 -0.378316
H24   H     H_    0.794534 0.705989 0.958673 0.233626
H25   H     H_    0.742443 0.663177 0.828850 0.211852
C44   C     C_3   0.769095 0.829022 0.863666 -0.909605
H26   H     H_    0.723023 0.849918 0.808469 0.255716
H27   H     H_    0.824698 0.821283 0.812363 0.263807
H28   H     H_    0.776925 0.892385 0.938560 0.264782
C45   C     C_2   0.895232 0.331359 0.575662 0.343575
H29   H     H_    0.872637 0.308260 0.655177 0.046584
O13   O     O_2   0.954025 0.290357 0.531105 -0.516468
C46   C     C_2   0.101014 0.667647 0.431585 0.323254
H30   H     H_    0.043904 0.689829 0.467611 0.097411
O14   O     O_2   0.126101 0.706638 0.349509 -0.560014
O15   O     O_3   0.507075 0.953950 0.239177 -0.589276
C47   C     C_3   0.443082 0.961061 0.169257 0.038276
H31   H     H_    0.448820 0.034699 0.132667 0.134725
H32   H     H_    0.386341 0.958846 0.218354 0.142331
C48   C     C_3   0.443287 0.868055 0.070792 -0.291248
H33   H     H_    0.501937 0.862343 0.027666 0.225923
H34   H     H_    0.430390 0.794838 0.106474 0.242201
C49   C     C_3   0.383064 0.878314 0.981557 -0.907004
H35   H     H_    0.323903 0.885777 0.022759 0.265196
H36   H     H_    0.383105 0.807776 0.913872 0.270120
H37   H     H_    0.397654 0.947778 0.940015 0.276872
O16   O     O_3   0.489370 0.042633 0.765885 -0.621080
C50   C     C_3   0.564681 0.079300 0.802310 0.048913
H38   H     H_    0.562814 0.165334 0.829499 0.179092
H39   H     H_    0.611882 0.065070 0.734120 0.137265
C51   C     C_3   0.585478 0.029644 0.905766 -0.348313
H40   H     H_    0.538949 0.044840 0.973666 0.238743
H41   H     H_    0.589348 0.943826 0.878972 0.201024
C52   C     C_3   0.662798 0.074172 0.955603 -0.891142
H42   H     H_    0.710546 0.060286 0.889295 0.255985
H43   H     H_    0.676403 0.035380 0.029518 0.267260
H44   H     H_    0.659137 0.159465 0.986538 0.261753
C53   C     C_2   0.394457 0.410063 0.794509 0.520716
H45   H     H_    0.399760 0.349624 0.720028 0.058279
O17   O     O_2   0.329502 0.434471 0.832485 -0.583272
C54   C     C_2   0.576166 0.633900 0.214854 0.493741
H46   H     H_    0.617089 0.622987 0.278488 0.075763
O18   O     O_2   0.568143 0.722229 0.195327 -0.583795

loop_
_geom_bond_atom_site_label_1
_geom_bond_atom_site_label_2
_ccdc_geom_bond_type
C27   C29   A    
O15   C47   S    
C16   N1    A    
C44   H26   S    
C41   H20   S    
C33   H4    S    
C24   C26   A    
C21   O7    A    
C53   O17   D    
C22   O8    A    
Cu1   N1    S    
Cu2   N2    S    
O16   C50   S    
C47   C48   S    
C49   H37   S    
C37   O9    D    
C26   C38   S    
C51   H40   S    
C1    O1    A    
C17   C54   S    
Cu2   O6    S    
Cu1   O4    S    
Cu2   O3    S    
C35   C36   D    
C39   H15   S    
C23   C33   A    
C41   H21   S    
C47   H32   S    
C50   H38   S    
C31   C33   A    
C28   C45   S    
C45   O13   D    
C18   C20   A    
C52   H44   S    
Cu1   O1    S    
C14   O12   S    
C50   H39   S    
C49   H35   S    
C34   H3    S    
C4    C7    A    
C17   N2    A    
C5    O15   S    
C54   O18   D    
C18   N1    A    
C44   H27   S    
C41   H19   S    
O11   C39   S    
C5    C12   A    
C3    C8    A    
C2    O2    A    
C6    C11   A    
C5    C7    A    
O12   C42   S    
C6    C8    A    
C24   C34   A    
Cu2   O7    S    
C38   O10   D    
C21   O5    A    
Cu1   Cu2   S    
C42   C43   S    
C48   H33   S    
Cu2   O2    S    
C47   H31   S    
C46   O14   D    
C6    O16   S    
C27   C46   S    
C25   C37   S    
C15   N2    A    
C49   H36   S    
C35   H6    S    
C9    C11   A    
C18   C53   S    
C10   C12   A    
C48   H34   S    
C43   H25   S    
C13   C15   A    
C50   C51   S    
C14   C16   A    
C45   H29   S    
C51   C52   S    
C54   H46   S    
C42   H23   S    
C52   H42   S    
C13   O11   S    
C44   H28   S    
C13   C20   A    
C32   H8    S    
C14   C19   A    
C7    H12   S    
C22   O6    A    
C40   C41   S    
C11   C12   A    
C25   C27   A    
C43   C44   S    
C29   C35   S    
C26   C28   A    
C30   C36   S    
C1    C4    S    
C38   H14   S    
C19   C20   A    
C21   C23   S    
C2    C3    S    
C1    O3    A    
C40   H17   S    
C29   C31   A    
C3    C10   A    
C2    O4    A    
C53   H45   S    
C30   C32   A    
C39   C40   S    
C28   C30   A    
C46   H30   S    
C17   C19   A    
C22   C24   S    
C23   C25   A    
C37   H13   S    
C51   H41   S    
C15   H2    S    
Cu1   O8    S    
C16   H1    S    
C42   H22   S    
C48   C49   S    
C9    H10   S    
C39   H16   S    
C43   H24   S    
C31   H7    S    
C40   H18   S    
C10   H9    S    
C36   H5    S    
C4    C9    A    
C8    H11   S    
Cu1   O5    S    
C32   C34   A    
C52   H43   S    
