data_mof_unit_20019.cif
_audit_creation_date              2012-12-11T15:09:00-0500
_audit_creation_method            fapswitch 2.2
_symmetry_space_group_name_H-M    P1
_symmetry_Int_Tables_number       1
_space_group_crystal_system       triclinic
_cell_length_a                    19.413552
_cell_length_b                    11.337874
_cell_length_c                    18.697765
_cell_angle_alpha                 90.401515
_cell_angle_beta                  90.185628
_cell_angle_gamma                 90.180447
_cell_volume                      4115.39189988

loop_
_atom_site_label
_atom_site_type_symbol
_atom_type_description
_atom_site_fract_x
_atom_site_fract_y
_atom_site_fract_z
_atom_type_partial_charge
C1    C     C_R   0.271951 0.044395 0.853059 0.579137
C2    C     C_R   0.726388 0.039504 0.144815 0.573444
C3    C     C_R   0.771951 0.544395 0.853059 0.579137
C4    C     C_R   0.226388 0.539504 0.144815 0.573444
C5    C     C_3   0.519704 0.718167 0.968204 -0.113715
C6    C     C_3   0.478959 0.747147 0.036167 -0.098664
C7    C     C_3   0.019704 0.218167 0.968204 -0.113715
C8    C     C_3   0.978959 0.247147 0.036167 -0.098664
C9    C     C_3   0.310400 0.520714 0.041466 -0.233570
C10   C     C_3   0.684493 0.536106 0.953463 -0.233332
C11   C     C_3   0.810400 0.020714 0.041466 -0.233570
C12   C     C_3   0.184493 0.036105 0.953463 -0.233332
C13   C     C_3   0.314841 0.540515 0.960138 -0.235834
C14   C     C_3   0.677540 0.552624 0.035064 -0.245327
C15   C     C_3   0.814841 0.040515 0.960138 -0.235834
C16   C     C_3   0.177540 0.052624 0.035064 -0.245327
C17   C     C_3   0.180635 0.550258 0.024295 -0.257088
C18   C     C_3   0.816285 0.523459 0.971733 -0.248816
C19   C     C_3   0.680635 0.050258 0.024295 -0.257088
C20   C     C_3   0.316285 0.023459 0.971733 -0.248816
C21   C     C_3   0.255977 0.712005 0.070080 -0.062903
C22   C     C_3   0.763532 0.710171 0.940144 -0.072560
C23   C     C_3   0.755977 0.212005 0.070080 -0.062903
C24   C     C_3   0.263532 0.210171 0.940144 -0.072560
C25   C     C_3   0.244222 0.579104 0.072260 0.079344
C26   C     C_3   0.757139 0.577910 0.927491 0.083683
C27   C     C_3   0.744222 0.079104 0.072260 0.079344
C28   C     C_3   0.257139 0.077910 0.927491 0.083682
C29   C     C_3   0.263792 0.639593 0.938244 0.038605
C30   C     C_3   0.742780 0.615025 0.065539 0.039368
C31   C     C_3   0.763792 0.139593 0.938244 0.038605
C32   C     C_3   0.242780 0.115025 0.065539 0.039368
C33   C     C_3   0.189454 0.597968 0.949480 -0.229071
C34   C     C_3   0.802763 0.531226 0.052509 -0.265355
C35   C     C_3   0.689454 0.097968 0.949480 -0.229071
C36   C     C_3   0.302763 0.031225 0.052509 -0.265356
C37   C     C_3   0.275716 0.742854 0.991612 -0.258046
C38   C     C_3   0.759410 0.730022 0.022760 -0.217944
C39   C     C_3   0.775716 0.242854 0.991612 -0.258046
C40   C     C_3   0.259410 0.230022 0.022760 -0.217944
C41   C     C_3   0.503728 0.701850 0.460021 -0.228403
C42   C     C_3   0.496242 0.701636 0.539357 -0.229481
C43   C     C_3   0.003728 0.201850 0.460021 -0.228403
C44   C     C_3   0.996242 0.201636 0.539357 -0.229481
C45   C     C_R   0.462611 0.820614 0.858407 0.551759
C46   C     C_R   0.559909 0.816951 0.138551 0.549283
C47   C     C_R   0.962611 0.320614 0.858407 0.551759
C48   C     C_R   0.059909 0.316951 0.138551 0.549283
C49   C     C_3   0.564750 0.904831 0.474126 -0.221806
C50   C     C_3   0.435586 0.904480 0.526882 -0.219894
C51   C     C_3   0.064750 0.404831 0.474126 -0.221806
C52   C     C_3   0.935586 0.404480 0.526882 -0.219893
C53   C     C_3   0.441048 0.887238 0.444791 -0.260600
C54   C     C_3   0.559255 0.887056 0.556064 -0.260837
C55   C     C_3   0.941048 0.387238 0.444791 -0.260600
C56   C     C_3   0.059255 0.387056 0.556064 -0.260836
C57   C     C_3   0.510667 0.829464 0.431016 0.060115
C58   C     C_3   0.489481 0.829013 0.569294 0.062527
C59   C     C_3   0.010667 0.329464 0.431016 0.060115
C60   C     C_3   0.989481 0.329013 0.569294 0.062527
C61   C     C_3   0.179718 0.646638 0.459383 -0.230086
C62   C     C_3   0.820331 0.646250 0.540916 -0.228720
C63   C     C_3   0.679718 0.146638 0.459383 -0.230086
C64   C     C_3   0.320331 0.146250 0.540916 -0.228719
C65   C     C_3   0.184586 0.659484 0.538643 -0.229062
C66   C     C_3   0.815286 0.660064 0.461725 -0.229034
C67   C     C_3   0.684586 0.159484 0.538643 -0.229063
C68   C     C_3   0.315286 0.160064 0.461725 -0.229034
C69   C     C_3   0.252467 0.455384 0.472271 -0.220195
C70   C     C_3   0.747319 0.454885 0.526124 -0.221206
C71   C     C_3   0.752467 0.955384 0.472271 -0.220195
C72   C     C_3   0.247319 0.954885 0.526124 -0.221206
C73   C     C_3   0.304686 0.648152 0.442726 -0.260766
C74   C     C_3   0.695361 0.647030 0.557929 -0.260329
C75   C     C_3   0.804686 0.148152 0.442726 -0.260766
C76   C     C_3   0.195361 0.147031 0.557929 -0.260329
C77   C     C_3   0.240617 0.572793 0.429846 0.063222
C78   C     C_3   0.759323 0.571965 0.569935 0.063526
C79   C     C_3   0.740617 0.072793 0.429846 0.063222
C80   C     C_3   0.259322 0.071965 0.569935 0.063526
C81   C     C_3   0.252735 0.605904 0.567565 0.061696
C82   C     C_3   0.747097 0.606315 0.432387 0.062629
C83   C     C_3   0.752735 0.105904 0.567565 0.061696
C84   C     C_3   0.247097 0.106315 0.432387 0.062629
C85   C     C_3   0.247173 0.473290 0.554119 -0.261502
C86   C     C_3   0.752540 0.473641 0.444433 -0.260506
C87   C     C_3   0.747173 0.973290 0.554119 -0.261502
C88   C     C_3   0.252540 0.973641 0.444433 -0.260506
C89   C     C_R   0.272274 0.677963 0.861353 0.547548
C90   C     C_R   0.736554 0.646002 0.143396 0.550792
C91   C     C_R   0.772274 0.177963 0.861353 0.547548
C92   C     C_R   0.236555 0.146002 0.143396 0.550792
C93   C     C_3   0.317285 0.648666 0.524517 -0.223448
C94   C     C_3   0.682685 0.648374 0.476139 -0.222401
C95   C     C_3   0.817285 0.148666 0.524517 -0.223449
C96   C     C_3   0.182685 0.148374 0.476139 -0.222401
C97   C     C_R   0.273118 0.042871 0.645670 0.552643
C98   C     C_R   0.726997 0.043573 0.354078 0.556160
C99   C     C_R   0.773118 0.542871 0.645670 0.552643
C100  C     C_R   0.226997 0.543573 0.354078 0.556160
C101  C     C_R   0.468688 0.822958 0.645506 0.546620
C102  C     C_R   0.531401 0.823200 0.354634 0.555598
C103  C     C_R   0.968688 0.322958 0.645506 0.546620
C104  C     C_R   0.031400 0.323200 0.354634 0.555598
C105  C     C_R   0.260875 0.640014 0.643645 0.555102
C106  C     C_R   0.738976 0.640568 0.356481 0.550040
C107  C     C_R   0.760875 0.140014 0.643645 0.555102
C108  C     C_R   0.238976 0.140568 0.356481 0.550040
C109  C     C_3   0.508582 0.932690 0.027253 -0.115979
C110  C     C_3   0.548913 0.903589 0.958327 -0.109948
C111  C     C_3   0.008582 0.432690 0.027253 -0.115979
C112  C     C_3   0.048913 0.403588 0.958327 -0.109948
C113  C     C_3   0.448150 0.856718 0.000765 -0.153998
C114  C     C_3   0.579687 0.794472 0.995633 -0.157241
C115  C     C_3   0.948150 0.356718 0.000765 -0.153998
C116  C     C_3   0.079687 0.294472 0.995633 -0.157241
C117  C     C_3   0.489189 0.827500 0.932386 0.066243
C118  C     C_3   0.538477 0.823338 0.063082 0.049183
C119  C     C_3   0.989189 0.327500 0.932386 0.066244
C120  C     C_3   0.038477 0.323338 0.063082 0.049183
Cr1   Cr    Cr6+3 0.229620 0.836040 0.749110 1.005118
Cr2   Cr    Cr6+3 0.770380 0.836040 0.250890 1.010594
Cr3   Cr    Cr6+3 0.729620 0.336040 0.749110 1.005118
Cr4   Cr    Cr6+3 0.270380 0.336040 0.250890 1.010594
Cr5   Cr    Cr6+3 0.387630 0.990680 0.750730 1.010819
Cr6   Cr    Cr6+3 0.612370 0.990680 0.249270 1.010805
Cr7   Cr    Cr6+3 0.887630 0.490680 0.750730 1.010819
Cr8   Cr    Cr6+3 0.112370 0.490680 0.249270 1.010805
Cr9   Cr    Cr6+3 0.386020 0.676590 0.749210 1.013134
Cr10  Cr    Cr6+3 0.613980 0.676590 0.250790 1.011203
Cr11  Cr    Cr6+3 0.886020 0.176590 0.749210 1.013135
Cr12  Cr    Cr6+3 0.113980 0.176590 0.250790 1.011203
H1    H     H_    0.400338 0.886207 0.023597 0.130466
H2    H     H_    0.632456 0.767027 0.992564 0.141661
H3    H     H_    0.900338 0.386207 0.023597 0.130466
H4    H     H_    0.132456 0.267027 0.992564 0.141661
H5    H     H_    0.207339 0.758477 0.083983 0.140474
H6    H     H_    0.815543 0.740907 0.923198 0.144114
H7    H     H_    0.707339 0.258477 0.083983 0.140474
H8    H     H_    0.315543 0.240907 0.923198 0.144114
H9    H     H_    0.330667 0.760594 0.989684 0.126922
H10   H     H_    0.726634 0.802746 0.039506 0.102435
H11   H     H_    0.830667 0.260594 0.989684 0.126922
H12   H     H_    0.226634 0.302746 0.039507 0.102435
H13   H     H_    0.632413 0.088731 0.046329 0.135569
H14   H     H_    0.365852 0.070376 0.961516 0.135273
H15   H     H_    0.132413 0.588731 0.046329 0.135569
H16   H     H_    0.865852 0.570376 0.961516 0.135273
H17   H     H_    0.152938 0.672707 0.942243 0.131037
H18   H     H_    0.850196 0.560512 0.081292 0.147343
H19   H     H_    0.652938 0.172707 0.942243 0.131038
H20   H     H_    0.350196 0.060512 0.081292 0.147343
H21   H     H_    0.547003 0.645603 0.445865 0.136403
H22   H     H_    0.453080 0.644904 0.553184 0.136004
H23   H     H_    0.047003 0.145603 0.445865 0.136403
H24   H     H_    0.953080 0.144904 0.553184 0.136004
H25   H     H_    0.458802 0.656985 0.435004 0.119117
H26   H     H_    0.541207 0.657195 0.563936 0.117209
H27   H     H_    0.958802 0.156985 0.435004 0.119117
H28   H     H_    0.041207 0.157195 0.563936 0.117209
H29   H     H_    0.616672 0.895758 0.454079 0.110943
H30   H     H_    0.383573 0.895672 0.546810 0.111265
H31   H     H_    0.116672 0.395758 0.454079 0.110943
H32   H     H_    0.883573 0.395672 0.546810 0.111264
H33   H     H_    0.601259 0.830768 0.576179 0.114787
H34   H     H_    0.398902 0.831010 0.424045 0.117198
H35   H     H_    0.101259 0.330769 0.576179 0.114787
H36   H     H_    0.898902 0.331010 0.424045 0.117198
H37   H     H_    0.503794 0.021804 0.051713 0.120113
H38   H     H_    0.572310 0.969109 0.922548 0.132108
H39   H     H_    0.003794 0.521804 0.051713 0.120113
H40   H     H_    0.072310 0.469108 0.922548 0.132108
H41   H     H_    0.449851 0.997286 0.537661 0.119459
H42   H     H_    0.550767 0.997646 0.464431 0.118496
H43   H     H_    0.949850 0.497285 0.537661 0.119459
H44   H     H_    0.050767 0.497646 0.464431 0.118496
H45   H     H_    0.179260 0.735238 0.434385 0.117854
H46   H     H_    0.821251 0.734562 0.567044 0.119186
H47   H     H_    0.679260 0.235238 0.434385 0.117854
H48   H     H_    0.321251 0.234562 0.567044 0.119185
H49   H     H_    0.178833 0.752632 0.552158 0.135656
H50   H     H_    0.821001 0.753304 0.449316 0.134039
H51   H     H_    0.678833 0.252632 0.552158 0.135656
H52   H     H_    0.321001 0.253304 0.449316 0.134039
H53   H     H_    0.139609 0.616226 0.564019 0.118223
H54   H     H_    0.860175 0.617443 0.435657 0.118793
H55   H     H_    0.639609 0.116226 0.564019 0.118223
H56   H     H_    0.360175 0.117443 0.435657 0.118793
H57   H     H_    0.697948 0.938802 0.574777 0.115674
H58   H     H_    0.301754 0.939681 0.423295 0.115932
H59   H     H_    0.197948 0.438802 0.574777 0.115674
H60   H     H_    0.801754 0.439681 0.423295 0.115932
H61   H     H_    0.349329 0.609937 0.413896 0.117851
H62   H     H_    0.650617 0.608271 0.586272 0.115186
H63   H     H_    0.849329 0.109937 0.413896 0.117851
H64   H     H_    0.150617 0.108271 0.586272 0.115186
H65   H     H_    0.524028 0.628695 0.944217 0.123549
H66   H     H_    0.451180 0.679928 0.067560 0.155022
H67   H     H_    0.024028 0.128694 0.944217 0.123549
H68   H     H_    0.951180 0.179928 0.067560 0.155022
H69   H     H_    0.338337 0.731282 0.544171 0.111574
H70   H     H_    0.661843 0.731326 0.457875 0.110687
H71   H     H_    0.838337 0.231282 0.544171 0.111575
H72   H     H_    0.161843 0.231326 0.457875 0.110687
H73   H     H_    0.357445 0.581965 0.534320 0.119022
H74   H     H_    0.642244 0.581771 0.465558 0.119090
H75   H     H_    0.857445 0.081964 0.534320 0.119022
H76   H     H_    0.142244 0.081770 0.465558 0.119090
H77   H     H_    0.306404 0.429982 0.461434 0.119954
H78   H     H_    0.693411 0.428659 0.536638 0.118996
H79   H     H_    0.806404 0.929982 0.461434 0.119954
H80   H     H_    0.193411 0.928659 0.536638 0.118996
H81   H     H_    0.289418 0.426172 0.581988 0.115391
H82   H     H_    0.710231 0.426409 0.416038 0.115301
H83   H     H_    0.789418 0.926172 0.581988 0.115391
H84   H     H_    0.210231 0.926409 0.416038 0.115301
H85   H     H_    0.313679 0.428591 0.054446 0.122321
H86   H     H_    0.673075 0.443427 0.938774 0.124452
H87   H     H_    0.813679 0.928591 0.054446 0.122321
H88   H     H_    0.173075 0.943427 0.938774 0.124452
H89   H     H_    0.302909 0.457765 0.931055 0.167818
H90   H     H_    0.671238 0.464689 0.060276 0.121368
H91   H     H_    0.802910 0.957765 0.931055 0.167818
H92   H     H_    0.171238 0.964689 0.060276 0.121368
H93   H     H_    0.672361 0.955333 0.021399 0.122061
H94   H     H_    0.325807 0.934982 0.951083 0.098895
H95   H     H_    0.172361 0.455333 0.021399 0.122061
H96   H     H_    0.825807 0.434982 0.951083 0.098895
H97   H     H_    0.676165 0.031503 0.908795 0.177574
H98   H     H_    0.288279 0.944555 0.072153 0.164702
H99   H     H_    0.176165 0.531502 0.908795 0.177574
H100  H     H_    0.788279 0.444555 0.072153 0.164702
O1    O     O_R   0.214130 0.708570 0.829890 -0.518887
O2    O     O_R   0.785870 0.708570 0.170110 -0.522504
O3    O     O_R   0.714130 0.208570 0.829890 -0.518887
O4    O     O_R   0.285870 0.208570 0.170110 -0.522504
O5    O     O_R   0.446360 0.919990 0.675230 -0.508630
O6    O     O_R   0.553640 0.919990 0.324770 -0.505004
O7    O     O_R   0.946360 0.419990 0.675230 -0.508630
O8    O     O_R   0.053640 0.419990 0.324770 -0.505004
O9    O     O_R   0.457170 0.717300 0.668380 -0.528499
O10   O     O_R   0.542830 0.717300 0.331620 -0.524060
O11   O     O_R   0.957170 0.217300 0.668380 -0.528499
O12   O     O_R   0.042830 0.217300 0.331620 -0.524060
O13   O     O_R   0.320870 0.624890 0.673130 -0.503606
O14   O     O_R   0.679130 0.624890 0.326870 -0.508394
O15   O     O_R   0.820870 0.124890 0.673130 -0.503606
O16   O     O_R   0.179130 0.124890 0.326870 -0.508394
O17   O     O_3   0.334430 0.834430 0.749680 -0.299585
O18   O     O_3   0.665570 0.834430 0.250320 -0.305306
O19   O     O_3   0.834430 0.334430 0.749680 -0.299585
O20   O     O_3   0.165570 0.334430 0.250320 -0.305306
O21   O     O_R   0.236050 0.959150 0.825270 -0.519428
O22   O     O_R   0.763950 0.959150 0.174730 -0.503674
O23   O     O_R   0.736050 0.459150 0.825270 -0.519428
O24   O     O_R   0.263950 0.459150 0.174730 -0.503674
O25   O     O_R   0.332100 0.076650 0.832310 -0.520789
O26   O     O_R   0.667900 0.076650 0.167690 -0.530598
O27   O     O_R   0.832100 0.576650 0.832310 -0.520789
O28   O     O_R   0.167900 0.576650 0.167690 -0.530598
O29   O     O_R   0.446500 0.918620 0.826240 -0.506766
O30   O     O_R   0.553500 0.918620 0.173760 -0.495430
O31   O     O_R   0.946500 0.418620 0.826240 -0.506766
O32   O     O_R   0.053500 0.418620 0.173760 -0.495430
O33   O     O_R   0.457310 0.715830 0.831280 -0.523692
O34   O     O_R   0.542690 0.715830 0.168720 -0.505019
O35   O     O_R   0.957310 0.215830 0.831280 -0.523692
O36   O     O_R   0.042690 0.215830 0.168720 -0.505019
O37   O     O_R   0.321000 0.623520 0.824130 -0.492394
O38   O     O_R   0.679000 0.623520 0.175870 -0.515217
O39   O     O_R   0.821000 0.123520 0.824130 -0.492394
O40   O     O_R   0.179000 0.123520 0.175870 -0.515218
O41   O     O_R   0.213990 0.710040 0.667000 -0.528923
O42   O     O_R   0.786010 0.710040 0.333000 -0.529503
O43   O     O_R   0.713990 0.210040 0.667000 -0.528923
O44   O     O_R   0.286010 0.210040 0.333000 -0.529503
O45   O     O_R   0.235920 0.960520 0.674260 -0.509921
O46   O     O_R   0.764080 0.960520 0.325740 -0.505665
O47   O     O_R   0.735920 0.460520 0.674260 -0.509921
O48   O     O_R   0.264080 0.460520 0.325740 -0.505665
O49   O     O_R   0.331960 0.078120 0.669410 -0.526551
O50   O     O_R   0.668040 0.078120 0.330590 -0.527423
O51   O     O_R   0.831960 0.578120 0.669410 -0.526551
O52   O     O_R   0.168040 0.578120 0.330590 -0.527423
I1    I     I_    0.330049 0.763887 0.153286 -0.467411
I2    I     I_    0.700410 0.804244 0.863900 -0.500449
I3    I     I_    0.830049 0.263887 0.153286 -0.467412
I4    I     I_    0.200410 0.304244 0.863900 -0.500450
H101  H     H_    0.244402 0.817696 0.974825 0.107520
H102  H     H_    0.812685 0.752742 0.039460 0.119116
H103  H     H_    0.744402 0.317696 0.974825 0.107519
H104  H     H_    0.312685 0.252742 0.039460 0.119116
H105  H     H_    0.437986 0.973251 0.416967 0.114373
H106  H     H_    0.562542 0.972837 0.584874 0.114152
H107  H     H_    0.937986 0.473251 0.416967 0.114373
H108  H     H_    0.062542 0.472837 0.584874 0.114152
H109  H     H_    0.129472 0.609902 0.445751 0.135286
H110  H     H_    0.870432 0.609103 0.553778 0.134335
H111  H     H_    0.629472 0.109902 0.445751 0.135286
H112  H     H_    0.370432 0.109103 0.553778 0.134335
H113  H     H_    0.721972 0.881766 0.452522 0.111216
H114  H     H_    0.278084 0.881587 0.544644 0.110587
H115  H     H_    0.221972 0.381766 0.452522 0.111216
H116  H     H_    0.778084 0.381587 0.544644 0.110587
H117  H     H_    0.296774 0.738498 0.422517 0.116843
H118  H     H_    0.703392 0.737258 0.579287 0.116105
H119  H     H_    0.796774 0.238499 0.422517 0.116843
H120  H     H_    0.203392 0.237258 0.579287 0.116105
H121  H     H_    0.357012 0.558143 0.067332 0.148253
H122  H     H_    0.643856 0.587065 0.925902 0.152183
H123  H     H_    0.857012 0.058143 0.067332 0.148253
H124  H     H_    0.143856 0.087065 0.925902 0.152183
H125  H     H_    0.368658 0.565671 0.946427 0.131358
H126  H     H_    0.629851 0.600288 0.048935 0.135166
H127  H     H_    0.868658 0.065671 0.946427 0.131358
H128  H     H_    0.129851 0.100288 0.048935 0.135166

loop_
_geom_bond_atom_site_label_1
_geom_bond_atom_site_label_2
_ccdc_geom_bond_type
C74   H62   S    
C61   H45   S    
C82   C94   S    
C55   C59   S    
C73   C93   S    
C42   C58   S    
C29   C89   S    
C75   C95   S    
C48   C120  S    
Cr9   O13   S    
C24   H8    S    
C57   C102  S    
C59   C104  S    
Cr8   O28   S    
Cr1   O45   S    
Cr2   O42   S    
C5    C6    S    
Cr10  O38   S    
Cr3   O47   S    
C96   H76   S    
Cr11  O35   S    
C22   C38   S    
C29   C33   S    
C11   H123  S    
C30   C38   S    
C77   C100  S    
C9    C13   S    
C22   I2    S    
C11   C15   S    
C12   C16   S    
Cr11  O19   S    
C64   H112  S    
C21   H5    S    
C60   C103  S    
C107  O43   A    
C45   O33   A    
C66   H50   S    
C4    O28   A    
C113  H1    S    
C90   O38   A    
C55   H36   S    
C2    O22   A    
C67   H55   S    
C109  C118  S    
C63   C67   S    
Cr9   O17   S    
C50   C53   S    
Cr6   O26   S    
C39   H103  S    
C7    C119  S    
C62   C66   S    
C20   C28   S    
C92   O4    A    
C43   C44   S    
C66   C82   S    
C11   C27   S    
C100  O52   A    
C58   C101  S    
C52   H43   S    
Cr2   O2    S    
C71   H79   S    
C66   H54   S    
C71   C87   S    
C20   H14   S    
C16   H92   S    
C54   H33   S    
Cr6   O6    S    
C47   O35   A    
C104  O8    A    
C68   H52   S    
C3    C26   S    
C84   C88   S    
C31   C91   S    
Cr12  O40   S    
Cr1   O21   S    
C85   H59   S    
C108  O16   A    
C86   H60   S    
C17   C25   S    
Cr5   O17   S    
C19   C35   S    
C76   C96   S    
C32   C92   S    
C3    O27   A    
Cr4   O20   S    
C69   H77   S    
C51   H44   S    
C14   H126  S    
Cr4   O4    S    
C61   C65   S    
C53   H34   S    
C9    H121  S    
C78   C99   S    
C73   C77   S    
C33   H17   S    
C75   C79   S    
C12   H88   S    
C76   H120  S    
C67   C83   S    
C80   C97   S    
C50   H30   S    
C69   C77   S    
C111  C112  S    
C94   H74   S    
C73   H117  S    
C71   C79   S    
C4    C25   S    
Cr4   O48   S    
C7    C8    S    
C64   C68   S    
C42   H22   S    
C43   H27   S    
C95   H71   S    
C91   O3    A    
C20   H94   S    
C89   O1    A    
C97   O45   A    
C52   C60   S    
C99   O47   A    
Cr12  O12   S    
C61   C77   S    
C102  O10   A    
C110  C114  S    
C49   H29   S    
C55   H107  S    
C56   H108  S    
Cr2   O46   S    
C109  H37   S    
C96   H72   S    
C41   H21   S    
C10   H122  S    
C81   C105  S    
C61   H109  S    
C30   C34   S    
C101  O5    A    
C44   H24   S    
C10   C14   S    
C36   H20   S    
C5    H65   S    
C116  C120  S    
C20   C36   S    
C7    C116  S    
C86   H82   S    
C97   O49   A    
Cr2   O18   S    
C45   O29   A    
C114  H2    S    
Cr11  O39   S    
C17   C33   S    
C105  O13   A    
C67   H51   S    
C54   H106  S    
C113  C117  S    
Cr5   O49   S    
C115  C119  S    
C74   C78   S    
C70   H78   S    
Cr7   O27   S    
C8    H68   S    
C4    O24   A    
C11   H87   S    
C112  C116  S    
C69   C85   S    
C45   C117  S    
C21   C25   S    
C69   H115  S    
C70   H116  S    
C62   C78   S    
C76   C80   S    
C13   H89   S    
C15   C31   S    
C16   C32   S    
C63   H111  S    
C105  O41   A    
C19   H93   S    
C72   C80   S    
C17   H95   S    
C115  H3    S    
C56   H35   S    
C111  H39   S    
C82   C106  S    
C13   H125  S    
C68   H56   S    
C37   H101  S    
Cr5   O29   S    
Cr8   O52   S    
C33   H99   S    
C81   C85   S    
C23   I3    S    
C83   C87   S    
C24   I4    S    
Cr7   O7    S    
C73   H61   S    
C41   C42   S    
C74   C94   S    
C18   C26   S    
C30   C90   S    
C34   H18   S    
C9    C25   S    
C72   H114  S    
C88   H58   S    
Cr12  O20   S    
C12   H124  S    
C37   H9    S    
C12   C28   S    
C50   H41   S    
C13   C29   S    
C92   O40   A    
C9    H85   S    
C46   C118  S    
C76   H64   S    
C1    C28   S    
C51   H31   S    
C2    C27   S    
C94   H70   S    
Cr3   O23   S    
C74   H118  S    
C52   C55   S    
C64   C80   S    
C42   H26   S    
C35   H19   S    
C43   H23   S    
C110  C117  S    
C49   H42   S    
C1    O21   A    
C1    O25   A    
C95   H75   S    
C68   C84   S    
C24   C28   S    
C98   O46   A    
C53   C57   S    
Cr12  O16   S    
C63   C79   S    
C82   C86   S    
C56   C60   S    
C50   C58   S    
C75   H119  S    
C65   C81   S    
C46   O34   A    
Cr8   O20   S    
C18   H96   S    
C52   H32   S    
C41   H25   S    
C110  H38   S    
Cr1   O1    S    
C44   H28   S    
C31   C35   S    
C32   C36   S    
Cr9   O33   S    
C16   H128  S    
C23   H7    S    
C34   H100  S    
C71   H113  S    
C108  O44   A    
Cr2   O22   S    
C112  C119  S    
C98   O50   A    
C116  H4    S    
Cr8   O8    S    
C22   H6    S    
C91   O39   A    
Cr6   O18   S    
C41   C57   S    
C109  C110  S    
C112  H40   S    
Cr9   O9    S    
C44   C60   S    
Cr6   O50   S    
C84   C108  S    
Cr7   O31   S    
C40   H104  S    
Cr8   O32   S    
C15   H91   S    
Cr1   O41   S    
Cr10  O34   S    
C21   C37   S    
C103  O7    A    
C22   C26   S    
C29   C37   S    
C87   H83   S    
C21   I1    S    
Cr3   O43   S    
C75   H63   S    
C5    C114  S    
C70   C78   S    
Cr10  O10   S    
C79   C98   S    
C106  O42   A    
Cr4   O24   S    
C93   H73   S    
Cr10  O14   S    
C49   C57   S    
C65   H49   S    
Cr6   O30   S    
C19   H13   S    
C89   O37   A    
C107  O15   A    
C17   H15   S    
C18   H16   S    
C64   H48   S    
C48   O36   A    
C49   C54   S    
Cr5   O25   S    
C38   H102  S    
C63   H47   S    
C90   O2    A    
C51   C56   S    
C84   C96   S    
Cr7   O51   S    
C8    C115  S    
C83   C107  S    
C103  O11   A    
C23   C27   S    
C101  O9    A    
C109  C113  S    
C87   H57   S    
C10   C26   S    
C47   C119  S    
C100  O48   A    
C38   H10   S    
C15   H127  S    
C14   C30   S    
C53   H105  S    
C72   C88   S    
Cr10  O18   S    
C65   H53   S    
C102  O6    A    
Cr5   O5    S    
C6    H66   S    
C47   O31   A    
C104  O12   A    
C48   O32   A    
C5    C117  S    
C111  C120  S    
C35   H97   S    
C6    C113  S    
Cr3   O19   S    
C85   H81   S    
Cr12  O36   S    
C81   C93   S    
Cr1   O17   S    
C83   C95   S    
C106  O14   A    
C18   C34   S    
C114  C118  S    
Cr11  O15   S    
C2    O26   A    
C39   H11   S    
C40   H12   S    
C62   H110  S    
Cr3   O3    S    
C51   C59   S    
C70   C86   S    
C19   C27   S    
C10   H86   S    
C54   C58   S    
C8    C120  S    
C88   H84   S    
C14   H90   S    
C62   H46   S    
C43   C59   S    
C93   H69   S    
C46   O30   A    
Cr11  O11   S    
Cr4   O44   S    
C72   H80   S    
C23   C39   S    
C24   C40   S    
C31   C39   S    
Cr7   O19   S    
C32   C40   S    
C7    H67   S    
C3    O23   A    
Cr9   O37   S    
C36   H98   S    
C111  C115  S    
C6    C118  S    
C99   O51   A    
