data_mof_unit_10671.cif
_audit_creation_date              2012-12-11T14:33:02-0500
_audit_creation_method            fapswitch 2.2
_symmetry_space_group_name_H-M    P1
_symmetry_Int_Tables_number       1
_space_group_crystal_system       triclinic
_cell_length_a                    6.948678
_cell_length_b                    13.833782
_cell_length_c                    17.951963
_cell_angle_alpha                 113.052423
_cell_angle_beta                  95.422511
_cell_angle_gamma                 90.619006
_cell_volume                      1578.60013237

loop_
_atom_site_label
_atom_site_type_symbol
_atom_type_description
_atom_site_fract_x
_atom_site_fract_y
_atom_site_fract_z
_atom_type_partial_charge
O1    O     O_R   0.484560 0.544530 0.414330 -0.539527
O2    O     O_R   0.197040 0.638810 0.585080 -0.542736
O3    O     O_R   0.026800 0.455470 0.585670 -0.526450
C1    C     C_R   0.375184 0.675861 0.614672 0.676294
O4    O     O_R   0.155000 0.556150 0.414940 -0.545852
O5    O     O_R   0.984450 0.372220 0.414320 -0.525053
C2    C     C_R   0.317973 0.564881 0.386583 0.748466
O6    O     O_R   0.526900 0.627780 0.585680 -0.541064
O7    O     O_3   0.339170 0.439750 0.499990 -0.347629
V1    V     V_3+5 0.064350 0.511180 0.500000 1.411329
O8    O     O_R   0.654880 0.361190 0.414920 -0.542473
C3    C     C_R   0.817202 0.324032 0.387399 0.757741
O9    O     O_R   0.696930 0.443850 0.585060 -0.545257
C4    C     C_R   0.873068 0.432097 0.611613 0.700588
V2    V     V_3+5 0.564340 0.488820 0.500000 1.410499
O10   O     O_3   0.839390 0.560250 0.500010 -0.381611
C5    C     C_R   0.043182 0.864429 0.824346 -0.052417
C6    C     C_R   0.907451 0.396482 0.679392 -0.056786
C7    C     C_R   0.932902 0.824299 0.683045 -0.133159
C8    C     C_R   0.975422 0.791723 0.746608 -0.140003
C9    C     C_R   0.060161 0.972236 0.838733 -0.207012
C10   C     C_R   0.014286 0.008083 0.774671 0.105318
C11   C     C_R   0.954481 0.930725 0.695909 0.116698
C12   C     C_R   0.023335 0.117058 0.785525 0.049566
C13   C     C_R   0.974897 0.145597 0.717413 0.066982
C14   C     C_R   0.929990 0.063980 0.639912 -0.164611
C15   C     C_R   0.917302 0.959345 0.629852 -0.222453
C16   C     C_R   0.077508 0.198215 0.862245 -0.218765
C17   C     C_R   0.082167 0.303822 0.873535 -0.063239
C18   C     C_R   0.027600 0.333185 0.807957 0.067967
C19   C     C_R   0.971409 0.254594 0.728987 0.078791
C20   C     C_R   0.027405 0.440319 0.820185 -0.122623
C21   C     C_R   0.969128 0.471126 0.756897 -0.162897
C22   C     C_R   0.910777 0.288845 0.665184 -0.192408
H1    H     H_    0.876446 0.899860 0.569299 0.117983
H2    H     H_    0.866088 0.234427 0.603764 0.100822
H3    H     H_    0.974632 0.554056 0.768417 0.092731
H4    H     H_    0.882705 0.765745 0.623219 0.137202
H5    H     H_    0.955831 0.709116 0.734911 0.090402
H6    H     H_    0.107195 0.025360 0.900313 0.095245
H7    H     H_    0.900493 0.078262 0.585273 0.125314
H8    H     H_    0.118323 0.181792 0.915332 0.128840
H9    H     H_    0.073245 0.501672 0.879105 0.154716
H10   H     H_    0.100244 0.230778 0.297858 0.125260
C23   C     C_2   0.133016 0.037402 0.184902 -0.426681
C24   C     C_2   0.988725 0.065823 0.234378 0.338570
H11   H     H_    0.686503 0.166811 0.316419 0.151606
C25   C     C_2   0.816296 0.215896 0.326425 -0.327136
C26   C     C_2   0.975047 0.177914 0.288528 -0.141519
H12   H     H_    0.243781 0.095731 0.188750 0.098983
C27   C     C_R   0.414724 0.779374 0.685562 -0.060219
C28   C     C_R   0.540493 0.464859 0.830477 -0.066627
C29   C     C_R   0.538857 0.878333 0.827589 -0.118318
C30   C     C_R   0.483379 0.782287 0.762395 -0.146709
C31   C     C_R   0.413110 0.874591 0.674639 -0.204186
C32   C     C_R   0.478219 0.972991 0.739685 0.096107
C33   C     C_R   0.533378 0.973873 0.817413 0.106239
C34   C     C_R   0.489709 0.070240 0.729687 0.073496
C35   C     C_R   0.532706 0.169761 0.798250 0.064894
C36   C     C_R   0.578669 0.166185 0.875107 -0.182541
C37   C     C_R   0.583209 0.069835 0.883998 -0.214521
C38   C     C_R   0.469247 0.069256 0.651628 -0.174898
C39   C     C_R   0.465537 0.160719 0.640011 -0.214287
C40   C     C_R   0.475967 0.259480 0.705666 0.085055
C41   C     C_R   0.526237 0.267751 0.786105 0.080552
C42   C     C_R   0.432825 0.348687 0.689868 -0.037344
C43   C     C_R   0.464813 0.450175 0.751081 -0.175852
C44   C     C_R   0.564307 0.372773 0.848454 -0.203803
H13   H     H_    0.623904 0.070478 0.943971 0.119581
H14   H     H_    0.610608 0.384493 0.910638 0.108072
H15   H     H_    0.430105 0.517633 0.736881 0.092726
H16   H     H_    0.451752 0.152304 0.577184 0.133250
H17   H     H_    0.587637 0.878145 0.886374 0.155447
H18   H     H_    0.493721 0.710011 0.772149 0.091827
H19   H     H_    0.358096 0.869111 0.614873 0.095962
H20   H     H_    0.614408 0.237044 0.928988 0.130104
H21   H     H_    0.461875 0.998195 0.597217 0.122526
H22   H     H_    0.333656 0.666042 0.194373 0.160628
H23   H     H_    0.614997 0.590490 0.307310 0.150908
C45   C     C_2   0.314802 0.601773 0.318943 -0.340233
C46   C     C_2   0.476596 0.610381 0.284937 -0.130943
H24   H     H_    0.772078 0.635628 0.205856 0.125977
C47   C     C_2   0.633965 0.655126 0.182934 -0.326219
C48   C     C_2   0.472113 0.646295 0.216820 -0.100610
H25   H     H_    0.176770 0.621419 0.296062 0.128200
O11   O     O_R   0.421600 0.630430 0.917010 -0.534397
O12   O     O_R   0.793840 0.702190 0.087630 -0.542350
O13   O     O_R   0.964010 0.886170 0.088190 -0.525921
C49   C     C_R   0.630668 0.692134 0.115390 0.743470
O14   O     O_R   0.751460 0.619510 0.917500 -0.537184
O15   O     O_R   0.921330 0.802900 0.916840 -0.543577
C50   C     C_R   0.574308 0.576690 0.894495 0.696805
O16   O     O_R   0.464290 0.713700 0.088350 -0.537341
O17   O     O_3   0.609200 0.818520 0.002630 -0.387685
V3    V     V_3+5 0.884140 0.747190 0.002530 1.385470
O18   O     O_R   0.251150 0.814630 0.917340 -0.542125
C51   C     C_R   0.075160 0.827237 0.891356 0.688971
O19   O     O_R   0.293530 0.897310 0.087470 -0.553159
C52   C     C_R   0.132305 0.932383 0.117889 0.764193
V4    V     V_3+5 0.384070 0.769710 0.002370 1.364243
O20   O     O_3   0.109180 0.698190 0.002460 -0.363602
N1    N     N_2   0.862157 0.988590 0.241734 -0.512477
H26   H     H_    0.920936 0.918245 0.236281 0.243181
C53   C     C_3   0.664373 0.979202 0.205278 -0.459109
H27   H     H_    0.635616 0.900960 0.155769 0.221355
H28   H     H_    0.634668 0.039297 0.179399 0.177099
H29   H     H_    0.564067 0.987071 0.251663 0.169223
C54   C     C_1   0.333819 0.328493 0.610770 0.321239
N2    N     N_1   0.253132 0.298288 0.545904 -0.335224
C55   C     C_1   0.143055 0.381178 0.954604 0.260908
N3    N     N_1   0.191967 0.443045 0.019368 -0.364799

loop_
_geom_bond_atom_site_label_1
_geom_bond_atom_site_label_2
_ccdc_geom_bond_type
H10   C26   S    
C34   C38   A    
C31   C32   A    
C13   C19   A    
C4    C6    S    
C38   H21   S    
O2    C1    A    
C7    C8    A    
C1    O6    A    
C53   H28   S    
O14   V3    S    
C23   C24   D    
C32   C33   A    
C24   N1    S    
C24   C26   S    
C14   C15   A    
C17   C18   A    
C16   C17   A    
O5    C3    A    
C18   C19   A    
V2    O10   S    
C5    C8    A    
C54   N2    T    
C55   N3    T    
C30   H18   S    
O8    V2    S    
H11   C25   S    
O12   V3    S    
O1    V2    S    
C11   C15   A    
O11   V4    S    
O7    V1    S    
C43   H15   S    
C28   C44   A    
C3    C25   S    
C31   H19   S    
C42   C43   A    
O13   V3    S    
C35   C36   A    
O9    C4    A    
C49   O16   A    
O17   V3    S    
C53   H27   S    
C47   C49   S    
C1    C27   S    
C17   C55   S    
C12   C13   A    
C23   C52   S    
O4    C2    A    
C8    H5    S    
C29   C33   A    
C27   C31   A    
C15   H1    S    
C34   C35   A    
C29   C30   A    
C36   H20   S    
C21   H3    S    
C36   C37   A    
C40   C42   A    
C7    C11   A    
C45   H25   S    
C7    H4    S    
C6    C22   A    
O14   C50   A    
C47   C48   D    
O17   V4    S    
C41   C44   A    
O18   C51   A    
C38   C39   A    
C19   C22   A    
O15   C51   A    
N1    C53   S    
O3    C4    A    
O16   V4    S    
C28   C43   A    
C25   C26   D    
O19   C52   A    
O6    V2    S    
O19   V4    S    
O12   C49   A    
C10   C12   A    
C28   C50   S    
O2    V1    S    
C46   C48   S    
H23   C46   S    
C37   H13   S    
O1    C2    A    
C29   H17   S    
C12   C16   A    
C42   C54   S    
C45   C46   D    
O5    V1    S    
O8    C3    A    
C33   C37   A    
C27   C30   A    
C20   C21   A    
O9    V2    S    
C13   C14   A    
O4    V1    S    
O3    V1    S    
O11   C50   A    
C35   C41   A    
C18   C20   A    
C9    H6    S    
C23   H12   S    
O18   V4    S    
C40   C41   A    
C16   H8    S    
V4    O20   S    
C20   H9    S    
C32   C34   A    
C22   H2    S    
O7    V2    S    
N1    H26   S    
C6    C21   A    
C5    C9    A    
O13   C52   A    
O15   V3    S    
C39   C40   A    
H22   C48   S    
C39   H16   S    
C44   H14   S    
H24   C47   S    
C10   C11   A    
V1    O10   S    
C9    C10   A    
C5    C51   S    
C53   H29   S    
V3    O20   S    
C14   H7    S    
C2    C45   S    
