data_mof_unit_8060.cif
_audit_creation_date              2012-10-26T20:12:45-0400
_audit_creation_method            fapswitch 2.2
_symmetry_space_group_name_H-M    P1
_symmetry_Int_Tables_number       1
_space_group_crystal_system       triclinic
_cell_length_a                    15.104535
_cell_length_b                    13.872133
_cell_length_c                    10.771538
_cell_angle_alpha                 90.006034
_cell_angle_beta                  89.792532
_cell_angle_gamma                 89.993372
_cell_volume                      2256.96835174

loop_
_atom_site_label
_atom_site_type_symbol
_atom_type_description
_atom_site_fract_x
_atom_site_fract_y
_atom_site_fract_z
_atom_type_partial_charge
C1    C     C_R   0.329906 0.500008 0.499967 0.568901
C2    C     C_R   0.434778 0.790483 0.438734 0.486412
C3    C     C_R   0.425278 0.207930 0.533369 0.497392
C4    C     C_R   0.563614 0.791688 0.562741 0.489817
C5    C     C_R   0.498409 0.053517 0.497125 -0.106296
C6    C     C_R   0.498286 0.945082 0.499663 -0.102196
C7    C     C_R   0.513577 0.499919 0.262914 0.608433
C8    C     C_R   0.489300 0.500071 0.738500 0.599199
C9    C     C_R   0.568069 0.671623 0.105882 0.395125
C10   C     C_R   0.455896 0.323048 0.895041 0.392741
C11   C     C_R   0.461347 0.678603 0.895687 0.404682
C12   C     C_R   0.670086 0.499997 0.499956 0.571044
C13   C     C_R   0.559772 0.325244 0.107786 0.388558
C14   C     C_R   0.555416 0.760273 0.045212 0.015073
C15   C     C_R   0.483738 0.234872 0.946989 0.000623
C16   C     C_R   0.492368 0.765216 0.948202 0.022465
C17   C     C_R   0.541470 0.236470 0.050601 -0.001176
C18   C     C_R   0.489533 0.588469 0.942229 -0.049040
C19   C     C_R   0.524878 0.411999 0.060719 -0.062589
C20   C     C_R   0.528078 0.586849 0.060577 -0.048625
C21   C     C_R   0.486577 0.411854 0.942338 -0.061958
C22   C     C_R   0.479203 0.500312 0.876396 0.036705
C23   C     C_R   0.048489 0.500105 0.499545 0.090863
C24   C     C_R   0.530471 0.499454 0.126869 0.047092
C25   C     C_R   0.094866 0.577517 0.552562 0.398102
C26   C     C_R   0.904838 0.422838 0.552978 0.399738
C27   C     C_R   0.905001 0.577203 0.445977 0.397253
C28   C     C_R   0.095208 0.422657 0.446732 0.401817
C29   C     C_R   0.186931 0.577806 0.551453 -0.066154
C30   C     C_R   0.812796 0.422457 0.551739 -0.072391
C31   C     C_R   0.812938 0.577503 0.447357 -0.062427
C32   C     C_R   0.187251 0.422279 0.448242 -0.068032
C33   C     C_R   0.233423 0.500022 0.499927 -0.085533
C34   C     C_R   0.951468 0.500055 0.499485 0.090394
C35   C     C_R   0.766548 0.499981 0.499658 -0.084184
C36   C     C_3   0.582073 0.146154 0.105984 -0.247503
C37   C     C_3   0.681480 0.140540 0.079334 -0.364732
C38   C     C_3   0.455416 0.859706 0.900283 -0.251139
C39   C     C_3   0.360166 0.874876 0.944260 -0.379969
C40   C     C_3   0.453414 0.141654 0.887333 -0.241779
C41   C     C_3   0.526272 0.098078 0.806339 -0.439633
C42   C     C_3   0.611154 0.845631 0.085179 -0.233751
C43   C     C_3   0.572326 0.893852 0.199869 -0.411084
C44   C     C_R   0.574686 0.105578 0.465824 -0.152368
C45   C     C_R   0.431784 0.891963 0.439910 -0.133332
C46   C     C_R   0.422860 0.106461 0.529490 -0.133064
C47   C     C_R   0.564834 0.893253 0.561463 -0.145036
C48   C     C_R   0.573987 0.207176 0.465376 0.483483
Cu1   Cu    Cu3+1 0.500000 0.596430 0.500000 1.204333
Cu2   Cu    Cu3+1 0.500000 0.403570 0.500000 1.178161
F1    F     F_    0.626231 0.666386 0.201825 -0.630286
F2    F     F_    0.372923 0.741851 0.373002 -0.601288
F3    F     F_    0.351710 0.253575 0.574220 -0.556346
F4    F     F_    0.626249 0.744087 0.628308 -0.602106
F5    F     F_    0.393369 0.322657 0.804703 -0.568587
F6    F     F_    0.398684 0.682533 0.805453 -0.627356
F7    F     F_    0.618055 0.328070 0.203440 -0.576411
F8    F     F_    0.051079 0.651784 0.607324 -0.550501
F9    F     F_    0.948347 0.348863 0.608369 -0.549261
F10   F     F_    0.948696 0.651222 0.390557 -0.549909
F11   F     F_    0.051787 0.348414 0.391806 -0.548756
F12   F     F_    0.648885 0.252238 0.428508 -0.562160
H1    H     H_    0.221864 0.637901 0.592865 0.205485
H2    H     H_    0.717770 0.197571 0.130327 0.251372
H3    H     H_    0.707479 0.069570 0.109801 0.141095
H4    H     H_    0.570873 0.145896 0.207776 0.188024
H5    H     H_    0.550906 0.079401 0.071482 0.117098
H6    H     H_    0.316127 0.816696 0.910156 0.236162
H7    H     H_    0.357531 0.876668 0.047334 0.166240
H8    H     H_    0.335013 0.944609 0.908117 0.143081
H9    H     H_    0.493579 0.922529 0.932457 0.119139
H10   H     H_    0.457857 0.860361 0.797180 0.186159
H11   H     H_    0.551014 0.152247 0.738797 0.175985
H12   H     H_    0.777680 0.362536 0.593590 0.192688
H13   H     H_    0.582543 0.071858 0.862370 0.147369
H14   H     H_    0.499135 0.035636 0.755000 0.140111
H15   H     H_    0.430758 0.089685 0.958905 0.122109
H16   H     H_    0.394793 0.153740 0.827399 0.235998
H17   H     H_    0.504033 0.919616 0.181294 0.143751
H18   H     H_    0.571613 0.841837 0.277867 0.204172
H19   H     H_    0.614041 0.955967 0.227455 0.134567
H20   H     H_    0.679316 0.820773 0.107024 0.217850
H21   H     H_    0.620444 0.898942 0.009700 0.123106
H22   H     H_    0.777923 0.637397 0.405591 0.212450
H23   H     H_    0.222427 0.362156 0.406948 0.195317
H24   H     H_    0.634526 0.067755 0.439093 0.155680
H25   H     H_    0.379624 0.928825 0.390129 0.153080
H26   H     H_    0.362822 0.069312 0.556860 0.161453
H27   H     H_    0.616520 0.931204 0.610860 0.150638
H28   H     H_    0.694849 0.148824 0.978490 0.156354
N1    N     N_R   0.500000 0.258690 0.500000 -0.222937
N2    N     N_R   0.500000 0.741310 0.500000 -0.200015
O1    O     O_R   0.371460 0.581430 0.500010 -0.447661
O2    O     O_R   0.628540 0.418570 0.499990 -0.436437
O3    O     O_R   0.628540 0.581430 0.499990 -0.448606
O4    O     O_R   0.371460 0.418570 0.500010 -0.437190
O5    O     O_R   0.499990 0.581440 0.319660 -0.447386
O6    O     O_R   0.500010 0.418560 0.680340 -0.468343
O7    O     O_R   0.500010 0.581440 0.680340 -0.437846
O8    O     O_R   0.499990 0.418560 0.319660 -0.471557

loop_
_geom_bond_atom_site_label_1
_geom_bond_atom_site_label_2
_ccdc_geom_bond_type
C29   H1    S    
C11   C18   A    
C6    C45   A    
C39   H6    S    
C9    F1    S    
C36   H5    S    
C1    C33   S    
C42   H20   S    
C37   H28   S    
C36   C37   S    
C45   H25   S    
C8    O7    A    
C27   F10   S    
C5    C6    S    
C30   H12   S    
C36   H4    S    
Cu1   O7    S    
C43   H17   S    
C7    C24   S    
C29   C33   A    
C3    N1    A    
C8    O6    A    
C26   C34   A    
C20   C24   A    
C48   N1    A    
C37   H3    S    
C8    C22   S    
C12   O3    A    
C17   C36   S    
C26   F9    S    
C18   C20   A    
C14   C42   S    
C4    N2    A    
C28   F11   S    
C27   C34   A    
C21   C22   A    
C47   H27   S    
C12   O2    A    
C44   H24   S    
C46   H26   S    
C10   C21   A    
C25   C29   A    
C38   H10   S    
Cu2   O6    S    
C7    O8    A    
C13   C19   A    
C27   C31   A    
C28   C32   A    
C6    C47   A    
Cu2   O2    S    
C43   H18   S    
C41   H11   S    
C31   H22   S    
C9    C14   A    
C41   H13   S    
C11   C16   A    
C9    C20   A    
C48   F12   S    
C23   C34   S    
C39   H7    S    
C23   C28   A    
Cu1   O3    S    
C12   C35   S    
C2    N2    A    
C10   F5    S    
C2    F2    S    
C30   C35   A    
C40   C41   S    
C5    C44   A    
C26   C30   A    
C43   H19   S    
C40   H16   S    
C42   C43   S    
Cu1   N2    S    
C37   H2    S    
C15   C17   A    
C38   H9    S    
C7    O5    A    
C4    F4    S    
C18   C22   A    
C42   H21   S    
C5    C46   A    
C3    C46   A    
Cu2   O8    S    
C13   C17   A    
C10   C15   A    
C32   C33   A    
C19   C24   A    
C41   H14   S    
C3    F3    S    
Cu2   O4    S    
C38   C39   S    
C1    O4    A    
C32   H23   S    
C31   C35   A    
C39   H8    S    
C14   C16   A    
C23   C25   A    
C15   C40   S    
C2    C45   A    
Cu1   O5    S    
Cu2   N1    S    
C13   F7    S    
C1    O1    A    
Cu1   Cu2   S    
C25   F8    S    
C40   H15   S    
Cu1   O1    S    
C11   F6    S    
C44   C48   A    
C16   C38   S    
C19   C21   A    
C4    C47   A    
