data_mof_unit_18053.cif
_audit_creation_date              2012-12-11T14:28:18-0500
_audit_creation_method            fapswitch 2.2
_symmetry_space_group_name_H-M    P1
_symmetry_Int_Tables_number       1
_space_group_crystal_system       triclinic
_cell_length_a                    10.933214
_cell_length_b                    19.207269
_cell_length_c                    18.518119
_cell_angle_alpha                 89.968999
_cell_angle_beta                  89.883009
_cell_angle_gamma                 89.951119
_cell_volume                      3888.74272472

loop_
_atom_site_label
_atom_site_type_symbol
_atom_type_description
_atom_site_fract_x
_atom_site_fract_y
_atom_site_fract_z
_atom_type_partial_charge
C1    C     C_R   0.319199 0.969103 0.645694 0.526383
C2    C     C_R   0.321570 0.971030 0.852229 0.529184
C3    C     C_R   0.321633 0.028909 0.352188 0.526166
C4    C     C_R   0.319255 0.030854 0.145753 0.522652
C5    C     C_R   0.818924 0.468368 0.645141 0.529328
C6    C     C_R   0.821569 0.471029 0.852230 0.531660
C7    C     C_R   0.821717 0.528623 0.351772 0.532725
C8    C     C_R   0.819255 0.530852 0.145755 0.521735
C9    C     C_3   0.043839 0.682096 0.486152 -0.156678
C10   C     C_3   0.976639 0.720113 0.015627 -0.094355
C11   C     C_3   0.975893 0.279212 0.515648 -0.095958
C12   C     C_3   0.049095 0.317673 0.984795 -0.179601
C13   C     C_3   0.547555 0.181315 0.485280 -0.177001
C14   C     C_3   0.476577 0.220210 0.015644 -0.094426
C15   C     C_3   0.664186 0.800599 0.524466 -0.172121
C16   C     C_3   0.549153 0.817676 0.984783 -0.180099
C17   C     C_3   0.058881 0.741868 0.431945 0.076505
C18   C     C_3   0.072709 0.744205 0.070652 0.041612
C19   C     C_3   0.072645 0.255765 0.570627 0.041778
C20   C     C_3   0.061888 0.257261 0.931214 0.058614
C21   C     C_3   0.560577 0.241726 0.431645 0.057788
C22   C     C_3   0.572739 0.244207 0.070653 0.041619
C23   C     C_3   0.573893 0.757980 0.570083 0.052466
C24   C     C_3   0.561906 0.757255 0.931210 0.057962
C25   C     C_R   0.334002 0.990716 0.420936 -0.018216
C26   C     C_R   0.322312 0.000288 0.072434 -0.041017
C27   C     C_R   0.322243 0.999459 0.572248 -0.040163
C28   C     C_R   0.333864 0.008950 0.921100 -0.011043
C29   C     C_R   0.834624 0.489165 0.419579 -0.011021
C30   C     C_R   0.822312 0.500282 0.072439 -0.040691
C31   C     C_R   0.821152 0.496526 0.570785 0.010331
C32   C     C_R   0.833861 0.508946 0.921105 -0.010612
C33   C     C_R   0.560235 0.997466 0.428399 -0.098096
C34   C     C_R   0.542427 0.975394 0.076174 -0.068560
C35   C     C_R   0.542461 0.023973 0.575958 -0.079268
C36   C     C_R   0.560152 0.001378 0.928501 -0.098957
C37   C     C_R   0.060365 0.497895 0.427458 -0.098426
C38   C     C_R   0.042425 0.475392 0.076178 -0.068545
C39   C     C_R   0.041448 0.522957 0.575102 -0.065895
C40   C     C_R   0.060149 0.501367 0.928504 -0.098928
C41   C     C_R   0.664865 0.012497 0.468341 -0.135125
C42   C     C_R   0.655249 0.971700 0.041896 -0.094923
C43   C     C_R   0.655337 0.027181 0.541716 -0.131184
C44   C     C_R   0.664762 0.986105 0.968454 -0.115969
C45   C     C_R   0.164657 0.512843 0.467658 -0.115528
C46   C     C_R   0.155247 0.471695 0.041901 -0.095304
C47   C     C_R   0.154713 0.526559 0.541161 -0.097902
C48   C     C_R   0.164759 0.486092 0.968458 -0.115993
C49   C     C_R   0.436070 0.006187 0.537175 -0.002078
C50   C     C_R   0.443372 0.002023 0.961616 -0.009770
C51   C     C_R   0.443422 0.997435 0.461469 -0.010508
C52   C     C_R   0.436086 0.993370 0.037352 -0.005722
C53   C     C_R   0.935326 0.504612 0.536084 -0.004589
C54   C     C_R   0.943371 0.502018 0.961620 -0.010520
C55   C     C_R   0.943461 0.496414 0.460412 -0.014745
C56   C     C_R   0.936085 0.493367 0.037356 -0.005668
C57   C     C_R   0.213503 0.994914 0.529928 -0.003165
C58   C     C_R   0.223410 0.022342 0.957028 0.025477
C59   C     C_R   0.223614 0.977282 0.456814 0.024099
C60   C     C_R   0.213498 0.004705 0.030161 -0.005989
C61   C     C_R   0.712513 0.489842 0.528009 0.047254
C62   C     C_R   0.723406 0.522334 0.957034 0.024244
C63   C     C_R   0.724427 0.473636 0.454599 0.018291
C64   C     C_R   0.713498 0.504693 0.030167 -0.006133
C65   C     C_R   0.094023 0.003177 0.558754 -0.091599
C66   C     C_R   0.118886 0.046047 0.919262 -0.060450
C67   C     C_R   0.119317 0.953584 0.418965 -0.052449
C68   C     C_R   0.094105 0.996388 0.059098 -0.094504
C69   C     C_R   0.591422 0.495591 0.556011 -0.002945
C70   C     C_R   0.618878 0.546038 0.919272 -0.059839
C71   C     C_R   0.621602 0.449899 0.415299 -0.061603
C72   C     C_R   0.594107 0.496368 0.059105 -0.094482
C73   C     C_R   0.991215 0.984125 0.519270 -0.139606
C74   C     C_R   0.003399 0.041150 0.950081 -0.128896
C75   C     C_R   0.003773 0.958530 0.449641 -0.131519
C76   C     C_R   0.991088 0.015403 0.019693 -0.117487
C77   C     C_R   0.489946 0.477703 0.514737 -0.119989
C78   C     C_R   0.503393 0.541142 0.950096 -0.128635
C79   C     C_R   0.504953 0.454168 0.444561 -0.134751
C80   C     C_R   0.491087 0.515387 0.019704 -0.117826
C81   C     C_R   0.135799 0.758212 0.643261 0.550059
C82   C     C_R   0.131710 0.757649 0.855818 0.567593
C83   C     C_R   0.131637 0.242343 0.355787 0.567166
C84   C     C_R   0.135770 0.241786 0.143173 0.556433
C85   C     C_R   0.635230 0.257990 0.643393 0.555721
C86   C     C_R   0.631697 0.257647 0.855814 0.568048
C87   C     C_R   0.630672 0.742505 0.355394 0.567226
C88   C     C_R   0.635764 0.741788 0.143174 0.556252
C89   C     C_R   0.544350 0.769544 0.645312 0.580506
C90   C     C_R   0.538953 0.770639 0.856197 0.598315
C91   C     C_R   0.538238 0.228987 0.356493 0.595360
C92   C     C_R   0.544647 0.231006 0.145658 0.564633
C93   C     C_R   0.044555 0.269026 0.645629 0.563925
C94   C     C_R   0.038940 0.270644 0.856201 0.594492
C95   C     C_R   0.037187 0.728712 0.356823 0.597842
C96   C     C_R   0.044641 0.731005 0.145658 0.565211
C97   C     C_3   0.181594 0.760758 0.462655 0.345138
C98   C     C_3   0.173216 0.708789 0.027446 0.370526
C99   C     C_3   0.172259 0.291655 0.527167 0.371073
C100  C     C_3   0.183310 0.236503 0.962691 0.337637
C101  C     C_3   0.682150 0.262062 0.463043 0.338252
C102  C     C_3   0.673118 0.208709 0.027415 0.370949
C103  C     C_3   0.606224 0.691628 0.530685 0.356932
C104  C     C_3   0.683310 0.736468 0.962695 0.337834
C105  C     C_3   0.170081 0.700906 0.517046 -0.097180
C106  C     C_3   0.079098 0.684271 0.972014 -0.068455
C107  C     C_3   0.077453 0.315551 0.471800 -0.070309
C108  C     C_3   0.174016 0.297033 0.016438 -0.103559
C109  C     C_3   0.672610 0.201667 0.516912 -0.099968
C110  C     C_3   0.578903 0.184285 0.972000 -0.068540
C111  C     C_3   0.697134 0.732667 0.484395 -0.110889
C112  C     C_3   0.674055 0.797008 0.016434 -0.104066
C113  C     C_3   0.103809 0.751657 0.568444 0.008958
C114  C     C_3   0.097265 0.752761 0.931240 0.029289
C115  C     C_3   0.096851 0.247139 0.431183 0.029250
C116  C     C_3   0.104428 0.248003 0.068062 0.013069
C117  C     C_3   0.603307 0.251020 0.568430 0.013040
C118  C     C_3   0.597228 0.252761 0.931233 0.029205
C119  C     C_3   0.593520 0.747573 0.430445 0.030545
C120  C     C_3   0.604422 0.748003 0.068061 0.013288
C121  C     C_3   0.118662 0.811807 0.514638 -0.100088
C122  C     C_3   0.193593 0.777245 0.986248 -0.123156
C123  C     C_3   0.193788 0.223249 0.486138 -0.123238
C124  C     C_3   0.117038 0.187143 0.014914 -0.093557
C125  C     C_3   0.616226 0.311597 0.515101 -0.093586
C126  C     C_3   0.693647 0.277152 0.986225 -0.123198
C127  C     C_3   0.503368 0.704326 0.475801 -0.058240
C128  C     C_3   0.616991 0.687133 0.014921 -0.093280
C129  C     C_3   0.992564 0.792470 0.482953 -0.164115
C130  C     C_3   0.090624 0.812763 0.030155 -0.196569
C131  C     C_3   0.091750 0.187231 0.530293 -0.195953
C132  C     C_3   0.992429 0.208352 0.982306 -0.110287
C133  C     C_3   0.491418 0.290770 0.482685 -0.112219
C134  C     C_3   0.590812 0.312753 0.030162 -0.196964
C135  C     C_3   0.470467 0.772600 0.516261 -0.099062
C136  C     C_3   0.492402 0.708369 0.982305 -0.110441
C137  C     C_3   0.979296 0.732724 0.538608 -0.171877
C138  C     C_3   0.995245 0.789182 0.973628 -0.088851
C139  C     C_3   0.995724 0.210189 0.473808 -0.086524
C140  C     C_3   0.981196 0.268751 0.037296 -0.132938
C141  C     C_3   0.479969 0.230467 0.537791 -0.134798
C142  C     C_3   0.495339 0.289267 0.973652 -0.088684
C143  C     C_3   0.561084 0.814965 0.469744 -0.107734
C144  C     C_3   0.481207 0.768778 0.037287 -0.132754
Cr1   Cr    Cr6+3 0.488160 0.884660 0.750000 1.009964
Cr2   Cr    Cr6+3 0.488160 0.115340 0.250000 1.035270
Cr3   Cr    Cr6+3 0.988160 0.384660 0.750000 1.035065
Cr4   Cr    Cr6+3 0.988160 0.615340 0.250000 1.035495
Cr5   Cr    Cr6+3 0.173480 0.883120 0.750000 1.019269
Cr6   Cr    Cr6+3 0.173480 0.116880 0.250000 1.036722
Cr7   Cr    Cr6+3 0.673480 0.383120 0.750000 1.036741
Cr8   Cr    Cr6+3 0.673480 0.616880 0.250000 1.039378
Cr9   Cr    Cr6+3 0.333410 0.727260 0.750000 1.022660
Cr10  Cr    Cr6+3 0.333410 0.272740 0.250000 1.000579
Cr11  Cr    Cr6+3 0.833410 0.227260 0.750000 0.999118
Cr12  Cr    Cr6+3 0.833410 0.772740 0.250000 1.000718
H1    H     H_    0.244410 0.664458 0.532215 0.125263
H2    H     H_    0.074006 0.633315 0.945070 0.138803
H3    H     H_    0.071041 0.366304 0.444566 0.137603
H4    H     H_    0.249079 0.332760 0.031952 0.122681
H5    H     H_    0.747745 0.165890 0.532400 0.125684
H6    H     H_    0.573612 0.133344 0.945048 0.138437
H7    H     H_    0.785282 0.711662 0.464915 0.127866
H8    H     H_    0.749129 0.832728 0.031951 0.122665
H9    H     H_    0.902303 0.987178 0.543785 0.106709
H10   H     H_    0.923804 0.057351 0.919806 0.112051
H11   H     H_    0.924338 0.942424 0.419235 0.105141
H12   H     H_    0.902209 0.012259 0.044275 0.140576
H13   H     H_    0.399952 0.480231 0.538201 0.141445
H14   H     H_    0.423797 0.557349 0.919826 0.113614
H15   H     H_    0.426482 0.438954 0.412767 0.114351
H16   H     H_    0.402211 0.512242 0.044289 0.140489
H17   H     H_    0.154357 0.862379 0.532684 0.150347
H18   H     H_    0.279264 0.803091 0.968918 0.111955
H19   H     H_    0.279629 0.197736 0.468540 0.111956
H20   H     H_    0.149628 0.136223 0.033964 0.153115
H21   H     H_    0.650529 0.361755 0.534447 0.137830
H22   H     H_    0.779356 0.302929 0.968862 0.111800
H23   H     H_    0.438200 0.665187 0.454431 0.147339
H24   H     H_    0.649533 0.636206 0.033982 0.153150
H25   H     H_    0.917705 0.827773 0.466305 0.132111
H26   H     H_    0.097393 0.863092 0.058106 0.121974
H27   H     H_    0.099954 0.136923 0.558269 0.122792
H28   H     H_    0.918013 0.173844 0.963629 0.188451
H29   H     H_    0.416708 0.325117 0.463989 0.189236
H30   H     H_    0.597787 0.363069 0.058114 0.121868
H31   H     H_    0.380736 0.791903 0.535490 0.153598
H32   H     H_    0.417980 0.673869 0.963619 0.188129
H33   H     H_    0.900103 0.720772 0.574077 0.152174
H34   H     H_    0.923799 0.822573 0.948948 0.168708
H35   H     H_    0.924677 0.176409 0.449435 0.170984
H36   H     H_    0.902717 0.282859 0.072429 0.158905
H37   H     H_    0.401466 0.216659 0.573019 0.158428
H38   H     H_    0.423944 0.322713 0.949001 0.169464
H39   H     H_    0.538591 0.863615 0.441154 0.153681
H40   H     H_    0.402740 0.782917 0.072415 0.159142
H41   H     H_    0.007391 0.630918 0.470435 0.156420
H42   H     H_    0.890093 0.694768 0.032550 0.156628
H43   H     H_    0.888907 0.304093 0.532612 0.153911
H44   H     H_    0.014935 0.369091 0.968273 0.154415
H45   H     H_    0.513311 0.130015 0.468621 0.157742
H46   H     H_    0.389987 0.194938 0.032595 0.156590
H47   H     H_    0.730407 0.839141 0.545917 0.136302
H48   H     H_    0.515035 0.869101 0.968254 0.154962
H49   H     H_    0.752652 0.015074 0.441671 0.114289
H50   H     H_    0.734288 0.955736 0.072593 0.103205
H51   H     H_    0.734373 0.043034 0.572402 0.102805
H52   H     H_    0.752547 0.983254 0.941779 0.109756
H53   H     H_    0.252690 0.515571 0.441192 0.113298
H54   H     H_    0.234285 0.455734 0.072600 0.103205
H55   H     H_    0.234090 0.541613 0.572103 0.110242
H56   H     H_    0.252544 0.483238 0.941782 0.111036
H57   H     H_    0.571849 0.984636 0.371930 0.135526
H58   H     H_    0.538289 0.961064 0.132653 0.127602
H59   H     H_    0.538357 0.038523 0.632362 0.129722
H60   H     H_    0.571963 0.014209 0.872040 0.134720
H61   H     H_    0.072590 0.485431 0.370942 0.135033
H62   H     H_    0.038288 0.461063 0.132659 0.127553
H63   H     H_    0.037090 0.537361 0.631517 0.133491
H64   H     H_    0.071963 0.514196 0.872044 0.136402
H65   H     H_    0.127128 0.933339 0.364529 0.143750
H66   H     H_    0.078714 0.974207 0.112046 0.136972
H67   H     H_    0.078361 0.025392 0.611638 0.135642
H68   H     H_    0.126486 0.066371 0.864829 0.144705
H69   H     H_    0.631310 0.430984 0.360448 0.145143
H70   H     H_    0.578724 0.474183 0.112052 0.136768
H71   H     H_    0.572288 0.516350 0.609062 0.196861
H72   H     H_    0.626474 0.566366 0.864840 0.151146
O1    O     O_R   0.575450 0.828820 0.667950 -0.522344
O2    O     O_R   0.575450 0.828820 0.832050 -0.506606
O3    O     O_R   0.575450 0.171180 0.332050 -0.503432
O4    O     O_R   0.575450 0.171180 0.167950 -0.455564
O5    O     O_R   0.075450 0.328820 0.667950 -0.456307
O6    O     O_R   0.075450 0.328820 0.832050 -0.504863
O7    O     O_R   0.075450 0.671180 0.332050 -0.503673
O8    O     O_R   0.075450 0.671180 0.167950 -0.455310
O9    O     O_R   0.416860 0.942890 0.674680 -0.503092
O10   O     O_R   0.416860 0.942890 0.825320 -0.518917
O11   O     O_R   0.416860 0.057110 0.325320 -0.520199
O12   O     O_R   0.416860 0.057110 0.174680 -0.502329
O13   O     O_R   0.916860 0.442890 0.674680 -0.507365
O14   O     O_R   0.916860 0.442890 0.825320 -0.519739
O15   O     O_R   0.916860 0.557110 0.325320 -0.522061
O16   O     O_R   0.916860 0.557110 0.174680 -0.502881
O17   O     O_R   0.213790 0.953680 0.668330 -0.532181
O18   O     O_R   0.213790 0.953680 0.831670 -0.517651
O19   O     O_R   0.213790 0.046320 0.331670 -0.517157
O20   O     O_R   0.213790 0.046320 0.168330 -0.530158
O21   O     O_R   0.713790 0.453680 0.668330 -0.537570
O22   O     O_R   0.713790 0.453680 0.831670 -0.515050
O23   O     O_R   0.713790 0.546320 0.331670 -0.513421
O24   O     O_R   0.713790 0.546320 0.168330 -0.531036
O25   O     O_R   0.121360 0.817890 0.672660 -0.503334
O26   O     O_R   0.121360 0.817890 0.827340 -0.493580
O27   O     O_R   0.121360 0.182110 0.327340 -0.491104
O28   O     O_R   0.121360 0.182110 0.172660 -0.487739
O29   O     O_R   0.621360 0.317890 0.672660 -0.492765
O30   O     O_R   0.621360 0.317890 0.827340 -0.491790
O31   O     O_R   0.621360 0.682110 0.327340 -0.491525
O32   O     O_R   0.621360 0.682110 0.172660 -0.487877
O33   O     O_R   0.206850 0.711370 0.665820 -0.532072
O34   O     O_R   0.206850 0.711370 0.834180 -0.534429
O35   O     O_R   0.206850 0.288630 0.334180 -0.534882
O36   O     O_R   0.206850 0.288630 0.165820 -0.537050
O37   O     O_R   0.706850 0.211370 0.665820 -0.536710
O38   O     O_R   0.706850 0.211370 0.834180 -0.534839
O39   O     O_R   0.706850 0.788630 0.334180 -0.533628
O40   O     O_R   0.706850 0.788630 0.165820 -0.537225
O41   O     O_R   0.457710 0.733190 0.672630 -0.491889
O42   O     O_R   0.457710 0.733190 0.827370 -0.523766
O43   O     O_R   0.457710 0.266810 0.327370 -0.527653
O44   O     O_R   0.457710 0.266810 0.172630 -0.526114
O45   O     O_R   0.957710 0.233190 0.672630 -0.526183
O46   O     O_R   0.957710 0.233190 0.827370 -0.527395
O47   O     O_R   0.957710 0.766810 0.327370 -0.525113
O48   O     O_R   0.957710 0.766810 0.172630 -0.526053
O49   O     O_3   0.331690 0.831680 0.750000 -0.268370
O50   O     O_3   0.331690 0.168320 0.250000 -0.271626
O51   O     O_3   0.831690 0.331680 0.750000 -0.271804
O52   O     O_3   0.831690 0.668320 0.250000 -0.272628
F1    F     F_    0.277979 0.776234 0.417023 -0.668622
F2    F     F_    0.261432 0.666942 0.058626 -0.647608
F3    F     F_    0.259836 0.333996 0.558079 -0.649946
F4    F     F_    0.278802 0.218141 0.917597 -0.671429
F5    F     F_    0.777718 0.280124 0.417899 -0.672253
F6    F     F_    0.761270 0.166791 0.058550 -0.647642
F7    F     F_    0.636695 0.632343 0.567633 -0.674963
F8    F     F_    0.778785 0.718066 0.917606 -0.670321

loop_
_geom_bond_atom_site_label_1
_geom_bond_atom_site_label_2
_ccdc_geom_bond_type
C6    C32   S    
Cr1   O2    S    
C7    C29   S    
C119  C143  S    
C38   H62   S    
C120  C144  S    
C74   H10   S    
C110  C118  S    
C24   C104  S    
C16   C144  S    
C70   H72   S    
C57   C59   A    
C8    O16   A    
C58   C60   A    
C10   H42   S    
C62   C70   A    
C61   C63   A    
C62   C64   A    
Cr10  O35   S    
C101  F5    S    
C121  H17   S    
C48   H56   S    
C49   C51   A    
C34   C42   A    
C84   O28   A    
Cr4   O15   S    
C50   C52   A    
C23   C89   S    
C128  H24   S    
C97   C105  S    
C40   H64   S    
C41   C43   A    
C87   C119  S    
C90   O42   A    
C42   C44   A    
C20   C132  S    
Cr10  O44   S    
C21   C133  S    
C45   C47   A    
C112  H8    S    
C46   C48   A    
C115  C123  S    
C6    O22   A    
C27   C57   A    
C87   O31   A    
C112  C120  S    
C81   O25   A    
C33   H57   S    
C94   O6    A    
C29   C55   A    
C46   H54   S    
C30   C56   A    
C100  C124  S    
C68   H66   S    
C85   O37   A    
C104  C128  S    
C12   C20   S    
C120  C128  S    
C142  H38   S    
C13   C21   S    
C85   C117  S    
C103  F7    S    
Cr11  O37   S    
C115  C139  S    
C113  C137  S    
C36   C44   A    
C33   C51   A    
C80   H16   S    
C37   C45   A    
C130  C138  S    
C36   C50   A    
C39   C47   A    
C40   C48   A    
C20   C94   S    
C133  C141  S    
Cr1   O49   S    
C24   C90   S    
C15   H47   S    
C28   C58   A    
C98   C106  S    
C61   C69   A    
C33   C41   A    
C111  H7    S    
C1    O17   A    
C10   C18   S    
C76   H12   S    
Cr12  O48   S    
C2    C28   S    
C32   C62   A    
C129  C137  S    
C126  C134  S    
C7    O23   A    
C92   O4    A    
C84   O36   A    
C10   C138  S    
C85   O29   A    
C16   H48   S    
C14   C142  S    
C81   O33   A    
Cr5   O18   S    
C47   H55   S    
C134  H30   S    
C83   O35   A    
C71   C79   A    
C110  H6    S    
Cr6   O20   S    
C74   C76   A    
C39   H63   S    
C78   C80   A    
Cr3   O13   S    
Cr5   O25   S    
C66   C74   A    
C78   H14   S    
C124  C132  S    
C111  C119  S    
C67   H65   S    
C97   C121  S    
C59   C67   A    
C35   C49   A    
C101  C125  S    
C126  H22   S    
Cr5   O49   S    
C35   C43   A    
C121  C129  S    
C133  H29   S    
C24   C136  S    
C135  C143  S    
C84   C116  S    
C136  H32   S    
C131  H27   S    
Cr11  O46   S    
C135  H31   S    
C9    H41   S    
Cr7   O22   S    
Cr2   O3    S    
C23   C103  S    
C100  C108  S    
C83   C115  S    
C103  C127  S    
C73   H9    S    
C104  C112  S    
C1    O9    A    
C122  H18   S    
C45   H53   S    
C91   O3    A    
C93   O45   A    
C97   F1    S    
Cr12  O40   S    
Cr1   O10   S    
C12   H44   S    
C141  H37   S    
C104  F8    S    
C15   C143  S    
C40   C54   A    
C96   O48   A    
C10   C106  S    
C67   C75   A    
Cr8   O24   S    
Cr7   O29   S    
C14   C110  S    
Cr1   O1    S    
C8    O24   A    
C102  C126  S    
C123  H19   S    
C144  H40   S    
C103  C111  S    
C68   C76   A    
Cr4   O7    S    
C127  H23   S    
C14   C22   S    
C72   C80   A    
C36   H60   S    
C125  H21   S    
Cr8   O31   S    
Cr6   O27   S    
C14   H46   S    
C114  C138  S    
C38   C46   A    
Cr10  O36   S    
C37   C55   A    
Cr3   O6    S    
C113  C121  S    
Cr4   O16   S    
C22   C92   S    
C90   O2    A    
C25   C59   A    
Cr2   O50   S    
C17   C97   S    
C27   C49   A    
C87   O39   A    
C119  C127  S    
C29   C63   A    
C30   C64   A    
C73   C75   A    
C31   C61   A    
Cr9   O42   S    
C37   H61   S    
C109  C117  S    
C11   C19   S    
C127  C135  S    
Cr12  O52   S    
C139  H35   S    
C128  C136  S    
C92   O44   A    
C101  C109  S    
C95   O47   A    
Cr9   O49   S    
C79   H15   S    
C11   C139  S    
C86   O30   A    
C69   C77   A    
C105  H1    S    
C82   O34   A    
C12   C140  S    
C17   C95   S    
C13   C141  S    
C88   C120  S    
C19   C93   S    
C77   C79   A    
C72   H70   S    
C3    O19   A    
C32   C54   A    
C43   H51   S    
C5    O21   A    
C3    C25   S    
C35   H59   S    
C34   H58   S    
C93   O5    A    
Cr4   O52   S    
C83   O27   A    
C117  C141  S    
C134  C142  S    
C107  H3    S    
C20   C100  S    
C143  H39   S    
C19   C99   S    
C4    O12   A    
C86   C118  S    
C124  H20   S    
C22   C134  S    
C102  C110  S    
Cr10  O43   S    
C65   H67   S    
C16   C112  S    
C12   C108  S    
C21   C91   S    
C105  C113  S    
Cr5   O17   S    
C116  C124  S    
C123  C131  S    
C88   O40   A    
C57   C65   A    
C94   O46   A    
C4    C26   S    
C98   F2    S    
C132  C140  S    
C99   C107  S    
Cr2   O12   S    
C34   C52   A    
C23   C135  S    
C8    C30   S    
C108  C116  S    
C2    O18   A    
C136  C144  S    
C132  H28   S    
C102  F6    S    
C39   C53   A    
C42   H50   S    
C11   H43   S    
Cr11  O38   S    
C88   O32   A    
Cr2   O11   S    
C60   C68   A    
C81   C113  S    
C82   O26   A    
C9    C105  S    
C71   H69   S    
C3    O11   A    
C70   C78   A    
C18   C96   S    
Cr11  O45   S    
Cr7   O21   S    
Cr2   O4    S    
C106  C114  S    
C89   O41   A    
C91   O43   A    
C44   H52   S    
C65   C73   A    
Cr7   O51   S    
C4    O20   A    
Cr12  O47   S    
C5    C31   S    
Cr8   O52   S    
C28   C50   A    
C58   C66   A    
Cr1   O9    S    
Cr11  O51   S    
C21   C101  S    
C15   C23   S    
C13   C109  S    
C16   C24   S    
C100  F4    S    
C138  H34   S    
C95   O7    A    
C69   H71   S    
C53   C55   A    
C19   C131  S    
Cr6   O19   S    
C54   C56   A    
C17   C129  S    
C15   C111  S    
Cr10  O50   S    
C131  C139  S    
C82   C114  S    
C66   H68   S    
C130  H26   S    
C2    O10   A    
Cr3   O14   S    
Cr5   O26   S    
C106  H2    S    
Cr4   O8    S    
Cr6   O50   S    
C26   C52   A    
Cr8   O32   S    
Cr6   O28   S    
C96   O8    A    
C38   C56   A    
C31   C53   A    
Cr9   O34   S    
C107  C115  S    
C137  H33   S    
Cr3   O5    S    
C9    C17   S    
C11   C107  S    
C140  H36   S    
Cr9   O33   S    
C99   C123  S    
C125  C133  S    
C129  H25   S    
Cr9   O41   S    
C63   C71   A    
C118  C142  S    
Cr3   O51   S    
C108  H4    S    
C118  C126  S    
C25   C51   A    
C22   C102  S    
C5    O13   A    
C9    C137  S    
C109  H5    S    
Cr12  O39   S    
C26   C60   A    
C13   H45   S    
C64   C72   A    
C41   H49   S    
C18   C130  S    
C114  C122  S    
C98   C122  S    
C77   H13   S    
C7    O15   A    
C1    C27   S    
C86   O38   A    
C6    O14   A    
C75   H11   S    
C18   C98   S    
C89   O1    A    
C117  C125  S    
C122  C130  S    
Cr8   O23   S    
Cr7   O30   S    
C116  C140  S    
C99   F3    S    
