data_mof_unit_50072.cif
_audit_creation_date              2012-12-10T19:48:34-0500
_audit_creation_method            fapswitch 2.2
_symmetry_space_group_name_H-M    P1
_symmetry_Int_Tables_number       1
_space_group_crystal_system       triclinic
_cell_length_a                    13.206794
_cell_length_b                    14.185586
_cell_length_c                    15.021505
_cell_angle_alpha                 88.763806
_cell_angle_beta                  90.564791
_cell_angle_gamma                 70.041332
_cell_volume                      2644.13616635

loop_
_atom_site_label
_atom_site_type_symbol
_atom_type_description
_atom_site_fract_x
_atom_site_fract_y
_atom_site_fract_z
_atom_type_partial_charge
C1    C     C_R   0.499479 0.499401 0.672084 0.905245
C2    C     C_R   0.981969 0.455060 0.461752 0.113193
C3    C     C_R   0.870199 0.479019 0.447972 0.034143
C4    C     C_R   0.027242 0.531271 0.448119 0.049959
C5    C     C_R   0.959901 0.631446 0.432715 0.096564
C6    C     C_R   0.852964 0.651187 0.407134 -0.235963
C7    C     C_R   0.810824 0.573910 0.408771 -0.183990
C8    C     C_R   0.138049 0.509834 0.446224 0.099141
C9    C     C_R   0.111676 0.687411 0.459877 0.188304
C10   C     C_R   0.820707 0.409260 0.476536 -0.173670
C11   C     C_R   0.559164 0.410397 0.907459 0.193583
C12   C     C_R   0.703822 0.444722 0.492472 0.869669
C13   C     C_R   0.554801 0.410742 0.815331 -0.289752
C14   C     C_R   0.498575 0.498661 0.767641 -0.085320
C15   C     C_R   0.443911 0.587036 0.811158 -0.276794
C16   C     C_R   0.443524 0.587618 0.903472 0.196725
C17   C     C_R   0.502560 0.499071 0.951533 0.034926
C18   C     C_R   0.544895 0.565109 0.091060 -0.213366
C19   C     C_R   0.543204 0.568489 0.183313 0.201700
C20   C     C_R   0.503901 0.501858 0.231391 -0.072038
C21   C     C_R   0.467347 0.433600 0.186600 -0.271071
C22   C     C_R   0.466246 0.433273 0.094941 -0.148479
C23   C     C_R   0.501653 0.500558 0.327621 0.854071
C24   C     C_R   0.504805 0.499049 0.047547 0.130910
C25   C     C_R   0.577627 0.869793 0.547305 0.093744
C26   C     C_R   0.574806 0.771265 0.548652 -0.071756
C27   C     C_R   0.425796 0.818747 0.449083 -0.081189
C28   C     C_R   0.420847 0.919703 0.447876 0.093338
C29   C     C_R   0.498553 0.946924 0.496941 0.063561
C30   C     C_R   0.481390 0.113891 0.418703 -0.260657
C31   C     C_R   0.480802 0.213230 0.421945 -0.084098
C32   C     C_R   0.519052 0.194178 0.576553 0.360182
C33   C     C_R   0.511546 0.097693 0.576794 -0.315906
C34   C     C_R   0.296104 0.555008 0.491172 0.891322
C35   C     C_R   0.496275 0.054300 0.497198 0.139664
C36   C     C_R   0.002320 0.708912 0.438348 -0.282937
C37   C     C_R   0.180610 0.586110 0.466913 -0.164703
C38   C     C_R   0.885869 0.309471 0.500228 0.221292
C39   C     C_R   0.996756 0.286035 0.510848 -0.238496
C40   C     C_R   0.043374 0.358837 0.496323 -0.207513
H1    H     H_    0.599230 0.343562 0.781234 0.174127
H2    H     H_    0.399553 0.654871 0.773412 0.157009
H3    H     H_    0.576378 0.614583 0.053197 0.139171
H4    H     H_    0.438372 0.381073 0.222288 0.160259
H5    H     H_    0.634141 0.712787 0.587623 0.146848
H6    H     H_    0.802402 0.725698 0.384757 0.148173
H7    H     H_    0.466646 0.258057 0.361089 0.151468
H8    H     H_    0.127157 0.339109 0.515296 0.148462
H9    H     H_    0.046812 0.211713 0.534000 0.144779
N1    N     N_R   0.500000 0.747530 0.500020 -0.104582
N2    N     N_R   0.499940 0.252470 0.500020 -0.094471
O1    O     O_R   0.499990 0.420530 0.630930 -0.590552
O2    O     O_R   0.499990 0.579480 0.630940 -0.620023
O3    O     O_R   0.653620 0.381060 0.499970 -0.571200
O4    O     O_R   0.653620 0.540010 0.499980 -0.625716
O5    O     O_R   0.500010 0.420520 0.369060 -0.642477
O6    O     O_R   0.500010 0.579470 0.369070 -0.596296
O7    O     O_R   0.346380 0.459990 0.500020 -0.626857
O8    O     O_R   0.346380 0.618940 0.500030 -0.586165
Zn1   Zn    Zn3+2 0.500000 0.393860 0.499990 0.950322
Zn2   Zn    Zn3+2 0.500000 0.606140 0.500010 0.947503
N3    N     N_2   0.152253 0.767781 0.465580 -0.278758
H10   H     H_    0.110042 0.820978 0.509848 0.218783
C41   C     C_3   0.160016 0.812870 0.379657 -0.808125
H11   H     H_    0.080221 0.841396 0.344957 0.233769
H12   H     H_    0.218393 0.757128 0.337509 0.245444
H13   H     H_    0.187364 0.877634 0.388749 0.229050
N4    N     N_2   0.384371 0.677114 0.947590 -0.310698
H14   H     H_    0.379527 0.742003 0.912677 0.219319
C42   C     C_3   0.280317 0.679508 0.978929 -0.789285
H15   H     H_    0.242252 0.749422 0.015855 0.235609
H16   H     H_    0.288795 0.614747 0.024801 0.253468
H17   H     H_    0.226992 0.678018 0.921657 0.233691
N5    N     N_2   0.584527 0.636028 0.226972 -0.301014
H18   H     H_    0.659309 0.632511 0.204603 0.209877
C43   C     C_3   0.510258 0.738208 0.227589 -0.759752
H19   H     H_    0.496839 0.771368 0.158913 0.226147
H20   H     H_    0.544332 0.783821 0.269748 0.229396
H21   H     H_    0.431778 0.740700 0.255428 0.245555
H22   H     H_    0.435168 0.382067 0.060811 0.142305
N6    N     N_2   0.659553 0.890220 0.597406 -0.309108
H23   H     H_    0.686499 0.843966 0.652961 0.220196
C44   C     C_3   0.747440 0.899123 0.545333 -0.810424
H24   H     H_    0.794119 0.825230 0.518268 0.239343
H25   H     H_    0.801662 0.924136 0.588456 0.235182
H26   H     H_    0.717255 0.955031 0.489791 0.250079
H27   H     H_    0.369447 0.796680 0.409836 0.150942
N7    N     N_2   0.336854 0.992787 0.398197 -0.312204
H28   H     H_    0.310243 0.964813 0.343321 0.215424
C45   C     C_3   0.248884 0.053909 0.451217 -0.802361
H29   H     H_    0.208779 0.006404 0.485542 0.232246
H30   H     H_    0.278164 0.095054 0.501662 0.252736
H31   H     H_    0.188798 0.109992 0.407339 0.243451
H32   H     H_    0.470892 0.083988 0.354969 0.164796
N8    N     N_2   0.555090 0.226789 0.655217 -0.270619
H33   H     H_    0.516278 0.214985 0.711440 0.192688
C46   C     C_3   0.671407 0.191833 0.666912 -0.770422
H34   H     H_    0.694681 0.158666 0.734978 0.203042
H35   H     H_    0.700255 0.256235 0.658455 0.261418
H36   H     H_    0.713100 0.133735 0.618346 0.241712
H37   H     H_    0.522119 0.055637 0.639242 0.164892
H38   H     H_    0.950685 0.786139 0.426938 0.147614
N9    N     N_2   0.199577 0.422446 0.399726 -0.297701
H39   H     H_    0.258022 0.366183 0.434474 0.250829
C47   C     C_3   0.225764 0.440467 0.309231 -0.749231
H40   H     H_    0.280414 0.484986 0.308469 0.230565
H41   H     H_    0.151105 0.481812 0.270461 0.245623
H42   H     H_    0.265962 0.367699 0.277142 0.219142
N10   N     N_2   0.840544 0.233373 0.517750 -0.296649
H43   H     H_    0.881594 0.181548 0.566382 0.207884
C48   C     C_3   0.820325 0.185476 0.438732 -0.740917
H44   H     H_    0.777960 0.132598 0.457199 0.227863
H45   H     H_    0.897666 0.142887 0.407029 0.220412
H46   H     H_    0.768590 0.242057 0.390116 0.253343
H47   H     H_    0.730417 0.590685 0.381502 0.190782
N11   N     N_2   0.621290 0.321284 0.955371 -0.310161
H48   H     H_    0.624108 0.256179 0.924481 0.218306
C49   C     C_3   0.727273 0.319260 0.982976 -0.789004
H49   H     H_    0.768014 0.249693 0.023137 0.236798
H50   H     H_    0.721562 0.384471 0.024706 0.250543
H51   H     H_    0.776675 0.320300 0.923716 0.232850

loop_
_geom_bond_atom_site_label_1
_geom_bond_atom_site_label_2
_ccdc_geom_bond_type
C34   C37   S    
C19   C20   A    
C43   H21   S    
C4    C8    A    
C13   H1    S    
N6    H23   S    
C23   O5    A    
O3    Zn1   S    
C47   H41   S    
N5    C43   S    
C30   C35   A    
C18   C24   A    
C28   C29   A    
C43   H20   S    
C3    C7    A    
C1    O1    A    
N10   C48   S    
C30   C31   A    
O7    Zn1   S    
C15   C16   A    
C5    C36   A    
N11   H48   S    
C36   H38   S    
C18   C19   A    
C7    H47   S    
C1    O2    A    
C49   H49   S    
N3    C41   S    
O1    Zn1   S    
C26   H5    S    
N6    C44   S    
O2    Zn2   S    
N8    H33   S    
N4    H14   S    
C28   N7    S    
C9    C36   A    
C42   H15   S    
C16   N4    S    
C27   N1    A    
C31   H7    S    
C13   C14   A    
C25   N6    S    
C46   H35   S    
C46   H34   S    
C25   C29   A    
C38   C39   A    
C47   H42   S    
O8    Zn2   S    
C17   C24   S    
N5    H18   S    
C9    N3    S    
C41   H13   S    
C43   H19   S    
N9    C47   S    
C39   C40   A    
C16   C17   A    
C25   C26   A    
O5    Zn1   S    
C49   H51   S    
C41   H12   S    
C2    C4    A    
C32   N2    A    
N3    H10   S    
C21   H4    S    
C45   H30   S    
C44   H24   S    
C20   C23   S    
C32   N8    S    
C42   H17   S    
C9    C37   A    
C48   H45   S    
C20   C21   A    
C38   N10   S    
C27   H27   S    
C11   N11   S    
C10   C12   S    
C39   H9    S    
N7    C45   S    
C34   O8    A    
C22   C24   A    
C8    C37   A    
C27   C28   A    
C46   H36   S    
C45   H31   S    
C23   O6    A    
C40   H8    S    
C11   C17   A    
C6    H6    S    
C48   H44   S    
C44   H25   S    
C19   N5    S    
C15   H2    S    
C31   N2    A    
C4    C5    A    
N8    C46   S    
O6    Zn2   S    
C6    C7    A    
C1    C14   S    
C47   H40   S    
C29   C35   S    
C10   C38   A    
C32   C33   A    
C33   H37   S    
C26   N1    A    
C2    C3    A    
C22   H22   S    
C30   H32   S    
C3    C10   A    
N10   H43   S    
C41   H11   S    
C11   C13   A    
C45   H29   S    
C5    C6    A    
O4    Zn2   S    
C33   C35   A    
N11   C49   S    
C48   H46   S    
C8    N9    S    
C49   H50   S    
C12   O4    A    
C2    C40   A    
C44   H26   S    
N7    H28   S    
N4    C42   S    
C18   H3    S    
N9    H39   S    
C34   O7    A    
N1    Zn2   S    
C14   C15   A    
C42   H16   S    
N2    Zn1   S    
C21   C22   A    
C12   O3    A    
