data_mof_unit_58438.cif
_audit_creation_date              2012-12-10T17:46:13-0500
_audit_creation_method            fapswitch 2.2
_symmetry_space_group_name_H-M    P1
_symmetry_Int_Tables_number       1
_space_group_crystal_system       triclinic
_cell_length_a                    14.150338
_cell_length_b                    10.642629
_cell_length_c                    9.927624
_cell_angle_alpha                 90.00126
_cell_angle_beta                  89.920712
_cell_angle_gamma                 91.535351
_cell_volume                      1494.53019674

loop_
_atom_site_label
_atom_site_type_symbol
_atom_type_description
_atom_site_fract_x
_atom_site_fract_y
_atom_site_fract_z
_atom_type_partial_charge
C1    C     C_R   0.502331 0.260669 0.500068 0.842807
C2    C     C_R   0.438932 0.061994 0.429747 -0.231164
C3    C     C_R   0.438984 0.933599 0.429778 -0.203372
C4    C     C_R   0.329290 0.499594 0.500117 0.873297
C5    C     C_R   0.509089 0.872045 0.499843 -0.103700
C6    C     C_R   0.379744 0.330939 0.139718 -0.250344
C7    C     C_R   0.323375 0.244060 0.069917 -0.262614
C8    C     C_R   0.325186 0.239658 0.930281 0.559199
C9    C     C_R   0.380942 0.329494 0.860459 -0.284401
C10   C     C_R   0.441443 0.415866 0.927968 0.111957
C11   C     C_R   0.441258 0.416149 0.072275 0.180061
C12   C     C_1   0.772194 0.499921 0.499878 -0.210891
C13   C     C_R   0.556294 0.580296 0.071321 -0.105573
C14   C     C_R   0.556209 0.580349 0.928305 -0.099352
C15   C     C_R   0.502686 0.739490 0.499990 0.864616
C16   C     C_R   0.670716 0.500311 0.499909 0.865826
C17   C     C_1   0.227797 0.499165 0.500316 -0.202030
C18   C     C_1   0.142527 0.498945 0.500393 -0.001303
C19   C     C_1   0.042616 0.498944 0.500364 0.013577
C20   C     C_1   0.957351 0.499139 0.500248 0.010248
C21   C     C_1   0.857450 0.499533 0.500039 -0.008567
C22   C     C_3   0.310965 0.094503 0.757063 -0.289997
C23   C     C_R   0.658094 0.136633 0.630887 -0.175863
C24   C     C_R   0.730718 0.073658 0.694590 -0.128842
C25   C     C_R   0.730806 0.942959 0.694477 -0.136175
C26   C     C_R   0.658281 0.874754 0.630633 -0.191379
C27   C     C_R   0.583197 0.937123 0.567288 0.094382
C28   C     C_R   0.583099 0.068902 0.567386 0.094639
C29   C     C_R   0.508923 0.128620 0.499927 -0.097796
H1    H     H_    0.382933 0.109664 0.377545 0.143114
H2    H     H_    0.372506 0.328663 0.246360 0.217754
H3    H     H_    0.277698 0.179136 0.125386 0.171337
H4    H     H_    0.385785 0.072190 0.779994 0.166169
H5    H     H_    0.306844 0.153178 0.664846 0.156081
H6    H     H_    0.273148 0.004168 0.735239 0.198593
H7    H     H_    0.373843 0.330879 0.754246 0.212898
H8    H     H_    0.602089 0.646100 0.874560 0.141648
H9    H     H_    0.662421 0.238137 0.630216 0.154242
H10   H     H_    0.787679 0.126487 0.742822 0.145162
H11   H     H_    0.787824 0.894245 0.742634 0.141554
H12   H     H_    0.662725 0.773522 0.629716 0.142065
H13   H     H_    0.383073 0.881831 0.377493 0.157891
H14   H     H_    0.602262 0.645976 0.124802 0.147400
N1    N     N_R   0.499190 0.498800 0.142780 -0.105014
N2    N     N_R   0.499160 0.498720 0.857170 -0.099095
O1    O     O_R   0.500000 0.316780 0.614690 -0.639566
O2    O     O_R   0.499990 0.316750 0.385360 -0.616699
O3    O     O_R   0.373720 0.500010 0.614690 -0.604952
O4    O     O_R   0.373710 0.499990 0.385360 -0.611859
O5    O     O_R   0.500010 0.683250 0.614640 -0.611705
O6    O     O_R   0.500000 0.683220 0.385310 -0.604761
O7    O     O_R   0.626290 0.500010 0.614640 -0.607693
O8    O     O_R   0.626280 0.499990 0.385310 -0.586768
O9    O     O_3   0.265280 0.153136 0.866074 -0.603021
Zn1   Zn    Zn3+2 0.500010 0.500020 0.653130 0.927068
Zn2   Zn    Zn3+2 0.499990 0.499980 0.346870 0.940911

loop_
_geom_bond_atom_site_label_1
_geom_bond_atom_site_label_2
_ccdc_geom_bond_type
O1    Zn1   S    
C8    C9    A    
C9    H7    S    
C23   C24   A    
C3    H13   S    
C6    C7    A    
C15   O6    A    
O3    Zn1   S    
C23   H9    S    
C9    C10   A    
N1    Zn2   S    
C19   C20   T    
O7    Zn1   S    
C13   H14   S    
C4    O4    A    
C2    H1    S    
C10   N2    A    
C1    C29   S    
C17   C18   T    
C11   N1    A    
C22   O9    S    
C23   C28   A    
C20   C21   S    
C14   H8    S    
C22   H6    S    
C26   C27   A    
C15   O5    A    
C2    C29   A    
C4    C17   S    
C28   C29   A    
C2    C3    A    
C14   N2    A    
C6    C11   A    
C25   H11   S    
C22   H5    S    
C1    O1    A    
C5    C15   S    
C10   C11   A    
O4    Zn2   S    
C12   C16   S    
C7    C8    A    
C24   H10   S    
C24   C25   A    
N2    Zn1   S    
C16   O7    A    
C18   C19   S    
C4    O3    A    
O8    Zn2   S    
C8    O9    S    
C27   C28   A    
C22   H4    S    
C16   O8    A    
C1    O2    A    
C6    H2    S    
C7    H3    S    
C13   C14   A    
C25   C26   A    
C5    C27   A    
C12   C21   T    
C13   N1    A    
O5    Zn1   S    
C26   H12   S    
O2    Zn2   S    
C3    C5    A    
O6    Zn2   S    
