data_mof_unit_54239.cif
_audit_creation_date              2012-12-10T17:33:44-0500
_audit_creation_method            fapswitch 2.2
_symmetry_space_group_name_H-M    P1
_symmetry_Int_Tables_number       1
_space_group_crystal_system       triclinic
_cell_length_a                    11.69397
_cell_length_b                    12.33706
_cell_length_c                    13.173605
_cell_angle_alpha                 116.547821
_cell_angle_beta                  78.025467
_cell_angle_gamma                 101.21035
_cell_volume                      1651.89430584

loop_
_atom_site_label
_atom_site_type_symbol
_atom_type_description
_atom_site_fract_x
_atom_site_fract_y
_atom_site_fract_z
_atom_type_partial_charge
C1    C     C_R   0.509805 0.854832 0.286590 0.769594
C2    C     C_R   0.459401 0.227913 0.834470 -0.046786
C3    C     C_R   0.584600 0.815545 0.085229 -0.189126
C4    C     C_R   0.607243 0.736922 0.970407 -0.148786
C5    C     C_R   0.566931 0.613454 0.932749 -0.183315
C6    C     C_R   0.498425 0.566279 0.009471 0.079230
C7    C     C_R   0.463961 0.649438 0.123869 0.081017
C8    C     C_R   0.461810 0.439536 0.976137 0.072617
C9    C     C_R   0.383110 0.399310 0.053478 0.166057
C10   C     C_R   0.339485 0.484091 0.160622 -0.241516
C11   C     C_R   0.377578 0.607325 0.194614 -0.197554
C12   C     C_R   0.715742 0.999674 0.499849 0.818851
C13   C     C_R   0.501780 0.351127 0.868340 -0.250206
C14   C     C_R   0.383733 0.189164 0.912188 -0.196116
C15   C     C_R   0.515825 0.772805 0.163601 -0.101111
C16   C     C_R   0.675641 0.340533 0.319994 -0.299594
C17   C     C_R   0.341940 0.761253 0.644626 0.037149
C18   C     C_R   0.297586 0.661481 0.668978 -0.318254
C19   C     C_R   0.348349 0.552134 0.608874 0.262688
C20   C     C_R   0.453055 0.546789 0.529205 -0.046450
C21   C     C_R   0.491118 0.650729 0.503604 0.235080
C22   C     C_R   0.520236 0.443559 0.471553 -0.033308
C23   C     C_R   0.483108 0.145064 0.713375 0.796763
C24   C     C_R   0.612286 0.441429 0.381624 0.168034
C25   C     C_R   0.643095 0.541100 0.355174 -0.274658
C26   C     C_R   0.586458 0.644578 0.417174 -0.156932
C27   C     C_R   0.504239 0.343527 0.500760 0.034848
C28   C     C_R   0.650141 0.242534 0.348898 0.071777
C29   C     C_R   0.284260 0.000349 0.500161 0.818873
C30   C     C_1   0.837432 0.999409 0.499940 -0.187265
C31   C     C_1   0.940045 0.999760 0.499957 -0.004551
C32   C     C_1   0.060020 0.000374 0.499968 -0.011966
C33   C     C_1   0.162604 0.000645 0.500015 -0.191513
C34   C     C_R   0.346393 0.274554 0.021613 -0.192303
Cu1   Cu    Cu3+1 0.526510 0.098270 0.475420 0.937554
Cu2   Cu    Cu3+1 0.473490 0.901730 0.524580 0.925094
H1    H     H_    0.349839 0.093901 0.886984 0.147286
H2    H     H_    0.714585 0.540724 0.287799 0.151403
H3    H     H_    0.744752 0.337732 0.250137 0.136957
H4    H     H_    0.445538 0.341430 0.574303 0.181756
H5    H     H_    0.298946 0.843462 0.689214 0.140740
H6    H     H_    0.219324 0.667333 0.731015 0.144912
H7    H     H_    0.620458 0.718001 0.393762 0.205986
H8    H     H_    0.275314 0.455088 0.218548 0.144798
H9    H     H_    0.286150 0.243445 0.080271 0.132777
H10   H     H_    0.565340 0.375493 0.807880 0.147245
H11   H     H_    0.623513 0.909693 0.113114 0.150510
H12   H     H_    0.588787 0.558207 0.842536 0.128609
H13   H     H_    0.659590 0.771238 0.910575 0.142429
H14   H     H_    0.335523 0.668847 0.275951 0.177683
H15   H     H_    0.697501 0.163535 0.300821 0.122321
N1    N     N_R   0.566700 0.246290 0.438210 -0.190230
N2    N     N_R   0.434010 0.754320 0.561170 -0.202961
O1    O     O_R   0.533340 0.972510 0.318140 -0.581474
O2    O     O_R   0.488570 0.806530 0.359650 -0.602536
O3    O     O_R   0.685190 0.083000 0.479260 -0.572462
O4    O     O_R   0.640410 0.917020 0.520770 -0.589011
O5    O     O_R   0.511430 0.193470 0.640350 -0.590480
O6    O     O_R   0.466660 0.027490 0.681860 -0.586877
O7    O     O_R   0.359590 0.082980 0.479230 -0.568717
O8    O     O_R   0.314810 0.917000 0.520740 -0.584478
N3    N     N_2   0.286057 0.447309 0.622538 -0.459538
H16   H     H_    0.239256 0.465751 0.702914 0.254057
C35   C     C_3   0.216271 0.367742 0.532142 -0.683791
H17   H     H_    0.176737 0.284997 0.545705 0.236188
H18   H     H_    0.271901 0.338462 0.447180 0.237599
H19   H     H_    0.144418 0.415319 0.532747 0.225383

loop_
_geom_bond_atom_site_label_1
_geom_bond_atom_site_label_2
_ccdc_geom_bond_type
C16   C28   A    
C23   O5    A    
C21   N2    A    
C1    O1    A    
C24   C25   A    
C14   C34   A    
C8    C13   A    
C1    C15   S    
C29   C33   S    
C25   H2    S    
C9    C10   A    
C27   H4    S    
C7    C11   A    
C19   C20   A    
C29   O7    A    
C4    H13   S    
C21   C26   A    
Cu2   O6    S    
C32   C33   T    
C7    C15   A    
C17   C18   A    
C1    O2    A    
C16   C24   A    
C34   H9    S    
C12   O3    A    
C20   C21   A    
Cu1   O1    S    
C23   O6    A    
C28   N1    A    
C30   C31   T    
N3    H16   S    
Cu1   O5    S    
C6    C8    A    
C12   O4    A    
C35   H17   S    
C3    H11   S    
C28   H15   S    
C20   C22   A    
C26   H7    S    
Cu2   O4    S    
C6    C7    A    
C22   C24   A    
C22   C27   A    
C18   H6    S    
C5    C6    A    
C2    C14   A    
C5    H12   S    
C29   O8    A    
Cu1   O3    S    
C17   H5    S    
C10   C11   A    
C19   N3    S    
C10   H8    S    
Cu2   O8    S    
C35   H19   S    
C17   N2    A    
Cu1   N1    S    
C3    C15   A    
C27   N1    A    
C8    C9    A    
C18   C19   A    
C2    C23   S    
Cu2   O2    S    
C2    C13   A    
C11   H14   S    
C13   H10   S    
Cu1   O7    S    
N3    C35   S    
Cu2   N2    S    
C16   H3    S    
C12   C30   S    
C25   C26   A    
C31   C32   S    
C3    C4    A    
C9    C34   A    
C4    C5    A    
C14   H1    S    
Cu1   Cu2   S    
C35   H18   S    
