data_mof_unit_49934.cif
_audit_creation_date              2012-12-10T20:04:42-0500
_audit_creation_method            fapswitch 2.2
_symmetry_space_group_name_H-M    P1
_symmetry_Int_Tables_number       1
_space_group_crystal_system       triclinic
_cell_length_a                    10.465369
_cell_length_b                    19.243179
_cell_length_c                    18.546524
_cell_angle_alpha                 90.523551
_cell_angle_beta                  103.168888
_cell_angle_gamma                 90.224971
_cell_volume                      3636.58623196

loop_
_atom_site_label
_atom_site_type_symbol
_atom_type_description
_atom_site_fract_x
_atom_site_fract_y
_atom_site_fract_z
_atom_type_partial_charge
C1    C     C_R   0.497204 0.366045 0.499244 0.957564
C2    C     C_R   0.449155 0.928915 0.491053 0.012177
C3    C     C_R   0.584670 0.545502 0.733706 0.579122
C4    C     C_R   0.436800 0.553590 0.269322 0.575908
C5    C     C_R   0.578270 0.557812 0.808542 -0.023218
C6    C     C_R   0.455693 0.566706 0.197353 -0.036165
C7    C     C_R   0.500515 0.513790 0.841775 0.046656
C8    C     C_R   0.511425 0.514446 0.160156 -0.001114
C9    C     C_R   0.421019 0.463382 0.797151 0.427439
C10   C     C_R   0.561025 0.454713 0.200653 0.467079
C11   C     C_R   0.418778 0.458547 0.720165 0.066396
C12   C     C_R   0.498060 0.634346 0.500007 0.965375
C13   C     C_R   0.563957 0.451084 0.277459 0.049150
C14   C     C_R   0.392739 0.536796 0.949370 0.382857
C15   C     C_R   0.626025 0.506935 0.052897 0.418776
C16   C     C_R   0.257087 0.504007 0.470112 0.877869
C17   C     C_R   0.742793 0.503307 0.530122 0.925361
C18   C     C_R   0.392329 0.531674 0.025331 0.344605
C19   C     C_R   0.620816 0.501266 0.976187 0.332970
C20   C     C_R   0.510319 0.518715 0.078534 -0.200271
C21   C     C_R   0.504938 0.517953 0.923605 -0.147283
C22   C     C_2   0.117122 0.518585 0.456481 -0.011348
C23   C     C_R   0.481451 0.709552 0.498507 -0.273562
C24   C     C_2   0.883502 0.514521 0.544805 0.016005
C25   C     C_2   0.071888 0.561033 0.504540 0.209205
C26   C     C_2   0.932233 0.561307 0.503201 0.208233
C27   C     C_R   0.363386 0.739714 0.458099 0.104915
C28   C     C_R   0.368229 0.260668 0.450526 0.099024
C29   C     C_R   0.351350 0.812698 0.457066 0.182472
C30   C     C_R   0.358386 0.187707 0.445375 0.164000
C31   C     C_R   0.457351 0.853629 0.495855 -0.058634
C32   C     C_R   0.459994 0.147550 0.488137 -0.062742
C33   C     C_R   0.574549 0.823506 0.535627 0.425341
C34   C     C_R   0.482748 0.291339 0.495479 -0.284361
C35   C     C_R   0.571314 0.178411 0.534064 0.435904
C36   C     C_R   0.585355 0.751124 0.537803 0.356381
C37   C     C_R   0.584785 0.250547 0.536176 0.382070
C38   C     C_3   0.848886 0.612724 0.451846 -0.854251
C39   C     C_3   0.158219 0.604192 0.565714 -0.876399
C40   C     C_3   0.651277 0.618689 0.851483 -0.861110
C41   C     C_3   0.422702 0.637815 0.164504 -0.743038
C42   C     C_3   0.222670 0.423988 0.816953 -0.224703
C43   C     C_3   0.512422 0.353460 0.136178 -0.348790
C44   C     C_3   0.328491 0.405333 0.674580 -0.746384
C45   C     C_R   0.384581 0.966341 0.537472 0.516932
C46   C     C_3   0.632695 0.391002 0.321027 -0.737069
C47   C     C_3   0.274255 0.628611 0.895717 -0.298329
C48   C     C_3   0.806766 0.561450 0.120189 -0.286441
C49   C     C_3   0.213678 0.480627 0.053361 -0.253737
C50   C     C_3   0.736046 0.409397 0.948565 -0.242405
C51   C     C_3   0.970585 0.468640 0.600818 -1.040773
C52   C     C_3   0.025678 0.482283 0.392147 -0.972703
C53   C     C_3   0.250440 0.695488 0.415899 -0.827921
C54   C     C_3   0.254566 0.304443 0.409428 -0.852044
C55   C     C_3   0.229129 0.848705 0.413265 -0.854358
C56   C     C_R   0.505754 0.034485 0.435834 0.533254
C57   C     C_3   0.238388 0.153729 0.395661 -0.874135
C58   C     C_3   0.670868 0.903252 0.625825 -0.294182
C59   C     C_3   0.771898 0.125317 0.552474 -0.253398
C60   C     C_3   0.722200 0.724623 0.648532 -0.187614
C61   C     C_3   0.782968 0.301733 0.538807 -0.335682
C62   C     C_3   0.211067 0.959218 0.596000 -0.325555
C63   C     C_3   0.500362 0.054512 0.314071 -0.340101
C64   C     C_3   0.800894 0.549220 0.732505 -0.297593
C65   C     C_3   0.223387 0.569892 0.269139 -0.309917
C66   C     C_R   0.390425 0.039073 0.536255 -0.363967
C67   C     C_R   0.507949 0.962278 0.440251 -0.342696
C68   C     C_R   0.451698 0.072272 0.486443 0.034408
H1    H     H_    0.350571 0.070185 0.574740 0.175171
H2    H     H_    0.737067 0.600486 0.893612 0.275085
H3    H     H_    0.686600 0.655796 0.814769 0.245070
H4    H     H_    0.465355 0.646863 0.115844 0.213951
H5    H     H_    0.315078 0.645029 0.147685 0.260901
H6    H     H_    0.464598 0.678348 0.206321 0.224900
H7    H     H_    0.171469 0.378950 0.785040 0.158392
H8    H     H_    0.187910 0.472681 0.786601 0.167778
H9    H     H_    0.192302 0.425459 0.870417 0.193902
H10   H     H_    0.442906 0.376022 0.087839 0.156176
H11   H     H_    0.458997 0.335436 0.178161 0.152855
H12   H     H_    0.557123 0.932049 0.405196 0.181217
H13   H     H_    0.557038 0.307132 0.115983 0.196560
H14   H     H_    0.329822 0.404341 0.616116 0.273772
H15   H     H_    0.353901 0.352601 0.696992 0.240207
H16   H     H_    0.225624 0.416962 0.675541 0.197968
H17   H     H_    0.693134 0.408748 0.374839 0.246727
H18   H     H_    0.559341 0.351706 0.328751 0.233137
H19   H     H_    0.701521 0.364777 0.292280 0.243587
H20   H     H_    0.355028 0.649344 0.872112 0.146820
H21   H     H_    0.277071 0.652972 0.950747 0.184225
H22   H     H_    0.180319 0.643587 0.858051 0.180612
H23   H     H_    0.911295 0.653598 0.435088 0.230417
H24   H     H_    0.747245 0.596772 0.147186 0.144289
H25   H     H_    0.828058 0.586270 0.070162 0.169707
H26   H     H_    0.901903 0.553256 0.160076 0.176945
H27   H     H_    0.266330 0.451969 0.102913 0.130886
H28   H     H_    0.203067 0.447686 0.002663 0.156877
H29   H     H_    0.113515 0.491528 0.060937 0.197441
H30   H     H_    0.649378 0.388341 0.907706 0.169620
H31   H     H_    0.742699 0.385504 0.003731 0.195257
H32   H     H_    0.825024 0.394201 0.929380 0.169367
H33   H     H_    0.911664 0.433077 0.627394 0.253475
H34   H     H_    0.794036 0.586279 0.400639 0.247704
H35   H     H_    0.033409 0.436356 0.573164 0.258171
H36   H     H_    0.032934 0.500992 0.645044 0.254133
H37   H     H_    0.955095 0.448700 0.412475 0.254283
H38   H     H_    0.080653 0.448782 0.360813 0.246191
H39   H     H_    0.971034 0.521369 0.353548 0.257568
H40   H     H_    0.267439 0.639217 0.421878 0.248569
H41   H     H_    0.160560 0.706450 0.436214 0.226905
H42   H     H_    0.232563 0.707245 0.355978 0.260532
H43   H     H_    0.265623 0.360535 0.422584 0.233211
H44   H     H_    0.243386 0.297890 0.348791 0.239396
H45   H     H_    0.779296 0.638704 0.480034 0.273053
H46   H     H_    0.162348 0.288330 0.424670 0.230218
H47   H     H_    0.183078 0.879186 0.451483 0.252544
H48   H     H_    0.256529 0.884424 0.372498 0.222600
H49   H     H_    0.152522 0.813474 0.381633 0.237311
H50   H     H_    0.242921 0.096284 0.393713 0.225570
H51   H     H_    0.149239 0.167261 0.415538 0.235188
H52   H     H_    0.227301 0.171970 0.337980 0.239258
H53   H     H_    0.766000 0.904194 0.667124 0.169510
H54   H     H_    0.595610 0.882320 0.654033 0.161736
H55   H     H_    0.648309 0.957910 0.609405 0.204458
H56   H     H_    0.202140 0.571147 0.613594 0.254720
H57   H     H_    0.851638 0.162118 0.577918 0.184047
H58   H     H_    0.752708 0.128595 0.490956 0.170559
H59   H     H_    0.807654 0.072058 0.567766 0.178529
H60   H     H_    0.632520 0.709612 0.667675 0.172040
H61   H     H_    0.756034 0.776992 0.669694 0.162498
H62   H     H_    0.802088 0.688703 0.673450 0.196825
H63   H     H_    0.755462 0.353224 0.513873 0.162579
H64   H     H_    0.790496 0.263555 0.494428 0.136060
H65   H     H_    0.882180 0.307123 0.575627 0.190731
H66   H     H_    0.148408 0.976062 0.542132 0.154167
H67   H     H_    0.237361 0.630768 0.545874 0.240584
H68   H     H_    0.229454 0.003048 0.636469 0.170221
H69   H     H_    0.155148 0.918977 0.618527 0.203809
H70   H     H_    0.392973 0.063787 0.305183 0.160426
H71   H     H_    0.519123 0.000513 0.297689 0.164387
H72   H     H_    0.538310 0.090028 0.276944 0.195131
H73   H     H_    0.870870 0.569171 0.700775 0.186934
H74   H     H_    0.797799 0.491531 0.726300 0.175974
H75   H     H_    0.840728 0.563776 0.791389 0.172735
H76   H     H_    0.214291 0.512872 0.276826 0.168517
H77   H     H_    0.189399 0.582110 0.209484 0.159430
H78   H     H_    0.099642 0.644980 0.585887 0.240294
H79   H     H_    0.155446 0.595774 0.298583 0.182638
H80   H     H_    0.585476 0.648080 0.879687 0.216020
N1    N     N_R   0.500020 0.499980 0.689440 -0.162911
N2    N     N_R   0.499980 0.500020 0.310560 -0.168096
O1    O     O_R   0.500000 0.398180 0.560840 -0.596380
O2    O     O_3   0.613428 0.401140 0.166459 -0.553525
O3    O     O_3   0.278918 0.555569 0.899666 -0.587005
O4    O     O_3   0.744366 0.496456 0.102662 -0.527260
O5    O     O_3   0.276527 0.544440 0.047027 -0.576774
O6    O     O_3   0.732396 0.482492 0.952913 -0.589086
O7    O     O_3   0.685914 0.863478 0.563773 -0.583649
O8    O     O_3   0.660786 0.137579 0.581897 -0.581810
O9    O     O_3   0.703445 0.720459 0.570880 -0.604956
O10   O     O_3   0.694671 0.280622 0.581968 -0.563025
O11   O     O_3   0.330830 0.930032 0.588182 -0.613174
O12   O     O_R   0.500000 0.601820 0.439160 -0.566960
O13   O     O_3   0.567042 0.069085 0.387731 -0.617472
O14   O     O_3   0.676864 0.579624 0.704323 -0.594704
O15   O     O_3   0.352578 0.594730 0.298110 -0.567296
O16   O     O_R   0.499950 0.398180 0.439200 -0.628179
O17   O     O_R   0.500050 0.601820 0.560800 -0.582687
O18   O     O_R   0.317830 0.500010 0.538110 -0.631669
O19   O     O_R   0.682170 0.499990 0.461890 -0.641296
O20   O     O_R   0.317770 0.500000 0.416470 -0.592787
O21   O     O_R   0.682230 0.500000 0.583530 -0.554505
O22   O     O_3   0.359790 0.413257 0.831197 -0.612313
Zn1   Zn    Zn3+2 0.500040 0.500000 0.581220 0.975331
Zn2   Zn    Zn3+2 0.499960 0.500000 0.418780 0.947470

loop_
_geom_bond_atom_site_label_1
_geom_bond_atom_site_label_2
_ccdc_geom_bond_type
C53   H42   S    
C66   C68   A    
O1    Zn1   S    
C40   H3    S    
C27   C29   A    
C34   C37   A    
C63   H72   S    
C14   C18   A    
C60   O9    S    
C64   O14   S    
C44   H15   S    
C12   O17   A    
C61   H65   S    
C39   H67   S    
C59   H58   S    
C63   O13   S    
O21   Zn1   S    
C56   O13   S    
C50   H31   S    
C8    C20   S    
C48   H26   S    
C14   C21   A    
C35   C37   A    
C24   C26   D    
C13   N2    A    
C44   H14   S    
O20   Zn2   S    
C13   C46   S    
C59   O8    S    
C17   O19   A    
C66   H1    S    
C55   H48   S    
C59   H59   S    
C30   C57   S    
C65   O15   S    
C33   C36   A    
C4    O15   S    
C7    C9    A    
C62   H68   S    
C45   O11   S    
C15   O4    S    
C36   O9    S    
C10   O2    S    
C41   H6    S    
C11   N1    A    
C52   H39   S    
C50   O6    S    
C22   C25   D    
O19   Zn2   S    
C31   C33   A    
C23   C27   A    
C65   H79   S    
C3    N1    A    
N1    Zn1   S    
C61   H64   S    
C57   H51   S    
C46   H17   S    
C24   C51   S    
C28   C34   A    
C10   C13   A    
C62   H69   S    
C42   H7    S    
C19   O6    S    
C47   H21   S    
C15   C20   A    
C33   O7    S    
C1    C34   S    
C2    C45   A    
O18   Zn1   S    
C58   H54   S    
C17   C24   S    
O16   Zn2   S    
C48   H25   S    
C40   H80   S    
C32   C35   A    
O17   Zn1   S    
C60   H60   S    
C4    C6    A    
C2    C67   A    
C50   H30   S    
C60   H62   S    
C5    C7    A    
C38   H45   S    
C28   C54   S    
C43   O2    S    
C26   C38   S    
C6    C8    A    
C29   C55   S    
C3    C5    A    
C25   C26   S    
C56   C68   A    
C49   H29   S    
C38   H23   S    
C6    C41   S    
C39   H56   S    
C2    C31   S    
C43   H10   S    
C15   C19   A    
C12   C23   S    
C17   O21   A    
C58   H55   S    
C54   H44   S    
C11   C44   S    
C49   H27   S    
C9    C11   A    
C42   O22   S    
C3    O14   S    
C57   H52   S    
C8    C10   A    
N2    Zn2   S    
C52   H37   S    
C41   H4    S    
C14   O3    S    
C48   H24   S    
C43   H13   S    
C63   H70   S    
C61   O10   S    
C59   H57   S    
C65   H77   S    
C4    N2    A    
C37   O10   S    
C22   C52   S    
C46   H19   S    
C55   H49   S    
C53   H41   S    
C65   H76   S    
C48   O4    S    
C58   H53   S    
C16   C22   S    
C19   C21   A    
C63   H71   S    
C49   O5    S    
C67   H12   S    
C44   H16   S    
C58   O7    S    
C60   H61   S    
C27   C53   S    
O12   Zn2   S    
C64   H75   S    
C12   O12   A    
C51   H33   S    
C56   C67   A    
C47   O3    S    
C40   H2    S    
C42   H8    S    
C32   C68   S    
C47   H20   S    
C62   H66   S    
C28   C30   A    
C51   H36   S    
C35   O8    S    
C29   C31   A    
C7    C21   S    
C25   C39   S    
C30   C32   A    
C55   H47   S    
C53   H40   S    
C64   H74   S    
C1    O16   A    
C16   O18   A    
C41   H5    S    
C54   H46   S    
C39   H78   S    
C47   H22   S    
C54   H43   S    
C1    O1    A    
C18   C20   A    
C49   H28   S    
C50   H32   S    
C61   H63   S    
C52   H38   S    
C62   O11   S    
C16   O20   A    
C42   H9    S    
C38   H34   S    
C23   C36   A    
C64   H73   S    
C5    C40   S    
C45   C66   A    
C9    O22   S    
C51   H35   S    
C43   H11   S    
C18   O5    S    
C57   H50   S    
C46   H18   S    
