data_mof_unit_62118.cif
_audit_creation_date              2012-12-10T17:13:03-0500
_audit_creation_method            fapswitch 2.2
_symmetry_space_group_name_H-M    P1
_symmetry_Int_Tables_number       1
_space_group_crystal_system       triclinic
_cell_length_a                    30.124537
_cell_length_b                    31.04363
_cell_length_c                    24.306664
_cell_angle_alpha                 90.049761
_cell_angle_beta                  127.34081
_cell_angle_gamma                 89.999487
_cell_volume                      18072.0684584

loop_
_atom_site_label
_atom_site_type_symbol
_atom_type_description
_atom_site_fract_x
_atom_site_fract_y
_atom_site_fract_z
_atom_type_partial_charge
C1    C     C_R   0.689985 0.190351 0.500969 0.905600
C2    C     C_R   0.310017 0.190353 0.499036 0.905969
C3    C     C_R   0.189986 0.690351 0.500970 0.905611
C4    C     C_R   0.810017 0.690353 0.499033 0.905921
C5    C     C_R   0.646377 0.250708 0.289396 -0.112496
C6    C     C_R   0.353466 0.251452 0.710593 -0.112419
C7    C     C_R   0.146375 0.750706 0.289396 -0.112489
C8    C     C_R   0.853469 0.751450 0.710592 -0.112416
C9    C     C_R   0.467577 0.245379 0.930413 0.317654
C10   C     C_R   0.539826 0.243861 0.069772 0.313655
C11   C     C_R   0.967580 0.745373 0.930413 0.317649
C12   C     C_R   0.039826 0.743855 0.069772 0.313654
C13   C     C_R   0.659742 0.195669 0.594177 -0.215700
C14   C     C_R   0.340175 0.195484 0.405757 -0.215706
C15   C     C_R   0.159711 0.695683 0.594147 -0.215696
C16   C     C_R   0.840290 0.695530 0.405863 -0.215674
C17   C     C_R   0.638107 0.201647 0.630724 0.290396
C18   C     C_R   0.361765 0.201396 0.369157 0.290288
C19   C     C_R   0.138057 0.701669 0.630670 0.290382
C20   C     C_R   0.861954 0.701467 0.369350 0.290305
C21   C     C_R   0.596470 0.173958 0.618938 0.189560
C22   C     C_R   0.403450 0.173760 0.380993 0.189454
C23   C     C_R   0.096423 0.673976 0.618884 0.189651
C24   C     C_R   0.903633 0.673819 0.381199 0.189397
C25   C     C_R   0.579535 0.139166 0.573991 -0.233353
C26   C     C_R   0.420479 0.139077 0.426048 -0.233158
C27   C     C_R   0.079510 0.639173 0.573961 -0.233391
C28   C     C_R   0.920583 0.639101 0.426174 -0.233176
C29   C     C_R   0.602845 0.131836 0.538814 0.042502
C30   C     C_R   0.397203 0.131801 0.461267 0.042697
C31   C     C_R   0.102833 0.631840 0.538801 0.042514
C32   C     C_R   0.897252 0.631812 0.461324 0.042719
C33   C     C_R   0.639884 0.162210 0.544692 0.020408
C34   C     C_R   0.360119 0.162142 0.455335 0.020371
C35   C     C_R   0.139869 0.662216 0.544678 0.020481
C36   C     C_R   0.860172 0.662160 0.455387 0.020351
C37   C     C_R   0.655858 0.158075 0.500858 -0.184080
C38   C     C_R   0.344191 0.158096 0.499216 -0.184030
C39   C     C_R   0.155858 0.658075 0.500859 -0.184079
C40   C     C_R   0.844195 0.658095 0.499218 -0.184084
C41   C     C_R   0.637617 0.123328 0.454485 0.226636
C42   C     C_R   0.362573 0.123495 0.545754 0.226492
C43   C     C_R   0.137627 0.623323 0.454498 0.226661
C44   C     C_R   0.862542 0.623478 0.545722 0.226553
C45   C     C_R   0.683254 0.250426 0.365222 0.926567
C46   C     C_R   0.316647 0.250604 0.634771 0.926853
C47   C     C_R   0.183253 0.750426 0.365222 0.926567
C48   C     C_R   0.816648 0.750603 0.634771 0.926840
C49   C     C_R   0.607607 0.090237 0.456181 0.139875
C50   C     C_R   0.392610 0.090400 0.544105 0.139814
C51   C     C_R   0.107619 0.590232 0.456195 0.139869
C52   C     C_R   0.892578 0.590382 0.544073 0.139748
C53   C     C_R   0.590073 0.094858 0.497846 -0.179839
C54   C     C_R   0.410046 0.094908 0.502320 -0.179923
C55   C     C_R   0.090074 0.594858 0.497848 -0.179812
C56   C     C_R   0.910044 0.594902 0.502323 -0.179849
C57   C     C_R   0.902316 0.223995 0.746034 -0.169120
C58   C     C_R   0.097550 0.223959 0.253937 -0.169137
C59   C     C_R   0.402642 0.724345 0.746017 -0.168478
C60   C     C_R   0.597888 0.723605 0.253914 -0.169797
C61   C     C_R   0.939142 0.224425 0.817957 0.191495
C62   C     C_R   0.060651 0.224407 0.182015 0.191584
C63   C     C_R   0.439484 0.724803 0.817938 0.191462
C64   C     C_R   0.561003 0.724030 0.181990 0.191618
C65   C     C_R   0.928832 0.252261 0.854911 0.014937
C66   C     C_R   0.070936 0.252262 0.145106 0.015037
C67   C     C_R   0.428862 0.752323 0.854902 0.014902
C68   C     C_R   0.570963 0.752210 0.145096 0.015093
C69   C     C_R   0.881301 0.278569 0.819196 -0.141930
C70   C     C_R   0.118502 0.278580 0.180859 -0.141872
C71   C     C_R   0.381031 0.778305 0.819203 -0.141903
C72   C     C_R   0.618215 0.778863 0.180870 -0.141984
C73   C     C_R   0.844735 0.277917 0.747373 -0.126913
C74   C     C_R   0.155135 0.277911 0.252671 -0.126515
C75   C     C_R   0.344462 0.777640 0.747381 -0.127595
C76   C     C_R   0.654844 0.778204 0.252682 -0.125890
C77   C     C_R   0.855117 0.250692 0.710352 -0.068341
C78   C     C_R   0.144791 0.250660 0.289652 -0.068120
C79   C     C_R   0.355135 0.750716 0.710349 -0.068330
C80   C     C_R   0.644807 0.750640 0.289649 -0.068111
C81   C     C_R   0.033900 0.253711 0.069770 0.307380
C82   C     C_R   0.965848 0.253720 0.930247 0.307304
C83   C     C_R   0.533908 0.753680 0.069759 0.307432
C84   C     C_R   0.465857 0.753761 0.930236 0.307252
C85   C     C_R   0.792034 0.341217 0.368707 0.213856
C86   C     C_R   0.207525 0.341147 0.631151 0.214256
C87   C     C_R   0.292025 0.841225 0.368705 0.213858
C88   C     C_R   0.707530 0.841151 0.631153 0.214254
C89   C     C_R   0.808589 0.309464 0.495786 0.971937
C90   C     C_R   0.191389 0.309470 0.504177 0.971528
C91   C     C_R   0.308589 0.809465 0.495786 0.971927
C92   C     C_R   0.691389 0.809470 0.504178 0.971535
C93   C     C_R   0.766970 0.366476 0.309375 -0.193111
C94   C     C_R   0.232477 0.366390 0.690569 -0.192805
C95   C     C_R   0.266958 0.866488 0.309376 -0.193116
C96   C     C_R   0.732482 0.866396 0.690569 -0.192795
C97   C     C_R   0.775139 0.410838 0.314780 0.264732
C98   C     C_R   0.224485 0.410764 0.685318 0.264854
C99   C     C_R   0.275131 0.910849 0.314787 0.264730
C100  C     C_R   0.724489 0.910770 0.685314 0.264860
C101  C     C_R   0.814718 0.429484 0.379997 0.164656
C102  C     C_R   0.185135 0.429442 0.620129 0.165062
C103  C     C_R   0.314715 0.929492 0.380007 0.164649
C104  C     C_R   0.685136 0.929446 0.620125 0.165050
C105  C     C_R   0.847008 0.402568 0.439180 -0.066429
C106  C     C_R   0.152881 0.402543 0.560819 -0.066423
C107  C     C_R   0.347006 0.902571 0.439184 -0.066427
C108  C     C_R   0.652882 0.902544 0.560817 -0.066431
C109  C     C_R   0.827726 0.360696 0.434965 -0.042178
C110  C     C_R   0.172071 0.360657 0.564956 -0.042465
C111  C     C_R   0.327721 0.860700 0.434965 -0.042165
C112  C     C_R   0.672073 0.860659 0.564956 -0.042468
C113  C     C_R   0.843858 0.341246 0.497043 -0.164506
C114  C     C_R   0.156085 0.341237 0.502872 -0.164265
C115  C     C_R   0.343857 0.841246 0.497043 -0.164520
C116  C     C_R   0.656085 0.841237 0.502873 -0.164248
C117  C     C_R   0.886489 0.358762 0.561658 0.201614
C118  C     C_R   0.113557 0.358753 0.438273 0.201763
C119  C     C_R   0.386494 0.858758 0.561659 0.201623
C120  C     C_R   0.613556 0.858752 0.438273 0.201750
C121  C     C_R   0.915479 0.394876 0.564932 0.266636
C122  C     C_R   0.084544 0.394842 0.435021 0.266544
C123  C     C_R   0.415483 0.894874 0.564933 0.266634
C124  C     C_R   0.584542 0.894841 0.435020 0.266540
C125  C     C_R   0.897847 0.415346 0.502415 -0.213971
C126  C     C_R   0.102124 0.415331 0.497555 -0.213996
C127  C     C_R   0.397848 0.915347 0.502417 -0.213990
C128  C     C_R   0.602123 0.915331 0.497554 -0.213988
C129  C     C_R   0.063742 0.443559 0.499215 0.934119
C130  C     C_R   0.936241 0.443565 0.500763 0.934134
C131  C     C_R   0.563742 0.943558 0.499214 0.934127
C132  C     C_R   0.436242 0.943565 0.500764 0.934144
C133  C     C_R   0.817097 0.250055 0.634726 0.892772
C134  C     C_R   0.182882 0.250034 0.365274 0.892639
C135  C     C_R   0.317101 0.750059 0.634725 0.892729
C136  C     C_R   0.682884 0.750031 0.365273 0.892678
C137  C     C_R   0.559482 0.060368 0.499432 0.874519
C138  C     C_R   0.440548 0.060378 0.500621 0.874625
C139  C     C_R   0.059481 0.560368 0.499432 0.874512
C140  C     C_R   0.940544 0.560372 0.500622 0.874650
C141  C     C_R   0.635391 0.211326 0.255130 -0.143792
C142  C     C_R   0.364688 0.212444 0.745624 -0.145515
C143  C     C_R   0.135391 0.711323 0.255132 -0.143793
C144  C     C_R   0.864692 0.712441 0.745622 -0.145546
C145  C     C_R   0.600172 0.209454 0.183487 -0.154269
C146  C     C_R   0.401390 0.211047 0.817247 -0.153051
C147  C     C_R   0.100172 0.709450 0.183489 -0.154272
C148  C     C_R   0.901395 0.711043 0.817244 -0.153056
C149  C     C_R   0.576208 0.247038 0.144870 -0.017349
C150  C     C_R   0.427101 0.248703 0.855257 -0.021022
C151  C     C_R   0.076206 0.747032 0.144870 -0.017347
C152  C     C_R   0.927104 0.748698 0.855257 -0.021017
C153  C     C_R   0.586787 0.287176 0.177958 0.158387
C154  C     C_R   0.413868 0.288844 0.821307 0.159964
C155  C     C_R   0.086780 0.787172 0.177955 0.158386
C156  C     C_R   0.913870 0.788839 0.821308 0.159964
C157  C     C_R   0.622273 0.289205 0.250832 0.121200
C158  C     C_R   0.377375 0.290274 0.748388 0.120449
C159  C     C_R   0.122267 0.789202 0.250830 0.121214
C160  C     C_R   0.877377 0.790271 0.748389 0.120456
H1    H     H_    0.653683 0.181716 0.283989 0.207840
H2    H     H_    0.346086 0.182656 0.717352 0.207642
H3    H     H_    0.153686 0.681713 0.283993 0.207834
H4    H     H_    0.846092 0.682653 0.717348 0.207628
H5    H     H_    0.910524 0.202400 0.718144 0.188697
H6    H     H_    0.089366 0.202351 0.281798 0.188616
H7    H     H_    0.411094 0.702996 0.718116 0.188761
H8    H     H_    0.589959 0.701744 0.281762 0.188542
H9    H     H_    0.872735 0.299952 0.846989 0.178043
H10   H     H_    0.127051 0.299980 0.153105 0.178003
H11   H     H_    0.372228 0.799439 0.847010 0.178111
H12   H     H_    0.626513 0.800519 0.153133 0.177917
H13   H     H_    0.808449 0.298708 0.720948 0.187998
H14   H     H_    0.191447 0.298711 0.279119 0.187976
H15   H     H_    0.307930 0.798168 0.720964 0.188060
H16   H     H_    0.690898 0.799273 0.279143 0.187898
H17   H     H_    0.739655 0.351667 0.258760 0.214665
H18   H     H_    0.259621 0.351564 0.741137 0.214951
H19   H     H_    0.239639 0.851682 0.258759 0.214662
H20   H     H_    0.759629 0.851571 0.741138 0.214955
H21   H     H_    0.591937 0.178617 0.157988 0.178924
H22   H     H_    0.410697 0.180266 0.843122 0.181629
H23   H     H_    0.091940 0.678613 0.157992 0.178923
H24   H     H_    0.910703 0.680260 0.843118 0.181624
H25   H     H_    0.692398 0.217381 0.605662 0.177772
H26   H     H_    0.307491 0.217158 0.394252 0.177606
H27   H     H_    0.192367 0.717397 0.605637 0.177713
H28   H     H_    0.807607 0.717210 0.394337 0.177752
H29   H     H_    0.547370 0.118440 0.566301 0.163889
H30   H     H_    0.452692 0.118397 0.433794 0.163870
H31   H     H_    0.047351 0.618443 0.566276 0.163878
H32   H     H_    0.952786 0.618407 0.433920 0.163808
N1    N     N_R   0.553618 0.264195 0.032773 -0.113453
N2    N     N_R   0.518109 0.264782 0.964119 -0.113206
N3    N     N_R   0.053618 0.764192 0.032774 -0.113466
N4    N     N_R   0.018110 0.764778 0.964121 -0.113218
N5    N     N_R   0.454721 0.223534 0.967372 -0.137647
N6    N     N_R   0.490326 0.222849 0.036129 -0.131678
N7    N     N_R   0.954725 0.723524 0.967371 -0.137640
N8    N     N_R   0.990328 0.722839 0.036128 -0.131672
N9    N     N_R   0.944208 0.254481 0.965486 -0.133685
N10   N     N_R   0.055537 0.254547 0.034533 -0.133660
N11   N     N_R   0.444209 0.753992 0.965471 -0.133655
N12   N     N_R   0.555531 0.755046 0.034523 -0.133719
N13   N     N_R   0.977743 0.254492 0.034209 -0.110899
N14   N     N_R   0.022003 0.254567 0.965813 -0.110874
N15   N     N_R   0.477744 0.753970 0.034194 -0.110936
N16   N     N_R   0.521998 0.755099 0.965802 -0.110843
O1    O     O_R   0.678340 0.230070 0.500020 -0.624340
O2    O     O_R   0.321660 0.230070 0.499980 -0.624260
O3    O     O_R   0.178340 0.730070 0.500020 -0.624349
O4    O     O_R   0.821660 0.730070 0.499980 -0.624256
O5    O     O_R   0.074600 0.454200 0.557500 -0.602978
O6    O     O_R   0.925400 0.454200 0.442500 -0.602863
O7    O     O_R   0.574600 0.954200 0.557500 -0.602976
O8    O     O_R   0.425400 0.954200 0.442500 -0.602854
O9    O     O_R   0.517070 0.045810 0.442480 -0.606952
O10   O     O_R   0.482930 0.045810 0.557520 -0.607073
O11   O     O_R   0.017070 0.545810 0.442480 -0.606932
O12   O     O_R   0.982930 0.545810 0.557520 -0.607083
O13   O     O_R   0.574570 0.045820 0.557490 -0.605986
O14   O     O_R   0.425430 0.045820 0.442510 -0.605831
O15   O     O_R   0.074570 0.545820 0.557490 -0.605986
O16   O     O_R   0.925430 0.545820 0.442510 -0.605819
O17   O     O_R   0.730080 0.178340 0.500000 -0.580439
O18   O     O_R   0.269920 0.178340 0.500000 -0.580278
O19   O     O_R   0.230080 0.678340 0.500000 -0.580402
O20   O     O_R   0.769920 0.678340 0.500000 -0.580299
O21   O     O_R   0.673200 0.275870 0.398140 -0.597483
O22   O     O_R   0.326800 0.275870 0.601860 -0.598034
O23   O     O_R   0.173200 0.775870 0.398140 -0.597474
O24   O     O_R   0.826800 0.775870 0.601860 -0.598023
O25   O     O_R   0.724950 0.224150 0.398130 -0.579044
O26   O     O_R   0.275050 0.224150 0.601870 -0.578301
O27   O     O_R   0.224950 0.724150 0.398130 -0.579048
O28   O     O_R   0.775050 0.724150 0.601870 -0.578300
O29   O     O_R   0.769940 0.321680 0.500000 -0.596717
O30   O     O_R   0.230060 0.321680 0.500000 -0.596390
O31   O     O_R   0.269940 0.821680 0.500000 -0.596669
O32   O     O_R   0.730060 0.821680 0.500000 -0.596445
O33   O     O_R   0.821690 0.269960 0.499980 -0.570029
O34   O     O_R   0.178310 0.269960 0.500020 -0.570259
O35   O     O_R   0.321690 0.769960 0.499980 -0.570086
O36   O     O_R   0.678310 0.769960 0.500020 -0.570200
O37   O     O_R   0.775070 0.275880 0.601870 -0.619906
O38   O     O_R   0.224930 0.275880 0.398130 -0.619791
O39   O     O_R   0.275070 0.775880 0.601870 -0.619805
O40   O     O_R   0.724930 0.775880 0.398130 -0.619900
O41   O     O_R   0.826820 0.224150 0.601850 -0.615708
O42   O     O_R   0.173180 0.224150 0.398150 -0.615865
O43   O     O_R   0.326820 0.724150 0.601850 -0.615792
O44   O     O_R   0.673180 0.724150 0.398150 -0.615768
O45   O     O_R   0.017100 0.454190 0.442490 -0.569120
O46   O     O_R   0.982900 0.454190 0.557510 -0.569125
O47   O     O_R   0.517100 0.954190 0.442490 -0.569116
O48   O     O_R   0.482900 0.954190 0.557510 -0.569128
Zn1   Zn    Zn3+2 0.715460 0.284550 0.500010 1.071326
Zn2   Zn    Zn3+2 0.284540 0.284550 0.499990 1.071257
Zn3   Zn    Zn3+2 0.215460 0.784550 0.500010 1.071421
Zn4   Zn    Zn3+2 0.784540 0.784550 0.499990 1.071215
Zn5   Zn    Zn3+2 0.784560 0.215470 0.499990 1.104048
Zn6   Zn    Zn3+2 0.215440 0.215470 0.500010 1.104439
Zn7   Zn    Zn3+2 0.284560 0.715470 0.499990 1.104010
Zn8   Zn    Zn3+2 0.715440 0.715470 0.500010 1.104489
Zn9   Zn    Zn3+2 0.961620 0.500000 0.423200 1.106969
Zn10  Zn    Zn3+2 0.038380 0.500000 0.576800 1.106657
Zn11  Zn    Zn3+2 0.461620 0.000000 0.423200 1.106951
Zn12  Zn    Zn3+2 0.538380 0.000000 0.576800 1.106672
I1    I     I_    0.592581 0.032181 0.398761 -0.119467
I2    I     I_    0.407778 0.032502 0.601745 -0.119902
I3    I     I_    0.092609 0.532169 0.398798 -0.119435
I4    I     I_    0.907714 0.532470 0.601672 -0.120021
I5    I     I_    0.005930 0.179368 0.865544 -0.180748
I6    I     I_    0.993796 0.179345 0.134348 -0.181484
I7    I     I_    0.506818 0.680247 0.865523 -0.180695
I8    I     I_    0.494715 0.678459 0.134308 -0.181584
Br1   Br    Br    0.906323 0.331896 0.645775 -0.397457
Br2   Br    Br    0.093859 0.331902 0.354145 -0.397831
Br3   Br    Br    0.406336 0.831886 0.645775 -0.397420
Br4   Br    Br    0.593858 0.831900 0.354146 -0.397887
Br5   Br    Br    0.786659 0.280201 0.354305 -0.452044
Br6   Br    Br    0.212811 0.280124 0.645304 -0.450166
Br7   Br    Br    0.286647 0.780210 0.354294 -0.452077
Br8   Br    Br    0.712817 0.780129 0.645309 -0.450151
Br9   Br    Br    0.732352 0.444204 0.231367 -0.339621
Br10  Br    Br    0.267210 0.444105 0.768879 -0.339546
Br11  Br    Br    0.232341 0.944221 0.231381 -0.339640
Br12  Br    Br    0.767216 0.944113 0.768872 -0.339509
I9    I     I_    0.811093 0.497272 0.391071 -0.192736
I10   I     I_    0.189015 0.497226 0.609375 -0.192286
I11   I     I_    0.311098 0.997278 0.391095 -0.192730
I12   I     I_    0.689013 0.997229 0.609363 -0.192291
Br13  Br    Br    0.976108 0.416037 0.656017 -0.311992
Br14  Br    Br    0.023933 0.415922 0.343964 -0.311848
Br15  Br    Br    0.476113 0.916033 0.656018 -0.311917
Br16  Br    Br    0.523929 0.915918 0.343963 -0.311925
I13   I     I_    0.546463 0.343974 0.117046 -0.124950
I14   I     I_    0.444778 0.347390 0.880439 -0.122093
I15   I     I_    0.046451 0.843967 0.117041 -0.124948
I16   I     I_    0.944777 0.847384 0.880444 -0.122080
I17   I     I_    0.641333 0.350728 0.300947 -0.200398
I18   I     I_    0.356610 0.351424 0.696882 -0.202484
I19   I     I_    0.141321 0.850725 0.300941 -0.200362
I20   I     I_    0.856614 0.851422 0.696887 -0.202473
Br17  Br    Br    0.650506 0.121816 0.385404 -0.424394
Br18  Br    Br    0.349834 0.122224 0.614980 -0.423964
Br19  Br    Br    0.150526 0.621804 0.385426 -0.424341
Br20  Br    Br    0.849771 0.622186 0.614921 -0.423917
Br21  Br    Br    0.666067 0.248483 0.695184 -0.402118
Br22  Br    Br    0.333684 0.248074 0.304559 -0.401548
Br23  Br    Br    0.165987 0.748519 0.695098 -0.402492
Br24  Br    Br    0.833986 0.748201 0.304863 -0.401025
I21   I     I_    0.557866 0.182260 0.667693 -0.184826
I22   I     I_    0.441991 0.181981 0.332159 -0.181983
I23   I     I_    0.057788 0.682290 0.667598 -0.184891
I24   I     I_    0.942294 0.682077 0.332518 -0.182153

loop_
_geom_bond_atom_site_label_1
_geom_bond_atom_site_label_2
_ccdc_geom_bond_type
C104  I12   S    
C99   C103  A    
O3    Zn3   S    
C3    O19   A    
C142  C146  A    
C27   H31   S    
C53   C137  S    
C72   H12   S    
O31   Zn3   S    
C86   C110  A    
C154  C158  A    
C119  Br3   S    
C56   C140  S    
C95   C99   A    
C120  Br4   S    
C7    C159  A    
C153  I13   S    
C29   C33   A    
C100  C104  A    
C55   C139  S    
C94   H18   S    
C19   Br23  S    
C149  C153  A    
C146  C150  A    
C140  O12   A    
C152  C156  A    
C70   C74   A    
O10   Zn12  S    
C132  O8    A    
C151  C155  A    
C141  C145  A    
O48   Zn12  S    
C3    C39   S    
N7    N8    A    
C85   Br5   S    
C144  H4    S    
C3    O3    A    
C43   Br19  S    
C143  H3    S    
O34   Zn6   S    
C47   O27   A    
C25   C29   A    
C89   C113  S    
C13   H25   S    
C90   O30   A    
C27   C31   A    
C28   C32   A    
C16   H28   S    
C10   N1    A    
C118  Br2   S    
C62   C66   A    
C126  C129  S    
C98   C102  A    
C1    O1    A    
C17   C21   A    
C19   C23   A    
C13   C33   A    
C103  I11   S    
C68   C72   A    
C96   H20   S    
C78   C134  S    
C130  O46   A    
C63   I7    S    
C134  O42   A    
C18   Br22  S    
C59   H7    S    
C2    O18   A    
O25   Zn5   S    
C139  O15   A    
O46   Zn10  S    
O6    Zn9   S    
C68   C83   S    
C83   N12   A    
C57   C61   A    
C81   N10   A    
C119  C123  A    
C59   C63   A    
C105  C125  A    
C5    C45   S    
C107  C127  A    
C65   C82   S    
C52   I4    S    
N11   N15   A    
C50   I2    S    
C130  O6    A    
C131  O47   A    
C90   C114  S    
C132  O48   A    
N3    N4    A    
C61   C65   A    
C57   H5    S    
N1    N2    A    
C137  O9    A    
C73   C77   A    
C136  O44   A    
C103  C107  A    
C75   C79   A    
C158  I18   S    
O43   Zn7   S    
C17   Br21  S    
C121  Br13  S    
O17   Zn5   S    
O7    Zn12  S    
C24   I24   S    
C123  Br15  S    
C7    C143  A    
C66   C70   A    
C30   C54   A    
C64   C68   A    
C74   H14   S    
C10   C149  S    
C49   C53   A    
C138  O14   A    
C145  H21   S    
C62   I6    S    
C2    C38   S    
O42   Zn6   S    
C83   N15   A    
C52   C56   A    
C85   C93   A    
C4    C40   S    
C87   C95   A    
C24   C28   A    
C110  C114  A    
C51   C55   A    
C148  H24   S    
C44   C52   A    
O35   Zn7   S    
C88   Br8   S    
C6    C158  A    
C9    N5    A    
C87   Br7   S    
C12   N8    A    
C30   C34   A    
C155  C159  A    
C135  O39   A    
C156  C160  A    
C93   H17   S    
C140  O16   A    
C116  C120  A    
C147  C151  A    
C121  C125  A    
C84   N16   A    
C123  C127  A    
C86   Br6   S    
C69   H9    S    
C108  C128  A    
C42   C50   A    
C113  C117  A    
C129  O45   A    
C26   C30   A    
C115  C119  A    
C90   O34   A    
C22   C26   A    
C71   H11   S    
C128  C131  S    
C93   C97   A    
C112  C116  A    
C21   C25   A    
C92   O32   A    
O27   Zn7   S    
C18   C22   A    
C107  C111  A    
C148  C152  A    
C135  O43   A    
C14   C34   A    
C32   C36   A    
C1    C37   S    
C100  Br12  S    
C13   C17   A    
C25   H29   S    
C16   C36   A    
O47   Zn11  S    
C96   C100  A    
C134  O38   A    
C129  O5    A    
N5    N6    A    
C58   H6    S    
O44   Zn8   S    
C139  O11   A    
C40   C44   A    
C154  I14   S    
N9    N13   A    
C28   H32   S    
O33   Zn5   S    
C124  Br16  S    
C133  O37   A    
C58   C62   A    
C88   C96   A    
C21   I21   S    
C133  O41   A    
C82   N14   A    
C101  I9    S    
O19   Zn7   S    
C15   C19   A    
C50   C54   A    
C45   O25   A    
C85   C109  A    
C87   C111  A    
C94   C98   A    
C137  O13   A    
C136  O40   A    
C41   C49   A    
O15   Zn10  S    
C105  C109  A    
O40   Zn4   S    
C60   C80   A    
C69   C73   A    
C122  Br14  S    
C6    C142  A    
O37   Zn1   S    
C72   C76   A    
C124  C128  A    
C46   O22   A    
C9    C150  S    
C146  H22   S    
C75   H15   S    
C89   O29   A    
C76   H16   S    
C11   N4    A    
C59   C79   A    
C9    N2    A    
C131  O7    A    
O4    Zn4   S    
C33   C37   A    
C108  C112  A    
C7    C47   S    
C35   C39   A    
C8    C48   S    
C57   C77   A    
C159  I19   S    
O32   Zn4   S    
C160  I20   S    
C84   N11   A    
O28   Zn8   S    
C5    C157  A    
O29   Zn1   S    
C12   N3    A    
C31   C35   A    
C8    C160  A    
C46   O26   A    
C104  C108  A    
C1    O17   A    
O11   Zn9   S    
C45   O21   A    
C97   Br9   S    
C142  H2    S    
C82   N9    A    
C99   Br11  S    
O2    Zn2   S    
C79   C135  S    
C106  C126  A    
C80   C136  S    
C44   Br20  S    
C70   H10   S    
C66   C81   S    
O14   Zn11  S    
C43   C51   A    
O23   Zn3   S    
C65   C69   A    
C41   Br17  S    
C91   C115  S    
C67   C71   A    
C4    O20   A    
C153  C157  A    
C11   N7    A    
C58   C78   A    
C88   C112  A    
O24   Zn4   S    
C61   I5    S    
C31   C55   A    
C32   C56   A    
C145  C149  A    
O20   Zn8   S    
O21   Zn1   S    
C141  H1    S    
C51   I3    S    
C14   C18   A    
C144  C148  A    
O12   Zn10  S    
C26   H30   S    
C64   I8    S    
C143  C147  A    
C60   H8    S    
C42   Br18  S    
C38   C42   A    
C118  C122  A    
C14   H26   S    
C47   O23   A    
C117  C121  A    
C127  C132  S    
C117  Br1   S    
C86   C94   A    
O1    Zn1   S    
C125  C130  S    
O22   Zn2   S    
O9    Zn11  S    
C22   I22   S    
O30   Zn2   S    
C23   C27   A    
O18   Zn6   S    
C74   C78   A    
C16   C20   A    
C102  I10   S    
C67   C84   S    
C37   C41   A    
C12   C151  S    
C77   C133  S    
C10   N6    A    
C15   C35   A    
C60   C64   A    
C101  C105  A    
C63   C67   A    
C2    O2    A    
C20   C24   A    
C36   C40   A    
O16   Zn9   S    
C39   C43   A    
O45   Zn9   S    
C15   H27   S    
O5    Zn10  S    
C122  C126  A    
O8    Zn11  S    
O38   Zn2   S    
C92   C116  S    
C5    C141  A    
O26   Zn6   S    
C20   Br24  S    
C8    C144  A    
C23   I23   S    
C114  C118  A    
N12   N16   A    
C95   H19   S    
C91   O35   A    
N10   N14   A    
C89   O33   A    
C76   C80   A    
C81   N13   A    
C106  C110  A    
C147  H23   S    
C6    C46   S    
C34   C38   A    
C156  I16   S    
C157  I17   S    
O39   Zn3   S    
C109  C113  A    
C4    O4    A    
O13   Zn12  S    
C71   C75   A    
C92   O36   A    
C54   C138  S    
C29   C53   A    
C48   O28   A    
C102  C106  A    
C73   H13   S    
C48   O24   A    
C120  C124  A    
C11   C152  S    
C155  I15   S    
C138  O10   A    
C150  C154  A    
C91   O31   A    
C111  C115  A    
O41   Zn5   S    
C97   C101  A    
O36   Zn8   S    
C98   Br10  S    
C49   I1    S    
