data_mof_unit_31841.cif
_audit_creation_date              2013-03-05T16:00:37-0500
_audit_creation_method            fapswitch 2.2
_symmetry_space_group_name_H-M    P1
_symmetry_Int_Tables_number       1
_space_group_crystal_system       triclinic
_cell_length_a                    10.73266
_cell_length_b                    14.675281
_cell_length_c                    14.659474
_cell_angle_alpha                 65.053406
_cell_angle_beta                  103.819135
_cell_angle_gamma                 102.592113
_cell_volume                      2014.8076224

loop_
_atom_site_label
_atom_site_type_symbol
_atom_site_description
_atom_site_fract_x
_atom_site_fract_y
_atom_site_fract_z
_atom_type_partial_charge
O1    O     O_R   0.455060 0.022100 0.338110 -0.559248
O2    O     O_R   0.512640 0.160150 0.379180 -0.524224
C1    C     C_R   0.478496 0.119615 0.311562 0.874657
O3    O     O_R   0.288900 0.930980 0.479450 -0.609307
O4    O     O_R   0.346480 0.069030 0.520520 -0.601232
C2    C     C_R   0.259778 0.002605 0.496507 0.787023
Cu1   Cu    Cu3+1 0.465900 0.918260 0.475680 1.032005
Cu2   Cu    Cu3+1 0.534100 0.081740 0.524320 0.988644
O5    O     O_R   0.487360 0.839850 0.620820 -0.538863
O6    O     O_R   0.544940 0.977900 0.661890 -0.628984
O7    O     O_R   0.653520 0.930970 0.479480 -0.528037
O8    O     O_R   0.711100 0.069020 0.520550 -0.559354
C3    C     C_R   0.521160 0.880404 0.688190 0.838993
C4    C     C_R   0.739867 0.000277 0.498941 0.829398
C5    C     C_3   0.033411 0.963091 0.417019 -0.387912
H1    H     H_    0.049770 0.884709 0.434270 0.220269
H2    H     H_    0.056370 0.011850 0.339336 0.188152
C6    C     C_3   0.890311 0.961802 0.418125 -0.397279
H3    H     H_    0.843114 0.009095 0.340981 0.190226
H4    H     H_    0.838449 0.884046 0.433221 0.257353
H5    H     H_    0.112880 0.856194 0.625100 0.181003
C7    C     C_3   0.089881 0.933622 0.604042 -0.347732
C8    C     C_3   0.095814 0.112258 0.469295 -0.429225
C9    C     C_3   0.122259 0.003192 0.496499 -0.024293
H6    H     H_    0.157238 0.142649 0.525723 0.186679
H7    H     H_    0.122909 0.163583 0.393507 0.203150
C10   C     C_3   0.878325 0.000477 0.499155 -0.109455
C11   C     C_3   0.945646 0.931866 0.608534 0.574287
C12   C     C_3   0.952026 0.111419 0.470611 0.258837
H8    H     H_    0.949859 0.138550 0.530489 0.216761
H9    H     H_    0.155322 0.961315 0.661185 0.188450
C13   C     C_R   0.458068 0.187036 0.202268 -0.208718
C14   C     C_R   0.527319 0.813816 0.796829 -0.099421
C15   C     C_R   0.350089 0.223260 0.027401 -0.222660
C16   C     C_R   0.379063 0.153369 0.127127 0.272413
C17   C     C_R   0.512746 0.289428 0.173778 0.296886
C18   C     C_R   0.465528 0.362189 0.077522 -0.001629
C19   C     C_R   0.391332 0.326722 0.002332 0.054105
C20   C     C_R   0.488263 0.468503 0.053754 -0.003538
C21   C     C_R   0.464102 0.536750 0.950793 0.103375
C22   C     C_R   0.397358 0.497980 0.876314 -0.177113
C23   C     C_R   0.358436 0.394922 0.902573 -0.153494
C24   C     C_R   0.526256 0.508177 0.130116 -0.208373
C25   C     C_R   0.551864 0.612005 0.106863 0.419796
C26   C     C_R   0.533209 0.681477 0.003595 -0.070469
C27   C     C_R   0.499812 0.642310 0.925795 -0.001836
C28   C     C_R   0.545742 0.788400 0.974532 0.326735
C29   C     C_R   0.545481 0.853046 0.871671 -0.223840
C30   C     C_R   0.505173 0.709425 0.824464 -0.167970
H10   H     H_    0.302542 0.368460 0.844228 0.147298
H11   H     H_    0.495887 0.681074 0.765837 0.174283
H12   H     H_    0.554773 0.934243 0.849769 0.193082
H13   H     H_    0.292550 0.196536 0.969651 0.189408
H14   H     H_    0.365595 0.546368 0.798183 0.136228
H15   H     H_    0.535297 0.459231 0.209981 0.203115
N1    N     N_R   0.585360 0.204570 0.560800 -0.240500
N2    N     N_R   0.414550 0.795430 0.439160 -0.200593
C31   C     C_R   0.757305 0.318976 0.608382 -0.224053
C32   C     C_R   0.707115 0.222346 0.611804 0.616407
C33   C     C_R   0.507457 0.280121 0.514740 -0.030932
C34   C     C_R   0.554844 0.381696 0.507465 0.008884
C35   C     C_R   0.683553 0.398618 0.555714 -0.018695
C36   C     C_R   0.481556 0.466851 0.456142 -0.123490
C37   C     C_R   0.535020 0.560333 0.468584 -0.099784
C38   C     C_R   0.670854 0.577232 0.499534 0.458729
C39   C     C_R   0.741004 0.495847 0.547829 -0.146733
C40   C     C_R   0.361464 0.465995 0.388738 0.384131
C41   C     C_R   0.290733 0.548374 0.348375 0.451276
C42   C     C_R   0.333465 0.631914 0.377960 -0.054924
C43   C     C_R   0.453648 0.636277 0.442871 -0.174039
C44   C     C_R   0.258551 0.711441 0.343873 -0.226624
C45   C     C_R   0.303566 0.793929 0.371810 0.093360
C46   C     C_R   0.485665 0.716249 0.480679 0.565390
H16   H     H_    0.843311 0.509744 0.576340 0.173343
H17   H     H_    0.247115 0.856171 0.341599 0.167743
H18   H     H_    0.855391 0.331751 0.646499 0.164898
H19   H     H_    0.409470 0.259558 0.483615 0.181803
H20   H     H_    0.165116 0.711491 0.295518 0.171848
O9    O     O_3   0.946413 0.972724 0.680445 -0.721523
H21   H     H_    0.855920 0.968220 0.688375 0.343472
O10   O     O_3   0.603566 0.641260 0.187453 -0.687739
H22   H     H_    0.673275 0.698439 0.165408 0.347911
N3    N     N_R   0.330315 0.048637 0.149262 0.128665
O11   O     O_R   0.409926 0.985454 0.167003 -0.281595
O12   O     O_R   0.206632 0.021980 0.127716 -0.360603
O13   O     O_3   0.620119 0.313499 0.237403 -0.686763
H23   H     H_    0.678129 0.369114 0.194374 0.344199
N4    N     N_R   0.544910 0.832429 0.045293 0.126873
O14   O     O_R   0.614997 0.918849 0.037974 -0.327632
O15   O     O_R   0.457907 0.795913 0.104711 -0.285276
O16   O     O_3   0.581557 0.713588 0.562816 -0.638676
H24   H     H_    0.587014 0.641654 0.608994 0.318505
O17   O     O_3   0.179887 0.544383 0.278478 -0.661461
H25   H     H_    0.175057 0.612878 0.223718 0.336212
O18   O     O_3   0.785749 0.147935 0.665356 -0.726357
H26   H     H_    0.729574 0.082765 0.688019 0.349031
O19   O     O_3   0.740610 0.672702 0.476054 -0.662605
H27   H     H_    0.692377 0.720464 0.414001 0.343205
O20   O     O_3   0.317619 0.393181 0.348376 -0.700578
H28   H     H_    0.393075 0.380935 0.329217 0.317295
N5    N     N_R   0.879755 0.826130 0.642929 0.136990
O21   O     O_R   0.896375 0.763705 0.606244 -0.331121
O22   O     O_R   0.813478 0.790758 0.717276 -0.336544
O23   O     O_3   0.891919 0.180396 0.378028 -0.670875
H29   H     H_    0.911884 0.170220 0.320626 0.341140

loop_
_geom_bond_atom_site_label_1
_geom_bond_atom_site_label_2
_geom_bond_distance
_ccdc_geom_bond_type
C31   C35   1.392451 A    
C5    C6    1.535707 S    
O17   H25   0.989779 S    
C10   C12   1.572717 S    
C22   C23   1.385754 A    
O18   H26   0.982244 S    
Cu2   N1    2.019433 S    
O10   H22   0.990617 S    
C31   H18   1.084859 S    
Cu1   Cu2   2.688486 S    
C26   C27   1.423901 A    
C21   C27   1.417849 A    
C27   C30   1.400683 A    
N5    O21   1.301117 A    
C13   C17   1.407107 A    
C17   C18   1.418256 A    
C18   C19   1.415581 A    
C19   C23   1.392036 A    
C45   H17   1.081397 S    
O4    C2    1.295202 A    
O7    C4    1.297001 A    
C14   C30   1.389687 A    
C5    H1    1.113274 S    
C39   H16   1.084884 S    
C34   C36   1.448869 A    
C15   C16   1.393904 A    
C8    H7    1.113186 S    
N2    C46   1.368010 A    
C42   C44   1.408374 A    
C11   O9    1.413437 S    
O5    C3    1.300641 A    
O1    Cu1   1.943104 S    
C11   N5    1.481225 S    
C28   C29   1.402203 A    
C41   C42   1.417670 A    
C30   H11   1.079040 S    
C8    C9    1.551460 S    
C37   C43   1.435157 A    
C4    C10   1.484634 S    
C34   C35   1.414936 A    
C40   O20   1.376379 S    
N5    O22   1.302093 A    
C7    C11   1.559238 S    
H5    C7    1.112360 S    
C42   C43   1.415055 A    
C32   O18   1.372299 S    
O3    Cu1   1.964729 S    
O23   H29   0.991166 S    
O19   H27   0.991036 S    
C26   C28   1.425899 A    
C36   C40   1.425760 A    
C33   H19   1.074138 S    
C7    H9    1.114378 S    
C35   C39   1.393124 A    
C40   C41   1.403592 A    
C13   C16   1.416570 A    
C46   O16   1.377095 S    
O3    C2    1.291258 A    
C25   O10   1.377945 S    
C20   C21   1.414068 A    
C16   N3    1.432172 S    
O13   H23   0.991677 S    
C6    H3    1.111185 S    
C20   C24   1.409466 A    
C17   O13   1.381924 S    
C31   C32   1.386882 A    
O9    H21   0.990280 S    
C12   O23   1.410819 S    
C33   C34   1.432931 A    
O1    C1    1.297184 A    
Cu1   O7    1.970822 S    
C24   C25   1.391927 A    
C3    C14   1.469935 S    
C12   H8    1.112723 S    
N3    O11   1.301274 A    
Cu2   O8    1.964730 S    
C2    C9    1.477813 S    
C43   C46   1.443794 A    
C23   H10   1.084317 S    
C24   H15   1.078341 S    
C21   C22   1.414778 A    
N3    O12   1.300932 A    
N4    O15   1.301691 A    
C7    C9    1.548488 S    
C8    C12   1.545255 S    
O16   H24   0.990600 S    
C25   C26   1.418998 A    
Cu1   O5    1.928819 S    
C5    C9    1.554385 S    
C15   C19   1.396544 A    
O2    Cu2   1.928819 S    
C6    C10   1.556681 S    
O8    C4    1.290541 A    
O6    C3    1.297457 A    
O4    Cu2   1.970822 S    
C5    H2    1.113281 S    
C41   O17   1.380787 S    
N1    C32   1.372538 A    
C28   N4    1.437336 S    
O2    C1    1.303659 A    
C38   O19   1.378715 S    
C44   C45   1.391118 A    
C18   C20   1.425196 A    
O20   H28   0.990817 S    
C37   C38   1.419155 A    
C6    H4    1.108944 S    
C8    H6    1.113675 S    
N2    C45   1.356179 A    
C1    C13   1.477696 S    
C22   H14   1.079475 S    
C36   C37   1.436104 A    
N1    C33   1.373780 A    
C29   H12   1.083357 S    
N4    O14   1.301381 A    
C15   H13   1.084706 S    
Cu2   O6    1.943104 S    
C38   C39   1.385176 A    
C10   C11   1.583907 S    
C14   C29   1.398184 A    
Cu1   N2    2.019785 S    
C44   H20   1.080924 S    
