data_mof_unit_38634.cif
_audit_creation_date              2012-12-10T19:09:35-0500
_audit_creation_method            fapswitch 2.2
_symmetry_space_group_name_H-M    P1
_symmetry_Int_Tables_number       1
_space_group_crystal_system       triclinic
_cell_length_a                    9.536177
_cell_length_b                    10.868384
_cell_length_c                    17.102865
_cell_angle_alpha                 89.121114
_cell_angle_beta                  93.917566
_cell_angle_gamma                 88.823603
_cell_volume                      1767.82571707

loop_
_atom_site_label
_atom_site_type_symbol
_atom_type_description
_atom_site_fract_x
_atom_site_fract_y
_atom_site_fract_z
_atom_type_partial_charge
C1    C     C_R   0.501340 0.262325 0.501586 0.812298
C2    C     C_R   0.658392 0.486042 0.779178 -0.231579
C3    C     C_R   0.579441 0.458344 0.141781 -0.154452
C4    C     C_R   0.585790 0.455128 0.223255 -0.239009
C5    C     C_R   0.459322 0.508161 0.098945 0.381713
C6    C     C_R   0.473231 0.501539 0.263296 -0.025589
C7    C     C_R   0.353056 0.549288 0.220651 -0.227185
C8    C     C_R   0.346188 0.552031 0.139062 -0.191746
C9    C     C_R   0.619848 0.059283 0.534758 -0.006414
C10   C     C_R   0.500746 0.129242 0.508647 -0.103182
C11   C     C_R   0.372349 0.069521 0.496288 -0.231044
C12   C     C_R   0.517513 0.498684 0.650902 0.790595
C13   C     C_R   0.367238 0.941713 0.497012 -0.020406
C14   C     C_R   0.493641 0.870952 0.511652 -0.174170
C15   C     C_R   0.615541 0.932407 0.538048 -0.037527
C16   C     C_3   0.765629 0.917189 0.516366 0.283941
C17   C     C_3   0.767693 0.058425 0.510478 -0.259527
C18   C     C_R   0.065547 0.574545 0.449133 0.323594
C19   C     C_R   0.082736 0.437808 0.556176 -0.071051
C20   C     C_R   0.933744 0.439039 0.556624 -0.093069
C21   C     C_R   0.918231 0.574500 0.449076 0.291097
C22   C     C_3   0.901931 0.572236 0.361901 -0.505912
C23   C     C_R   0.498411 0.737806 0.502146 0.779734
C24   C     C_3   0.060641 0.573179 0.361949 -0.526429
C25   C     C_R   0.482594 0.501194 0.349139 0.796519
C26   C     C_R   0.527332 0.498215 0.736809 -0.028762
C27   C     C_R   0.404729 0.509483 0.777194 -0.234965
C28   C     C_R   0.412703 0.508385 0.858585 -0.157610
C29   C     C_R   0.544317 0.495910 0.901288 0.387864
C30   C     C_R   0.666373 0.484678 0.860854 -0.193931
Cu1   Cu    Cu3+1 0.640670 0.499980 0.500000 0.933679
Cu2   Cu    Cu3+1 0.359330 0.500020 0.500000 0.954114
H1    H     H_    0.678010 0.414804 0.254813 0.146347
H2    H     H_    0.774584 0.872945 0.458668 0.108405
H3    H     H_    0.776646 0.095161 0.450031 0.113448
H4    H     H_    0.145120 0.384837 0.600445 0.156500
H5    H     H_    0.884088 0.389325 0.601949 0.162489
H6    H     H_    0.857974 0.484704 0.339720 0.211088
H7    H     H_    0.849862 0.657514 0.336344 0.201112
H8    H     H_    0.105388 0.486771 0.339006 0.216002
H9    H     H_    0.667928 0.421210 0.112686 0.151750
H10   H     H_    0.100238 0.659885 0.337170 0.201520
H11   H     H_    0.768060 0.474803 0.892873 0.138932
H12   H     H_    0.754603 0.477235 0.749342 0.155890
H13   H     H_    0.265683 0.586699 0.250157 0.150790
H14   H     H_    0.315699 0.516483 0.887683 0.151146
H15   H     H_    0.253003 0.589872 0.106858 0.140390
H16   H     H_    0.302259 0.519082 0.745988 0.159718
H17   H     H_    0.276015 0.122083 0.481269 0.169735
N1    N     N_2   0.558318 0.491926 0.984390 -0.267499
N2    N     N_2   0.446678 0.514016 0.015947 -0.269092
N3    N     N_R   0.147870 0.500930 0.499500 -0.198472
N4    N     N_R   0.851960 0.500890 0.499500 -0.200481
O1    O     O_R   0.618810 0.319640 0.500000 -0.579995
O2    O     O_R   0.381230 0.319680 0.499990 -0.583201
O3    O     O_R   0.631790 0.498830 0.613930 -0.602787
O4    O     O_R   0.394210 0.498870 0.613920 -0.586884
O5    O     O_R   0.618770 0.680320 0.500010 -0.595518
O6    O     O_R   0.381190 0.680360 0.500000 -0.563561
O7    O     O_R   0.605790 0.501130 0.386080 -0.584805
O8    O     O_R   0.368210 0.501170 0.386070 -0.585712
C31   C     C_1   0.231710 0.889716 0.476479 0.290210
N5    N     N_1   0.122249 0.849987 0.459962 -0.291287
O9    O     O_3   0.869388 0.869882 0.574160 -0.584433
C32   C     C_3   0.817995 0.799783 0.636196 0.122439
H18   H     H_    0.896057 0.724483 0.651548 0.153501
H19   H     H_    0.717683 0.754025 0.621066 0.156426
C33   C     C_3   0.804924 0.879788 0.708322 -0.367974
H20   H     H_    0.909073 0.918464 0.726114 0.239261
H21   H     H_    0.729664 0.957502 0.693997 0.227463
C34   C     C_3   0.753448 0.805396 0.776719 -0.906105
H22   H     H_    0.647755 0.768447 0.760710 0.263860
H23   H     H_    0.745959 0.865517 0.828230 0.263973
H24   H     H_    0.827977 0.727880 0.793050 0.254605
C35   C     C_1   0.864539 0.115091 0.569618 0.380503
N6    N     N_1   0.941598 0.157079 0.616603 -0.341283

loop_
_geom_bond_atom_site_label_1
_geom_bond_atom_site_label_2
_ccdc_geom_bond_type
C27   H16   S    
Cu1   O7    S    
C23   O5    A    
C18   C21   A    
C24   H10   S    
C19   C20   A    
C35   N6    T    
C18   N3    A    
C7    C8    A    
C23   O6    A    
C28   H14   S    
C26   C27   A    
C29   C30   A    
C18   C24   S    
C7    H13   S    
Cu1   O5    S    
C28   C29   A    
Cu2   O8    S    
C19   H4    S    
C6    C25   S    
C15   C16   S    
C22   H6    S    
Cu2   N3    S    
C16   H2    S    
C19   N3    A    
C13   C31   S    
C2    H12   S    
C16   C17   S    
C32   H19   S    
C25   O7    A    
Cu1   O3    S    
C9    C10   A    
Cu2   O2    S    
C13   C14   A    
Cu2   O4    S    
C29   N1    S    
C4    C6    A    
C34   H23   S    
C33   H20   S    
C12   C26   S    
C14   C23   S    
C1    O1    A    
C31   N5    T    
C11   H17   S    
C5    C8    A    
Cu1   Cu2   S    
C32   C33   S    
N1    N2    D    
C2    C26   A    
C25   O8    A    
Cu1   N4    S    
C12   O3    A    
C12   O4    A    
C9    C17   S    
C22   C24   S    
C30   H11   S    
C3    C4    A    
C4    H1    S    
C3    H9    S    
C1    C10   S    
C20   N4    A    
C3    C5    A    
C34   H24   S    
C6    C7    A    
C17   H3    S    
C2    C30   A    
O9    C32   S    
C1    O2    A    
C8    H15   S    
C34   H22   S    
C21   N4    A    
C20   H5    S    
C11   C13   A    
C33   C34   S    
C22   H7    S    
C24   H8    S    
Cu1   O1    S    
C9    C15   A    
C10   C11   A    
C33   H21   S    
C32   H18   S    
C27   C28   A    
C17   C35   S    
C14   C15   A    
C5    N2    S    
C16   O9    S    
Cu2   O6    S    
C21   C22   S    
