data_mof_unit_9943.cif
_audit_creation_date              2013-03-05T16:34:33-0500
_audit_creation_method            fapswitch 2.2
_symmetry_space_group_name_H-M    P1
_symmetry_Int_Tables_number       1
_space_group_crystal_system       triclinic
_cell_length_a                    14.939497
_cell_length_b                    14.21415
_cell_length_c                    10.960462
_cell_angle_alpha                 90.451625
_cell_angle_beta                  90.058596
_cell_angle_gamma                 89.812299
_cell_volume                      2327.39283092

loop_
_atom_site_label
_atom_site_type_symbol
_atom_site_description
_atom_site_fract_x
_atom_site_fract_y
_atom_site_fract_z
_atom_type_partial_charge
O1    O     O_R   0.369060 0.579480 0.500010 -0.538948
O2    O     O_R   0.630940 0.579480 0.499990 -0.551193
O3    O     O_R   0.369050 0.420520 0.500010 -0.639539
O4    O     O_R   0.630950 0.420520 0.499990 -0.604060
C1    C     C_R   0.327775 0.499865 0.505272 0.894241
C2    C     C_R   0.672414 0.499566 0.497333 0.932260
O5    O     O_R   0.499990 0.579490 0.316780 -0.576642
O6    O     O_R   0.500010 0.579490 0.683220 -0.570901
O7    O     O_R   0.499980 0.420540 0.316780 -0.609061
O8    O     O_R   0.500020 0.420540 0.683220 -0.608971
C3    C     C_R   0.507054 0.500094 0.260551 0.956288
C4    C     C_R   0.500926 0.500150 0.739982 0.962055
Zn1   Zn    Zn3+2 0.500000 0.606140 0.500000 1.089808
Zn2   Zn    Zn3+2 0.500000 0.393860 0.500000 1.017553
C5    C     C_R   0.505431 0.582717 0.062630 -0.221664
C6    C     C_R   0.489627 0.578905 0.940884 -0.211101
C7    C     C_R   0.519502 0.500856 0.129334 -0.235098
C8    C     C_R   0.507707 0.499006 0.871484 -0.258049
C9    C     C_R   0.540869 0.417761 0.062640 0.243168
C10   C     C_R   0.539160 0.418129 0.933892 0.209937
C11   C     C_3   0.459501 0.679910 0.933935 0.815119
C12   C     C_3   0.495793 0.689438 0.066896 0.803242
C13   C     C_R   0.092976 0.559382 0.600182 -0.264667
C14   C     C_R   0.913343 0.564967 0.460565 -0.248248
H1    H     H_    0.055373 0.611173 0.652311 0.184206
H2    H     H_    0.955286 0.617471 0.418044 0.184224
C15   C     C_R   0.185858 0.563549 0.595839 0.268638
C16   C     C_R   0.821291 0.566797 0.442880 0.315523
C17   C     C_R   0.231923 0.497368 0.521418 -0.155957
C18   C     C_R   0.768977 0.496958 0.499529 -0.168836
C19   C     C_R   0.185476 0.424903 0.461678 -0.242564
C20   C     C_R   0.809620 0.424384 0.566009 -0.196588
H3    H     H_    0.220178 0.373248 0.405724 0.182453
H4    H     H_    0.770270 0.370273 0.609498 0.222354
C21   C     C_R   0.093562 0.420483 0.469565 -0.147340
C22   C     C_R   0.901345 0.421986 0.579449 -0.154881
H5    H     H_    0.057726 0.366439 0.419370 0.162360
H6    H     H_    0.932531 0.365658 0.630432 0.166228
C23   C     C_R   0.047890 0.488955 0.536347 0.074365
C24   C     C_R   0.952379 0.492910 0.528035 0.057203
C25   C     C_R   0.464445 0.107112 0.603963 0.417707
C26   C     C_R   0.535211 0.103080 0.404011 0.382959
C27   C     C_R   0.465115 0.207106 0.597801 -0.095214
C28   C     C_R   0.535137 0.202652 0.405161 -0.110838
H7    H     H_    0.439066 0.249733 0.671365 0.163898
H8    H     H_    0.562020 0.240811 0.330005 0.219381
N1    N     N_R   0.500000 0.252470 0.500000 -0.136192
C29   C     C_R   0.500156 0.054637 0.504972 0.129139
C30   C     C_R   0.581060 0.896702 0.507573 0.089940
C31   C     C_R   0.419350 0.897792 0.504539 0.083474
C32   C     C_R   0.579135 0.796655 0.511323 0.438184
C33   C     C_R   0.420404 0.797464 0.497535 0.384682
N2    N     N_R   0.500000 0.747550 0.500000 -0.196225
C34   C     C_R   0.500234 0.948294 0.505395 -0.140150
N3    N     N_R   0.573213 0.335875 0.123386 0.216813
O9    O     O_R   0.530920 0.256490 0.111374 -0.381517
O10   O     O_R   0.649833 0.338501 0.179852 -0.418672
N4    N     N_R   0.578538 0.340565 0.868430 0.248831
O11   O     O_R   0.652840 0.352369 0.808774 -0.395027
O12   O     O_R   0.540560 0.258406 0.867897 -0.353056
N5    N     N_R   0.665803 0.944629 0.514459 0.215047
O13   O     O_R   0.735334 0.911019 0.457280 -0.322519
O14   O     O_R   0.676153 0.016722 0.586972 -0.410896
N6    N     N_R   0.335298 0.947490 0.510808 0.229358
O15   O     O_R   0.271769 0.918066 0.581912 -0.334329
O16   O     O_R   0.318925 0.016876 0.437220 -0.423213
O17   O     O_3   0.658819 0.749174 0.529618 -0.505178
C35   C     C_3   0.679692 0.751329 0.655655 0.146124
H9    H     H_    0.633967 0.704215 0.705755 0.186120
H10   H     H_    0.675723 0.823567 0.694411 0.153861
C36   C     C_3   0.775020 0.717441 0.677162 -0.763291
H11   H     H_    0.795681 0.735040 0.771970 0.199086
H12   H     H_    0.778924 0.640111 0.666299 0.224962
H13   H     H_    0.821760 0.751884 0.612853 0.305571
O18   O     O_3   0.339399 0.750448 0.500261 -0.495961
C37   C     C_3   0.297269 0.757782 0.385188 0.151397
H14   H     H_    0.327859 0.706256 0.321224 0.185710
H15   H     H_    0.301897 0.829889 0.348549 0.160868
C38   C     C_3   0.197584 0.736897 0.392726 -0.739220
H16   H     H_    0.167100 0.772667 0.472827 0.318715
H17   H     H_    0.163518 0.762875 0.309361 0.196799
H18   H     H_    0.186258 0.660229 0.396064 0.217557
O19   O     O_3   0.509246 0.730997 0.846430 -0.678622
C39   C     C_3   0.476281 0.823570 0.828324 0.167213
H19   H     H_    0.417106 0.842428 0.882676 0.166189
H20   H     H_    0.454435 0.829371 0.732603 0.185213
C40   C     C_3   0.548719 0.896902 0.853293 -0.853566
H21   H     H_    0.607601 0.864964 0.897932 0.269770
H22   H     H_    0.570374 0.930004 0.767103 0.272581
H23   H     H_    0.522669 0.953703 0.913682 0.255388
O20   O     O_3   0.430419 0.722781 0.150187 -0.672598
C41   C     C_3   0.422003 0.822656 0.147363 0.145618
H24   H     H_    0.468320 0.859125 0.084464 0.177656
H25   H     H_    0.438653 0.850078 0.239610 0.167740
C42   C     C_3   0.326138 0.852427 0.115447 -0.911399
H26   H     H_    0.315428 0.857416 0.016238 0.262416
H27   H     H_    0.276775 0.801037 0.149120 0.260284
H28   H     H_    0.311586 0.922714 0.155863 0.255165
O21   O     O_3   0.363810 0.691048 0.921146 -0.585839
C43   C     C_3   0.310478 0.621070 0.979189 0.157326
H29   H     H_    0.329110 0.610565 0.075902 0.141862
H30   H     H_    0.317180 0.552174 0.931289 0.151985
C44   C     C_3   0.211828 0.649471 0.977501 -0.719695
H31   H     H_    0.178192 0.620311 0.895443 0.260380
H32   H     H_    0.177265 0.620626 0.058728 0.179872
H33   H     H_    0.203987 0.727114 0.978175 0.276276
O22   O     O_3   0.579052 0.739505 0.080548 -0.630095
C45   C     C_3   0.656197 0.693882 0.032118 0.101199
H34   H     H_    0.650281 0.681062 0.932611 0.150986
H35   H     H_    0.668752 0.625754 0.077663 0.210676
C46   C     C_3   0.737982 0.755375 0.053901 -0.726092
H36   H     H_    0.743225 0.774257 0.151943 0.320118
H37   H     H_    0.799406 0.716677 0.025941 0.214194
H38   H     H_    0.733481 0.820991 0.000273 0.220604
N7    N     N_R   0.231244 0.635522 0.664600 0.232937
O23   O     O_R   0.309398 0.619078 0.711645 -0.353020
O24   O     O_R   0.190422 0.713718 0.693012 -0.368494
N8    N     N_R   0.783064 0.637600 0.365660 0.238792
O25   O     O_R   0.716747 0.616968 0.293566 -0.405041
O26   O     O_R   0.822202 0.718736 0.354469 -0.370229
O27   O     O_3   0.436630 0.058337 0.707085 -0.603101
C47   C     C_3   0.361493 0.100531 0.763963 0.144019
H39   H     H_    0.308951 0.119049 0.695884 0.164564
H40   H     H_    0.381727 0.163997 0.816769 0.171710
C48   C     C_3   0.321421 0.032078 0.854680 -0.758124
H41   H     H_    0.370065 0.017925 0.928969 0.243337
H42   H     H_    0.259850 0.062911 0.895431 0.217194
H43   H     H_    0.304026 0.964824 0.808642 0.288769
O28   O     O_3   0.558994 0.051690 0.300696 -0.607339
C49   C     C_3   0.646057 0.074869 0.261155 0.137530
H44   H     H_    0.694037 0.080699 0.338736 0.184716
H45   H     H_    0.645414 0.141924 0.210200 0.212589
C50   C     C_3   0.679071 0.997933 0.174894 -0.701485
H46   H     H_    0.635083 0.993923 0.093290 0.253419
H47   H     H_    0.748478 0.013355 0.145157 0.217420
H48   H     H_    0.678180 0.928949 0.221610 0.285434

loop_
_geom_bond_atom_site_label_1
_geom_bond_atom_site_label_2
_geom_bond_distance
_ccdc_geom_bond_type
C12   O20   1.415580 S    
N3    O9    1.300750 A    
C6    C11   1.505666 S    
C15   C17   1.417284 A    
C31   N6    1.440176 S    
C49   H45   1.108503 S    
C42   H26   1.101724 S    
C39   C40   1.528011 S    
O18   C37   1.413428 S    
C33   O18   1.384820 S    
C38   H18   1.104267 S    
C42   H28   1.110604 S    
C29   C34   1.511614 S    
C31   C34   1.407515 A    
O1    C1    1.292304 A    
C20   C22   1.378403 A    
C21   H5    1.083896 S    
C14   H2    1.084402 S    
C11   O21   1.444594 S    
N4    O12   1.299999 A    
C30   C34   1.410953 A    
C45   H34   1.107828 S    
C25   O27   1.394996 S    
N5    O14   1.301397 A    
O2    Zn1   1.991325 S    
N8    O25   1.299472 A    
C41   H24   1.109841 S    
C14   C24   1.393965 A    
C44   H32   1.111486 S    
C5    C12   1.523653 S    
O21   C43   1.430086 S    
C35   H9    1.107349 S    
C30   C32   1.423392 A    
C50   H48   1.109879 S    
C31   C33   1.427572 A    
O22   C45   1.421802 S    
C19   H3    1.083990 S    
C13   C15   1.389954 A    
C26   O28   1.388596 S    
C1    C17   1.443647 S    
C28   N1    1.358158 A    
C11   C12   1.559428 S    
C50   H47   1.110291 S    
C25   C27   1.423542 A    
C12   O22   1.442138 S    
O2    C2    1.292264 A    
C26   C28   1.415272 A    
C41   H25   1.109048 S    
C28   H8    1.069197 S    
O5    C3    1.285675 A    
Zn1   N2    2.010024 S    
C30   N5    1.441255 S    
O17   C35   1.415984 S    
C11   O19   1.419659 S    
C22   C24   1.389259 A    
C39   H19   1.097855 S    
O4    C2    1.285342 A    
O8    Zn2   2.040729 S    
O20   C41   1.425357 S    
C38   H17   1.110581 S    
C32   O17   1.381744 S    
N7    O24   1.301844 A    
N4    O11   1.300869 A    
C41   C42   1.532938 S    
C32   N2    1.379863 A    
N6    O16   1.301399 A    
C43   C44   1.526927 S    
C21   C23   1.390692 A    
O7    Zn2   2.046605 S    
C48   H43   1.108939 S    
O7    C3    1.296758 A    
O19   C39   1.418810 S    
O6    C4    1.292293 A    
C43   H30   1.111771 S    
C46   H37   1.110477 S    
C26   C29   1.410134 A    
C37   H14   1.107761 S    
C27   H7    1.077066 S    
O27   C47   1.414032 S    
O3    Zn2   1.991474 S    
O8    C4    1.287130 A    
C35   H10   1.109529 S    
C2    C18   1.443137 S    
N3    O10   1.301214 A    
C50   H46   1.110546 S    
C19   C21   1.377623 A    
C49   C50   1.521251 S    
O1    Zn1   1.993763 S    
C46   H38   1.108178 S    
C10   N4    1.435459 S    
C22   H6    1.083726 S    
C23   C24   1.430642 S    
C47   H40   1.110584 S    
C33   N2    1.383052 A    
C36   H12   1.106042 S    
O28   C49   1.412216 S    
C9    N3    1.428080 S    
C5    C7    1.394318 A    
C3    C7    1.450488 S    
C46   H36   1.108292 S    
C14   C16   1.388797 A    
C37   H15   1.106137 S    
O3    C1    1.284533 A    
C36   H13   1.110307 S    
C42   H27   1.105425 S    
Zn2   N1    2.009739 S    
C45   C46   1.522156 S    
N6    O15   1.300889 A    
C9    C10   1.411397 A    
C40   H22   1.107742 S    
C49   H44   1.114340 S    
C36   H11   1.110582 S    
C17   C19   1.401536 A    
C16   N8    1.436666 S    
C18   C20   1.403783 A    
N7    O23   1.297166 A    
C48   H41   1.109949 S    
C47   C48   1.521201 S    
C35   C36   1.520668 S    
C13   C23   1.392041 A    
C16   C18   1.413356 A    
C43   H29   1.106820 S    
C7    C9    1.419761 A    
C25   C29   1.415633 A    
C45   H35   1.108320 S    
C44   H33   1.109419 S    
C8    C10   1.420726 A    
C13   H1    1.084105 S    
O4    Zn2   1.993910 S    
N5    O13   1.301301 A    
N8    O26   1.301455 A    
C38   H16   1.108595 S    
O6    Zn1   2.046522 S    
O5    Zn1   2.040655 S    
C37   C38   1.521956 S    
C40   H21   1.104217 S    
C6    C8    1.387858 A    
C40   H23   1.109709 S    
C4    C8    1.444988 S    
C44   H31   1.108053 S    
C48   H42   1.110319 S    
C39   H20   1.102044 S    
C47   H39   1.114793 S    
C27   N1    1.360401 A    
C5    C6    1.355574 A    
C20   H4    1.083360 S    
C15   N7    1.437254 S    
