data_mof_unit_35807.cif
_audit_creation_date              2012-12-11T16:50:52-0500
_audit_creation_method            fapswitch 2.2
_symmetry_space_group_name_H-M    P1
_symmetry_Int_Tables_number       1
_space_group_crystal_system       triclinic
_cell_length_a                    6.929839
_cell_length_b                    28.779724
_cell_length_c                    32.136659
_cell_angle_alpha                 100.843631
_cell_angle_beta                  89.665625
_cell_angle_gamma                 90.407285
_cell_volume                      6294.63068507

loop_
_atom_site_label
_atom_site_type_symbol
_atom_type_description
_atom_site_fract_x
_atom_site_fract_y
_atom_site_fract_z
_atom_type_partial_charge
O1    O     O_R   0.494350 0.453170 0.452520 -0.541578
O2    O     O_R   0.820980 0.455850 0.538220 -0.538694
O3    O     O_R   0.994300 0.546830 0.547480 -0.520985
C1    C     C_R   0.651545 0.446092 0.551954 0.785050
O4    O     O_R   0.823860 0.447590 0.452270 -0.544807
O5    O     O_R   0.997200 0.538510 0.460920 -0.543121
C2    C     C_R   0.655182 0.435037 0.436671 0.669532
O6    O     O_R   0.491440 0.461490 0.539080 -0.513012
O7    O     O_3   0.661790 0.529840 0.502940 -0.365092
V1    V     V_3+5 0.935470 0.494460 0.499450 1.468430
O8    O     O_R   0.327090 0.544150 0.461780 -0.543950
C3    C     C_R   0.158867 0.554157 0.448271 0.714447
O9    O     O_R   0.324210 0.552410 0.547730 -0.521790
C4    C     C_R   0.155426 0.565219 0.563484 0.790465
V2    V     V_3+5 0.435840 0.505540 0.500550 1.484343
O10   O     O_3   0.159650 0.470160 0.497060 -0.368412
C5    C     C_R   0.215856 0.886792 0.875803 -0.193643
H1    H     H_    0.339395 0.909952 0.883793 0.188068
C6    C     C_R   0.227880 0.850920 0.840006 -0.187095
H2    H     H_    0.359607 0.847568 0.821374 0.184068
C7    C     C_R   0.070935 0.820539 0.827446 -0.045642
C8    C     C_R   0.901923 0.825266 0.853013 0.456933
C9    C     C_R   0.888517 0.862128 0.888786 0.371222
C10   C     C_R   0.045663 0.893840 0.900122 -0.235570
C11   C     C_R   0.947757 0.780125 0.755315 0.253078
C12   C     C_R   0.965071 0.744406 0.719106 -0.260949
H3    H     H_    0.855916 0.741179 0.694686 0.131054
C13   C     C_R   0.122353 0.713372 0.713880 0.028708
C14   C     C_R   0.264699 0.718269 0.745805 0.203592
C15   C     C_R   0.245452 0.753392 0.782238 -0.220496
H4    H     H_    0.353640 0.756113 0.806808 0.177849
C16   C     C_R   0.087222 0.784307 0.787706 0.062730
C17   C     C_R   0.277685 0.675918 0.645159 -0.198778
H5    H     H_    0.383924 0.704207 0.649579 0.120860
C18   C     C_R   0.286144 0.640438 0.608565 0.133297
C19   C     C_R   0.146369 0.603612 0.601853 -0.063158
C20   C     C_R   0.998805 0.603634 0.632573 0.136552
C21   C     C_R   0.992201 0.639679 0.668745 -0.210606
H6    H     H_    0.878754 0.639203 0.692031 0.131249
C22   C     C_R   0.132063 0.675605 0.675475 0.055885
C23   C     C_R   0.181938 0.659274 0.284413 0.636125
N1    N     N_R   0.119848 0.675516 0.325035 -0.552278
C24   C     C_R   0.044860 0.720057 0.336729 0.601223
C25   C     C_R   0.029883 0.750561 0.306912 -0.015536
C26   C     C_R   0.096219 0.734173 0.264987 -0.069175
C27   C     C_R   0.173242 0.688351 0.253809 -0.086512
C28   C     C_R   0.950960 0.796654 0.317402 0.197982
C29   C     C_R   0.940953 0.825261 0.286633 -0.202550
C30   C     C_R   0.008068 0.809313 0.245178 -0.025169
C31   C     C_R   0.085963 0.763589 0.234144 -0.075283
C32   C     C_R   0.153530 0.747315 0.192339 -0.115643
C33   C     C_R   0.227830 0.700832 0.181452 0.467545
C34   C     C_R   0.239826 0.672373 0.212312 -0.220120
C35   C     C_R   0.999243 0.838325 0.214476 0.585220
N2    N     N_R   0.066406 0.822485 0.174151 -0.564812
C36   C     C_R   0.142703 0.778029 0.162694 0.604385
O11   O     O_2   0.251488 0.614965 0.273567 -0.524172
O12   O     O_2   0.983835 0.734416 0.376984 -0.496187
H7    H     H_    0.880063 0.860320 0.295589 0.170516
O13   O     O_2   0.925827 0.882294 0.225030 -0.522631
O14   O     O_2   0.206285 0.763600 0.122637 -0.493783
H8    H     H_    0.302331 0.637497 0.203417 0.180968
C37   C     C_R   0.878790 0.866062 0.128653 -0.084725
H9    H     H_    0.746259 0.852892 0.140321 0.123136
C38   C     C_R   0.870169 0.895822 0.098828 -0.201644
H10   H     H_    0.730024 0.905101 0.088239 0.125944
C39   C     C_R   0.040352 0.913448 0.083059 -0.056385
C40   C     C_R   0.219162 0.900301 0.097879 -0.203507
H11   H     H_    0.353185 0.913139 0.086596 0.127221
C41   C     C_R   0.227422 0.870460 0.127601 -0.085957
H12   H     H_    0.366412 0.860977 0.138643 0.120323
C42   C     C_R   0.057432 0.853150 0.143302 0.372122
C43   C     C_R   0.269438 0.652952 0.387981 -0.199102
H13   H     H_    0.370488 0.682087 0.389582 0.151240
C44   C     C_R   0.281019 0.623193 0.417763 -0.211360
H14   H     H_    0.390955 0.629954 0.442007 0.148442
C45   C     C_R   0.149723 0.585555 0.416645 -0.102887
C46   C     C_R   0.008635 0.577837 0.384806 -0.278161
H15   H     H_    0.908571 0.548416 0.382894 0.138200
C47   C     C_R   0.997952 0.607250 0.354533 0.515208
C48   C     C_R   0.129930 0.644896 0.355877 0.285832
C49   C     C_R   0.638649 0.222381 0.836965 0.569747
N3    N     N_R   0.580250 0.176230 0.825048 -0.566389
C50   C     C_R   0.530899 0.158089 0.783878 0.607972
C51   C     C_R   0.539507 0.186715 0.752508 -0.127669
C52   C     C_R   0.597967 0.234474 0.764658 -0.074962
C53   C     C_R   0.648160 0.252418 0.807133 -0.000748
C54   C     C_R   0.493375 0.169135 0.709449 0.469014
C55   C     C_R   0.499246 0.199502 0.679963 -0.222980
C56   C     C_R   0.556908 0.246939 0.691913 -0.106643
C57   C     C_R   0.606256 0.264512 0.734362 -0.016783
C58   C     C_R   0.663363 0.312215 0.746612 -0.011861
C59   C     C_R   0.713358 0.329511 0.789026 -0.150035
C60   C     C_R   0.706059 0.299988 0.818883 -0.140910
C61   C     C_R   0.566268 0.277363 0.662312 0.643570
N4    N     N_R   0.620641 0.323811 0.674745 -0.531191
C62   C     C_R   0.669127 0.341483 0.716039 0.566283
O15   O     O_2   0.685676 0.239333 0.877702 -0.522200
O16   O     O_2   0.475109 0.112411 0.773432 -0.488677
H16   H     H_    0.457931 0.185539 0.647539 0.183164
O17   O     O_2   0.521209 0.260612 0.621434 -0.515885
O18   O     O_2   0.724358 0.387133 0.727450 -0.533821
H17   H     H_    0.758202 0.365968 0.799338 0.167113
H18   H     H_    0.745540 0.314657 0.851274 0.168673
C63   C     C_R   0.494077 0.391034 0.645781 -0.296828
H19   H     H_    0.383242 0.395504 0.670063 0.154108
C64   C     C_R   0.498748 0.421187 0.615990 0.427412
C65   C     C_R   0.640838 0.414708 0.583702 -0.198773
C66   C     C_R   0.776735 0.378419 0.582358 -0.342643
H20   H     H_    0.885416 0.372648 0.557580 0.166759
C67   C     C_R   0.771435 0.348463 0.612216 0.524641
C68   C     C_R   0.628427 0.354512 0.643947 0.233405
C69   C     C_R   0.739161 0.131939 0.874089 -0.086024
H21   H     H_    0.878546 0.143590 0.864456 0.117574
C70   C     C_R   0.729384 0.102264 0.903974 -0.196323
H22   H     H_    0.862571 0.091743 0.916909 0.129125
C71   C     C_R   0.549878 0.086401 0.916904 -0.060257
C72   C     C_R   0.380661 0.101118 0.899151 -0.194878
H23   H     H_    0.240051 0.089598 0.908188 0.127886
C73   C     C_R   0.390867 0.130606 0.869145 -0.083339
H24   H     H_    0.259139 0.141372 0.855784 0.119017
C74   C     C_R   0.570065 0.146201 0.856356 0.375126
C75   C     C_R   0.702436 0.132507 0.109922 -0.185032
H25   H     H_    0.818532 0.129382 0.086863 0.138162
C76   C     C_R   0.713481 0.168273 0.145936 -0.202304
H26   H     H_    0.837140 0.191902 0.149603 0.130206
C77   C     C_R   0.565649 0.174274 0.176519 0.049967
C78   C     C_R   0.407303 0.142558 0.170995 0.229960
C79   C     C_R   0.394188 0.106738 0.134400 0.145629
C80   C     C_R   0.542353 0.101820 0.103086 -0.121520
C81   C     C_R   0.420407 0.243414 0.226397 -0.127579
H27   H     H_    0.289494 0.238319 0.207794 0.121984
C82   C     C_R   0.428381 0.279598 0.262645 0.201995
C83   C     C_R   0.600928 0.287322 0.286596 0.069153
C84   C     C_R   0.758933 0.257435 0.273762 -0.202190
H28   H     H_    0.892236 0.262066 0.291396 0.125437
C85   C     C_R   0.748141 0.221240 0.238071 -0.162633
H29   H     H_    0.872081 0.198739 0.229516 0.131008
C86   C     C_R   0.578484 0.213571 0.214126 0.093572
C87   C     C_R   0.715898 0.317748 0.361403 -0.142622
H30   H     H_    0.778094 0.283538 0.362229 0.119533
C88   C     C_R   0.731424 0.353533 0.397470 -0.152039
H31   H     H_    0.806551 0.346403 0.425040 0.115350
C89   C     C_R   0.645157 0.397644 0.398399 -0.036494
C90   C     C_R   0.549165 0.406058 0.362293 -0.171102
H32   H     H_    0.484759 0.440219 0.362132 0.115258
C91   C     C_R   0.539850 0.370961 0.325715 -0.086290
H33   H     H_    0.472002 0.379450 0.297869 0.158350
C92   C     C_R   0.618399 0.325788 0.325041 0.092137
O19   O     O_R   0.699170 0.038480 0.960880 -0.538590
O20   O     O_R   0.366800 0.052460 0.047690 -0.544537
O21   O     O_R   0.193520 0.961530 0.039110 -0.542706
C93   C     C_R   0.534805 0.064512 0.063993 0.703090
O22   O     O_R   0.369630 0.044100 0.961740 -0.542103
O23   O     O_R   0.196370 0.953120 0.952550 -0.539863
C94   C     C_R   0.539037 0.054319 0.948246 0.713594
O24   O     O_R   0.696320 0.046890 0.047450 -0.538316
O25   O     O_3   0.528890 0.970170 0.997080 -0.360946
V3    V     V_3+5 0.255190 0.005530 0.000540 1.401378
O26   O     O_R   0.866460 0.947530 0.952310 -0.510345
C95   C     C_R   0.035361 0.934003 0.937057 0.754229
O27   O     O_R   0.863630 0.955880 0.038270 -0.544337
C96   C     C_R   0.031888 0.945650 0.051760 0.692501
V4    V     V_3+5 0.754830 0.994440 0.999470 1.436240
O28   O     O_3   0.031000 0.029830 0.002920 -0.373618
N5    N     N_3   0.434268 0.642790 0.577721 -0.657750
H34   H     H_    0.421089 0.674978 0.567414 0.229720
H35   H     H_    0.567964 0.642835 0.592641 0.230331
N6    N     N_3   0.858705 0.566189 0.627950 -0.659593
H36   H     H_    0.721451 0.581167 0.628612 0.224861
H37   H     H_    0.869855 0.549607 0.654118 0.220987
N7    N     N_3   0.879690 0.814993 0.359169 -0.586436
H38   H     H_    0.734418 0.823682 0.356789 0.232083
H39   H     H_    0.955607 0.846130 0.371117 0.234840
O29   O     O_3   0.300126 0.683797 0.141322 -0.526747
C97   C     C_3   0.164760 0.651839 0.118944 -0.138802
H40   H     H_    0.216809 0.640744 0.085884 0.165483
H41   H     H_    0.021329 0.668730 0.117610 0.142136
H42   H     H_    0.150346 0.619431 0.132917 0.115889
O30   O     O_3   0.866057 0.597595 0.321969 -0.538890
C98   C     C_3   0.684500 0.614434 0.337668 -0.213903
H43   H     H_    0.689213 0.653157 0.350546 0.140907
H44   H     H_    0.629819 0.594790 0.362057 0.132280
H45   H     H_    0.580680 0.608508 0.311118 0.215359
O31   O     O_3   0.431075 0.122982 0.696281 -0.526338
C99   C     C_3   0.583408 0.096535 0.674397 -0.128286
H46   H     H_    0.537730 0.058907 0.666400 0.167605
H47   H     H_    0.715011 0.098302 0.694398 0.142954
H48   H     H_    0.617450 0.108363 0.644148 0.115762
O32   O     O_3   0.743265 0.795837 0.842763 -0.537780
C100  C     C_3   0.784283 0.750099 0.850278 -0.239904
H49   H     H_    0.646718 0.733281 0.857514 0.164984
H50   H     H_    0.845691 0.727736 0.821418 0.161158
H51   H     H_    0.882511 0.750149 0.877657 0.100904
O33   O     O_3   0.357634 0.455143 0.616833 -0.545778
C101  C     C_3   0.393167 0.492669 0.651022 -0.221857
H52   H     H_    0.541940 0.507138 0.649651 0.126461
H53   H     H_    0.367599 0.481536 0.681909 0.148469
H54   H     H_    0.291218 0.521699 0.648995 0.154571
O34   O     O_3   0.898585 0.311227 0.608937 -0.532303
C102  C     C_3   0.076958 0.328923 0.625943 -0.194223
H55   H     H_    0.061407 0.348199 0.659257 0.132781
H56   H     H_    0.145917 0.351982 0.605896 0.149973
H57   H     H_    0.174116 0.298635 0.626332 0.201148
N8    N     N_3   0.261787 0.145889 0.203333 -0.675710
H58   H     H_    0.257420 0.113918 0.214295 0.264294
H59   H     H_    0.128440 0.150475 0.189659 0.235042
O35   O     O_3   0.716086 0.868306 0.911007 -0.535252
C103  C     C_3   0.724917 0.844063 0.945230 -0.153849
H60   H     H_    0.593012 0.852361 0.964874 0.152381
H61   H     H_    0.851213 0.855396 0.966033 0.092583
H62   H     H_    0.727475 0.805183 0.933860 0.126890
N9    N     N_3   0.232103 0.074911 0.130816 -0.674144
H63   H     H_    0.281839 0.040061 0.125054 0.232019
H64   H     H_    0.145189 0.080456 0.105774 0.244896
N10   N     N_3   0.259864 0.307430 0.275817 -0.687107
H65   H     H_    0.148831 0.298893 0.253763 0.232333
H66   H     H_    0.211271 0.298595 0.304203 0.230096
N11   N     N_3   0.790424 0.812646 0.758648 -0.630432
H67   H     H_    0.661738 0.793145 0.756415 0.250601
H68   H     H_    0.797359 0.829736 0.732703 0.222962
N12   N     N_3   0.426690 0.687119 0.742741 -0.674530
H69   H     H_    0.375681 0.652241 0.737615 0.233974
H70   H     H_    0.511035 0.691643 0.716741 0.221475

loop_
_geom_bond_atom_site_label_1
_geom_bond_atom_site_label_2
_ccdc_geom_bond_type
C21   C22   A    
N2    C36   A    
C37   C38   A    
O32   C100  S    
C9    O35   S    
C49   O15   S    
C43   H13   S    
C61   N4    A    
C91   H33   S    
C1    O6    A    
C78   C79   A    
C59   H17   S    
C72   C73   A    
C64   O33   S    
C28   N7    S    
C102  H56   S    
C56   C61   A    
C35   O13   S    
C45   C46   A    
O23   C95   A    
C38   H10   S    
C85   C86   A    
C12   H3    S    
C59   C60   A    
C47   O30   S    
C7    C8    A    
C13   C14   A    
C91   C92   A    
N10   H66   S    
O27   C96   A    
C52   C57   A    
C66   C67   A    
C20   N6    S    
C21   H6    S    
C47   C48   A    
C46   C47   A    
C75   C76   A    
C13   C22   S    
V2    O10   S    
C53   C60   A    
C103  H62   S    
C65   C66   A    
C32   C36   A    
C23   N1    A    
C72   H23   S    
C4    C19   S    
C24   O12   S    
O1    C2    A    
C69   H21   S    
O8    V2    S    
C18   N5    S    
C97   H42   S    
O31   C99   S    
C69   C74   A    
C67   C68   A    
N7    H39   S    
O34   C102  S    
C70   C71   A    
C10   C95   S    
C61   O17   S    
C23   C27   A    
C97   H40   S    
C41   H12   S    
O1    V2    S    
C8    O32   S    
C14   C15   A    
O7    V1    S    
O22   C94   A    
N2    C42   S    
C25   C28   A    
O25   V4    S    
C75   H25   S    
C11   C16   A    
C97   H41   S    
C76   H26   S    
O21   V3    S    
C60   H18   S    
O19   C94   A    
O9    C4    A    
C3    C45   S    
N5    H35   S    
N6    H37   S    
V4    O28   S    
N5    H34   S    
N12   H69   S    
N1    C48   S    
C77   C86   S    
C101  H54   S    
O5    C3    A    
C43   C48   A    
C2    C89   S    
C90   C91   A    
C73   C74   A    
C58   C62   A    
C103  H60   S    
O27   V4    S    
N9    H64   S    
C14   N12   S    
C7    C16   S    
C37   C42   A    
C5    C10   A    
C55   H16   S    
O23   V3    S    
C32   C33   A    
C17   C22   A    
C28   C29   A    
C84   H28   S    
C50   C51   A    
C81   C86   A    
C87   H30   S    
C101  H53   S    
C98   H44   S    
O35   C103  S    
C57   C58   A    
O4    C2    A    
C52   C53   A    
C40   H11   S    
O33   C101  S    
C38   C39   A    
C11   C12   A    
C98   H43   S    
C83   C92   S    
C39   C40   A    
C18   C19   A    
O20   V3    S    
O2    C1    A    
C44   H14   S    
C100  H50   S    
C20   C21   A    
C67   O34   S    
N11   H68   S    
C63   C64   A    
C34   H8    S    
N3    C50   A    
C33   O29   S    
N9    H63   S    
C15   H4    S    
C64   C65   A    
N4    C62   A    
C71   C94   S    
C5    H1    S    
C73   H24   S    
C31   C32   A    
N6    H36   S    
C33   C34   A    
N10   H65   S    
N12   H70   S    
C44   C45   A    
O24   V4    S    
C51   C52   A    
O3    C4    A    
C79   N9    S    
C54   O31   S    
C63   C68   A    
C49   N3    A    
O6    V2    S    
O9    V2    S    
C24   C25   A    
C82   C83   A    
C102  H57   S    
C88   C89   A    
C26   C27   A    
N1    C24   A    
C43   C44   A    
C99   H47   S    
C77   C78   A    
O2    V1    S    
O26   V4    S    
C90   H32   S    
N11   H67   S    
N7    H38   S    
C29   H7    S    
C76   C77   A    
C79   C80   A    
C85   H29   S    
C51   C54   A    
C100  H49   S    
C84   C85   A    
N8    H58   S    
C35   N2    A    
C19   C20   A    
C98   H45   S    
C6    C7    A    
C88   H31   S    
C50   O16   S    
C8    C9    A    
C25   C26   A    
C62   O18   S    
C87   C88   A    
C101  H52   S    
C81   C82   A    
O5    V1    S    
O8    C3    A    
C83   C84   A    
C55   C56   A    
O19   V4    S    
C63   H19   S    
C12   C13   A    
N4    C68   S    
C102  H55   S    
C89   C90   A    
O26   C95   A    
C6    H2    S    
O7    V2    S    
C100  H51   S    
C23   O11   S    
O4    V1    S    
C75   C80   A    
O29   C97   S    
V1    O10   S    
C71   C72   A    
C15   C16   A    
C46   H15   S    
C17   C18   A    
C56   C57   A    
O25   V3    S    
C26   C31   A    
C99   H48   S    
C29   C30   A    
C27   C34   A    
C58   C59   A    
C5    C6    A    
C17   H5    S    
C80   C93   S    
O20   C93   A    
N3    C74   S    
C93   O24   A    
C81   H27   S    
V3    O28   S    
C82   N10   S    
O21   C96   A    
C11   N11   S    
C9    C10   A    
C37   H9    S    
C39   C96   S    
C49   C53   A    
O22   V3    S    
C54   C55   A    
C40   C41   A    
C30   C31   A    
C78   N8    S    
O3    V1    S    
C103  H61   S    
C36   O14   S    
C41   C42   A    
C1    C65   S    
C70   H22   S    
C99   H46   S    
C66   H20   S    
N8    H59   S    
C87   C92   A    
O30   C98   S    
C30   C35   A    
C69   C70   A    
