data_mof_unit_6456.cif
_audit_creation_date              2012-12-10T17:02:02-0500
_audit_creation_method            fapswitch 2.2
_symmetry_space_group_name_H-M    P1
_symmetry_Int_Tables_number       1
_space_group_crystal_system       triclinic
_cell_length_a                    10.834165
_cell_length_b                    11.042209
_cell_length_c                    9.868567
_cell_angle_alpha                 111.274274
_cell_angle_beta                  97.787888
_cell_angle_gamma                 93.311392
_cell_volume                      1082.67169257

loop_
_atom_site_label
_atom_site_type_symbol
_atom_type_description
_atom_site_fract_x
_atom_site_fract_y
_atom_site_fract_z
_atom_type_partial_charge
C1    C     C_R   0.489442 0.253842 0.440083 0.882086
C2    C     C_R   0.089888 0.618880 0.619925 -0.013033
C3    C     C_R   0.130978 0.514818 0.508209 -0.035252
C4    C     C_R   0.045038 0.422396 0.394418 -0.152358
C5    C     C_R   0.917972 0.426936 0.392808 -0.194566
C6    C     C_R   0.873397 0.526259 0.502491 -0.068040
C7    C     C_2   0.481490 0.113715 0.406241 -0.325827
C8    C     C_2   0.486415 0.069924 0.515975 -0.063895
C9    C     C_2   0.497250 0.885198 0.595897 0.274628
C10   C     C_2   0.484848 0.930913 0.486757 -0.223155
C11   C     C_2   0.510965 0.511304 0.080749 -0.096262
C12   C     C_R   0.263066 0.503400 0.502364 0.783792
C13   C     C_2   0.487092 0.489200 0.918896 0.454516
C14   C     C_R   0.501202 0.745394 0.559951 0.823372
C15   C     C_R   0.738141 0.511472 0.501718 0.854237
C16   C     C_R   0.176013 0.716991 0.733207 -0.215411
C17   C     C_R   0.134841 0.819866 0.840576 0.389811
C18   C     C_R   0.008464 0.834650 0.829563 -0.179239
C19   C     C_R   0.922103 0.745032 0.713512 0.300794
C20   C     C_R   0.959194 0.628984 0.613502 0.018896
Cu1   Cu    Cu3+1 0.521920 0.521810 0.644910 1.061888
Cu2   Cu    Cu3+1 0.478080 0.478190 0.355090 1.013460
H1    H     H_    0.076671 0.343446 0.308301 0.171175
H2    H     H_    0.472304 0.046555 0.292183 0.203600
H3    H     H_    0.585843 0.585254 0.152993 0.141126
H4    H     H_    0.627019 0.621911 0.933806 0.179000
H5    H     H_    0.374282 0.374992 0.069451 0.272742
H6    H     H_    0.276089 0.718681 0.739846 0.202774
H7    H     H_    0.978275 0.921608 0.905862 0.208946
H8    H     H_    0.853747 0.349643 0.307145 0.170502
H9    H     H_    0.476724 0.864518 0.372439 0.167121
H10   H     H_    0.494443 0.138257 0.628990 0.253920
N1    N     N_2   0.445130 0.445430 0.137370 -0.260836
N2    N     N_2   0.554930 0.554500 0.862630 -0.302556
O1    O     O_R   0.511700 0.332330 0.577400 -0.540906
O2    O     O_R   0.474680 0.295500 0.332650 -0.549011
O3    O     O_R   0.338160 0.518420 0.622400 -0.542447
O4    O     O_R   0.301140 0.481590 0.377650 -0.579890
O5    O     O_R   0.525320 0.704500 0.667350 -0.505180
O6    O     O_R   0.488300 0.667670 0.422600 -0.610672
O7    O     O_R   0.698860 0.518410 0.622350 -0.552765
O8    O     O_R   0.661840 0.481580 0.377600 -0.579527
Cl1   Cl    Cl    0.362411 0.370754 0.804837 -0.565325
Cl2   Cl    Cl    0.243509 0.937875 0.981662 -0.559659
Cl3   Cl    Cl    0.781150 0.804644 0.679282 -0.611675
Cl4   Cl    Cl    0.510030 0.988280 0.784054 -0.500900

loop_
_geom_bond_atom_site_label_1
_geom_bond_atom_site_label_2
_ccdc_geom_bond_type
C16   H6    S    
C9    C14   S    
C19   Cl3   S    
Cu1   O1    S    
C2    C16   A    
C6    C20   A    
C9    C10   D    
C15   O8    A    
C19   C20   A    
Cu1   O5    S    
C11   N1    D    
Cu2   O6    S    
C17   C18   A    
C14   O5    A    
C17   Cl2   S    
C9    Cl4   S    
C18   H7    S    
Cu1   Cu2   S    
H5    N1    S    
C11   C13   S    
C1    O1    A    
Cu2   O8    S    
Cu1   O7    S    
H4    N2    S    
C2    C3    A    
C12   O4    A    
C5    C6    A    
C7    C8    D    
C11   H3    S    
C14   O6    A    
C3    C4    A    
Cu2   O4    S    
C13   Cl1   S    
Cu1   O3    S    
C15   O7    A    
C8    C10   S    
C18   C19   A    
C5    H8    S    
C12   O3    A    
Cu2   N1    S    
C4    H1    S    
C16   C17   A    
C13   N2    D    
C3    C12   S    
C6    C15   S    
C1    C7    S    
C2    C20   A    
C10   H9    S    
Cu1   N2    S    
Cu2   O2    S    
C7    H2    S    
C1    O2    A    
C4    C5    A    
C8    H10   S    
