data_mof_unit_32100.cif
_audit_creation_date              2012-12-10T17:33:46-0500
_audit_creation_method            fapswitch 2.2
_symmetry_space_group_name_H-M    P1
_symmetry_Int_Tables_number       1
_space_group_crystal_system       triclinic
_cell_length_a                    11.67101
_cell_length_b                    12.446611
_cell_length_c                    13.177073
_cell_angle_alpha                 117.389409
_cell_angle_beta                  75.624951
_cell_angle_gamma                 101.169283
_cell_volume                      1639.32560288

loop_
_atom_site_label
_atom_site_type_symbol
_atom_type_description
_atom_site_fract_x
_atom_site_fract_y
_atom_site_fract_z
_atom_type_partial_charge
C1    C     C_R   0.507654 0.855546 0.286724 0.841330
C2    C     C_R   0.466928 0.229836 0.839988 -0.199770
C3    C     C_R   0.574967 0.814776 0.080536 -0.198237
C4    C     C_R   0.594786 0.734999 0.963602 -0.143548
C5    C     C_R   0.554157 0.612884 0.927907 -0.157461
C6    C     C_R   0.486398 0.568873 0.008963 0.043886
C7    C     C_R   0.450211 0.654727 0.124982 0.034938
C8    C     C_R   0.455141 0.442934 0.979522 0.033443
C9    C     C_R   0.383239 0.405476 0.063870 0.021795
C10   C     C_R   0.330869 0.493970 0.170207 -0.312975
C11   C     C_R   0.358877 0.617751 0.198856 0.389349
C12   C     C_R   0.715628 0.000051 0.499696 0.799842
C13   C     C_R   0.495493 0.353295 0.868988 -0.296633
C14   C     C_R   0.410617 0.192996 0.928572 0.392206
C15   C     C_R   0.506548 0.775083 0.162806 -0.084138
C16   C     C_R   0.728081 0.377761 0.395666 -0.291117
C17   C     C_R   0.319730 0.737446 0.614319 0.338388
C18   C     C_R   0.262064 0.620166 0.577689 -0.353604
C19   C     C_R   0.328327 0.520323 0.507298 0.392572
C20   C     C_R   0.453142 0.539124 0.495707 -0.079371
C21   C     C_R   0.503558 0.655455 0.502779 0.113888
C22   C     C_R   0.529163 0.446428 0.467505 -0.043087
C23   C     C_R   0.485427 0.145296 0.714637 0.797105
C24   C     C_R   0.653520 0.471189 0.437515 0.062835
C25   C     C_R   0.700207 0.587669 0.445628 0.103614
C26   C     C_R   0.623778 0.661804 0.445509 0.209789
C27   C     C_R   0.490555 0.337248 0.482986 0.370308
C28   C     C_R   0.681298 0.264200 0.389939 0.029381
C29   C     C_R   0.284329 0.000131 0.500606 0.843790
C30   C     C_1   0.837562 0.000198 0.499496 -0.187606
C31   C     C_1   0.940119 0.999869 0.499610 -0.007919
C32   C     C_1   0.059881 0.999485 0.499992 0.004126
C33   C     C_1   0.162436 0.999515 0.500363 -0.160917
C34   C     C_R   0.363866 0.280316 0.039491 0.154006
Cu1   Cu    Cu3+1 0.526510 0.098270 0.475420 0.933528
Cu2   Cu    Cu3+1 0.473490 0.901730 0.524580 0.958130
H1    H     H_    0.822423 0.390546 0.365345 0.156823
H2    H     H_    0.166925 0.606307 0.604324 0.139645
H3    H     H_    0.266539 0.468152 0.231774 0.166038
H4    H     H_    0.548923 0.377118 0.801982 0.177927
H5    H     H_    0.616330 0.907009 0.106818 0.158665
H6    H     H_    0.576710 0.556467 0.836100 0.126614
H7    H     H_    0.646923 0.766778 0.900655 0.142165
H8    H     H_    0.740085 0.193441 0.356415 0.141775
N1    N     N_R   0.566700 0.246290 0.438210 -0.189226
N2    N     N_R   0.434010 0.754320 0.561170 -0.190388
O1    O     O_R   0.533340 0.972510 0.318140 -0.585592
O2    O     O_R   0.488570 0.806530 0.359650 -0.544468
O3    O     O_R   0.685190 0.083000 0.479260 -0.583314
O4    O     O_R   0.640410 0.917020 0.520770 -0.573357
O5    O     O_R   0.511430 0.193470 0.640350 -0.594134
O6    O     O_R   0.466660 0.027490 0.681860 -0.570912
O7    O     O_R   0.359590 0.082980 0.479230 -0.583280
O8    O     O_R   0.314810 0.917000 0.520740 -0.555642
O9    O     O_3   0.399347 0.073258 0.909246 -0.752309
H9    H     H_    0.475831 0.039547 0.863430 0.333710
C35   C     C_3   0.832446 0.624309 0.429550 -0.866864
H10   H     H_    0.850942 0.721025 0.444696 0.250102
H11   H     H_    0.871105 0.613847 0.493112 0.230101
H12   H     H_    0.876663 0.567587 0.339841 0.229593
C36   C     C_3   0.377272 0.333232 0.568336 -0.698702
H13   H     H_    0.387129 0.298290 0.627428 0.232096
H14   H     H_    0.350502 0.425086 0.630471 0.182645
H15   H     H_    0.303731 0.277310 0.522507 0.264309
C37   C     C_3   0.257569 0.840031 0.716670 -0.734655
H16   H     H_    0.162563 0.811427 0.740919 0.184417
H17   H     H_    0.300366 0.866186 0.791979 0.247662
H18   H     H_    0.260639 0.921135 0.702673 0.260571
O10   O     O_3   0.273909 0.406904 0.446478 -0.761467
H19   H     H_    0.186961 0.411770 0.462366 0.318196
C38   C     C_3   0.648717 0.661485 0.326611 -0.737311
H20   H     H_    0.684536 0.751889 0.330408 0.225728
H21   H     H_    0.716808 0.599679 0.262883 0.201829
H22   H     H_    0.568943 0.623279 0.285493 0.225947
C39   C     C_3   0.297048 0.239919 0.132356 -0.775398
H23   H     H_    0.203817 0.263291 0.158013 0.210187
H24   H     H_    0.293706 0.140668 0.103552 0.273924
H25   H     H_    0.341136 0.285722 0.209353 0.257087
O11   O     O_3   0.292936 0.703166 0.294438 -0.716903
H26   H     H_    0.232857 0.662267 0.336342 0.324304

loop_
_geom_bond_atom_site_label_1
_geom_bond_atom_site_label_2
_ccdc_geom_bond_type
C16   C28   A    
C5    H6    S    
C8    C13   A    
Cu1   O7    S    
C19   C20   A    
C21   C26   A    
Cu1   O1    S    
C12   O3    A    
C35   H10   S    
C3    C15   A    
C7    C11   A    
C5    C6    A    
C35   H11   S    
C29   O8    A    
C29   C33   S    
C18   C19   A    
C36   H14   S    
C2    C13   A    
C13   H4    S    
C27   C36   S    
Cu1   Cu2   S    
C8    C9    A    
C37   H17   S    
Cu1   O3    S    
Cu2   N2    S    
C1    C15   S    
C9    C10   A    
Cu2   O6    S    
C34   C39   S    
C27   N1    A    
C7    C15   A    
C14   O9    S    
C16   C24   A    
C26   C38   S    
C36   H13   S    
C25   C35   S    
C28   N1    A    
C17   N2    A    
C38   H21   S    
C1    O1    A    
C35   H12   S    
C6    C8    A    
C25   C26   A    
C28   H8    S    
C10   H3    S    
C36   H15   S    
C39   H23   S    
C23   O5    A    
C31   C32   S    
C37   H18   S    
O9    H9    S    
C17   C18   A    
C24   C25   A    
C39   H24   S    
C11   O11   S    
C20   C22   A    
C22   C27   A    
Cu1   O5    S    
C9    C34   A    
C22   C24   A    
C19   O10   S    
C3    C4    A    
Cu1   N1    S    
Cu2   O4    S    
C21   N2    A    
C3    H5    S    
C12   C30   S    
C4    C5    A    
C14   C34   A    
C38   H22   S    
C12   O4    A    
C1    O2    A    
C6    C7    A    
C4    H7    S    
C16   H1    S    
C17   C37   S    
C32   C33   T    
C18   H2    S    
C38   H20   S    
C23   O6    A    
C30   C31   T    
C29   O7    A    
Cu2   O2    S    
O10   H19   S    
C2    C14   A    
C39   H25   S    
Cu2   O8    S    
C10   C11   A    
O11   H26   S    
C20   C21   A    
C37   H16   S    
C2    C23   S    
