data_mof_unit_45618.cif
_audit_creation_date              2012-12-10T17:56:12-0500
_audit_creation_method            fapswitch 2.2
_symmetry_space_group_name_H-M    P1
_symmetry_Int_Tables_number       1
_space_group_crystal_system       triclinic
_cell_length_a                    21.68055
_cell_length_b                    21.690334
_cell_length_c                    21.682333
_cell_angle_alpha                 90.079467
_cell_angle_beta                  90.111418
_cell_angle_gamma                 89.867173
_cell_volume                      10196.2421703

loop_
_atom_site_label
_atom_site_type_symbol
_atom_type_description
_atom_site_fract_x
_atom_site_fract_y
_atom_site_fract_z
_atom_type_partial_charge
C1    C     C_R   0.499762 0.120062 0.999913 0.871718
C2    C     C_R   0.879913 0.499853 0.000210 0.879478
C3    C     C_R   0.690300 0.133031 0.126032 -0.127526
C4    C     C_R   0.703357 0.087645 0.169858 -0.143668
C5    C     C_R   0.655235 0.056904 0.199557 -0.131711
C6    C     C_R   0.591636 0.814440 0.073739 0.159677
C7    C     C_R   0.577595 0.856312 0.121081 -0.106949
C8    C     C_R   0.624749 0.885867 0.153574 -0.119334
C9    C     C_R   0.686377 0.873295 0.139603 -0.121770
C10   C     C_R   0.700887 0.831389 0.092767 -0.145061
C11   C     C_R   0.653770 0.802152 0.059809 -0.128220
C12   C     C_R   0.589985 0.924732 0.816267 0.164670
C13   C     C_R   0.001160 0.499976 0.120050 0.874555
C14   C     C_R   0.572304 0.872648 0.850102 -0.133926
C15   C     C_R   0.615934 0.839652 0.884328 -0.113821
C16   C     C_R   0.677666 0.857943 0.884387 -0.101379
C17   C     C_R   0.695727 0.909693 0.850641 -0.148302
C18   C     C_R   0.652020 0.943291 0.817028 -0.116998
C19   C     C_R   0.588382 0.184669 0.922880 0.157854
C20   C     C_R   0.572163 0.146196 0.873391 -0.124231
C21   C     C_R   0.617793 0.117795 0.837755 -0.114206
C22   C     C_R   0.680027 0.127427 0.851371 -0.112298
C23   C     C_R   0.696695 0.165498 0.900693 -0.145283
C24   C     C_R   0.120093 0.499830 0.999849 0.870982
C25   C     C_R   0.651135 0.194033 0.936354 -0.124909
C26   C     C_R   0.407323 0.928140 0.186087 0.155317
C27   C     C_R   0.410421 0.863973 0.177421 -0.155828
C28   C     C_R   0.360079 0.832219 0.152714 -0.133409
C29   C     C_R   0.306299 0.864017 0.136648 -0.123970
C30   C     C_R   0.302549 0.927659 0.145749 -0.160568
C31   C     C_R   0.352541 0.959517 0.171007 -0.093314
C32   C     C_R   0.406025 0.187603 0.070263 0.158718
C33   C     C_R   0.409091 0.169896 0.132502 -0.153760
C34   C     C_R   0.358369 0.141969 0.160606 -0.124717
C35   C     C_R   0.999762 0.620062 0.499920 0.871695
C36   C     C_R   0.304175 0.131982 0.127132 -0.122131
C37   C     C_R   0.300361 0.150494 0.065561 -0.156649
C38   C     C_R   0.350899 0.178574 0.037325 -0.090635
C39   C     C_R   0.398343 0.058607 0.810664 0.166738
C40   C     C_R   0.392809 0.119493 0.832141 -0.138410
C41   C     C_R   0.337536 0.139646 0.858634 -0.117991
C42   C     C_R   0.287468 0.099546 0.863514 -0.126188
C43   C     C_R   0.292278 0.039290 0.841256 -0.156239
C44   C     C_R   0.347332 0.019003 0.814607 -0.095242
C45   C     C_R   0.400331 0.812266 0.937275 0.159633
C46   C     C_R   0.999926 0.500090 0.620085 0.871121
C47   C     C_R   0.395950 0.824100 0.873765 -0.146516
C48   C     C_R   0.342074 0.850001 0.849326 -0.124827
C49   C     C_R   0.292304 0.863934 0.887749 -0.116910
C50   C     C_R   0.295854 0.851074 0.950719 -0.161004
C51   C     C_R   0.349362 0.824748 0.975257 -0.099631
C52   C     C_R   0.071854 0.813790 0.406894 0.161063
C53   C     C_R   0.121447 0.851947 0.422520 -0.116043
C54   C     C_R   0.158458 0.877511 0.376815 -0.133347
C55   C     C_R   0.145363 0.866437 0.314659 -0.123734
C56   C     C_R   0.095075 0.829521 0.298399 -0.145124
C57   C     C_R   0.999803 0.379883 0.499841 0.877886
C58   C     C_R   0.058445 0.803094 0.344321 -0.121004
C59   C     C_R   0.815045 0.925942 0.408981 0.154901
C60   C     C_R   0.829839 0.863505 0.417655 -0.162549
C61   C     C_R   0.864437 0.831807 0.373408 -0.116843
C62   C     C_R   0.882065 0.861331 0.319019 -0.095724
C63   C     C_R   0.864754 0.922555 0.308619 -0.152254
C64   C     C_R   0.831145 0.954741 0.353281 -0.096618
C65   C     C_R   0.926992 0.186114 0.408124 0.152827
C66   C     C_R   0.863372 0.174741 0.412818 -0.159593
C67   C     C_R   0.831858 0.146012 0.364409 -0.124846
C68   C     C_R   0.999775 0.499981 0.379860 0.877761
C69   C     C_R   0.863132 0.129535 0.310578 -0.119793
C70   C     C_R   0.925925 0.142439 0.304734 -0.155799
C71   C     C_R   0.957604 0.171162 0.353008 -0.093909
C72   C     C_R   0.186839 0.070298 0.405446 0.169165
C73   C     C_R   0.163373 0.130460 0.410764 -0.148073
C74   C     C_R   0.135699 0.159191 0.360086 -0.120068
C75   C     C_R   0.132044 0.128698 0.303467 -0.119827
C76   C     C_R   0.157290 0.069799 0.297067 -0.155532
C77   C     C_R   0.185186 0.041027 0.347580 -0.098841
C78   C     C_R   0.934803 0.813968 0.597370 0.163844
C79   C     C_R   0.620122 0.500361 0.000079 0.874458
C80   C     C_R   0.882485 0.851245 0.589051 -0.113198
C81   C     C_R   0.856583 0.882762 0.638991 -0.106795
C82   C     C_R   0.882427 0.876846 0.697765 -0.114013
C83   C     C_R   0.934640 0.839924 0.706503 -0.159105
C84   C     C_R   0.961035 0.808945 0.656465 -0.125213
C85   C     C_R   0.186104 0.923373 0.589657 0.147322
C86   C     C_R   0.178776 0.859299 0.583181 -0.171813
C87   C     C_R   0.150007 0.825109 0.629482 -0.122408
C88   C     C_R   0.129611 0.854051 0.683261 -0.103662
C89   C     C_R   0.138980 0.917189 0.691318 -0.151525
C90   C     C_R   0.500212 0.379883 0.000039 0.878245
C91   C     C_R   0.167795 0.951511 0.645148 -0.089066
C92   C     C_R   0.068370 0.187534 0.597032 0.165317
C93   C     C_R   0.120195 0.149699 0.588563 -0.109643
C94   C     C_R   0.153699 0.128255 0.639277 -0.132179
C95   C     C_R   0.134489 0.142469 0.699084 -0.120133
C96   C     C_R   0.082015 0.178831 0.708168 -0.149252
C97   C     C_R   0.049344 0.201687 0.657444 -0.130815
C98   C     C_R   0.814295 0.073130 0.592189 0.155522
C99   C     C_R   0.856088 0.120325 0.578224 -0.107676
C100  C     C_R   0.884638 0.153752 0.625320 -0.122043
C101  C     C_R   0.379929 0.499779 0.999900 0.877341
C102  C     C_R   0.871562 0.140536 0.686941 -0.123681
C103  C     C_R   0.830077 0.093535 0.701462 -0.144739
C104  C     C_R   0.801597 0.059849 0.654357 -0.130246
C105  C     C_R   0.814946 0.590699 0.926001 0.162655
C106  C     C_R   0.852681 0.574573 0.876015 -0.119677
C107  C     C_R   0.883739 0.620039 0.842746 -0.117112
C108  C     C_R   0.877024 0.682052 0.858892 -0.110727
C109  C     C_R   0.839596 0.698593 0.908699 -0.146610
C110  C     C_R   0.808886 0.653123 0.942372 -0.125035
C111  C     C_R   0.924882 0.589388 0.185220 0.163139
C112  C     C_R   0.499926 0.000092 0.120085 0.871150
C113  C     C_R   0.500575 0.620089 0.000031 0.873035
C114  C     C_R   0.874784 0.573433 0.147486 -0.112674
C115  C     C_R   0.839922 0.619153 0.118201 -0.115164
C116  C     C_R   0.854930 0.681230 0.126330 -0.108397
C117  C     C_R   0.905014 0.697599 0.163559 -0.147527
C118  C     C_R   0.940012 0.651901 0.192783 -0.140274
C119  C     C_R   0.185893 0.593175 0.072122 0.155403
C120  C     C_R   0.144212 0.580629 0.119914 -0.112135
C121  C     C_R   0.116611 0.628721 0.152867 -0.110488
C122  C     C_R   0.130406 0.689873 0.138411 -0.116359
C123  C     C_R   0.171624 0.702982 0.090748 -0.147460
C124  C     C_R   0.500094 0.999795 0.379906 0.875983
C125  C     C_R   0.199211 0.654938 0.057660 -0.131165
C126  C     C_R   0.073269 0.592006 0.814647 0.156474
C127  C     C_R   0.120503 0.578168 0.856771 -0.111448
C128  C     C_R   0.152522 0.625441 0.886614 -0.118030
C129  C     C_R   0.138308 0.686989 0.873990 -0.121012
C130  C     C_R   0.091633 0.701314 0.831787 -0.147568
C131  C     C_R   0.059071 0.654091 0.802332 -0.129749
C132  C     C_R   0.813901 0.402171 0.065093 0.158692
C133  C     C_R   0.828335 0.401846 0.128232 -0.150922
C134  C     C_R   0.860588 0.352116 0.153729 -0.122778
C135  C     C_R   0.379913 0.999855 0.500209 0.879511
C136  C     C_R   0.876522 0.301498 0.117118 -0.117665
C137  C     C_R   0.859817 0.300262 0.054892 -0.154085
C138  C     C_R   0.828333 0.350216 0.029014 -0.097350
C139  C     C_R   0.931534 0.404576 0.813160 0.157054
C140  C     C_R   0.867317 0.404975 0.821975 -0.152784
C141  C     C_R   0.838014 0.353898 0.847930 -0.132583
C142  C     C_R   0.872286 0.301976 0.864863 -0.122972
C143  C     C_R   0.935915 0.300648 0.855033 -0.160753
C144  C     C_R   0.965320 0.351390 0.828622 -0.094173
C145  C     C_R   0.186493 0.406952 0.927597 0.156125
C146  C     C_R   0.501167 0.999977 0.620051 0.874509
C147  C     C_R   0.177191 0.410870 0.863579 -0.164404
C148  C     C_R   0.150568 0.361661 0.831546 -0.130042
C149  C     C_R   0.133826 0.308011 0.862856 -0.122556
C150  C     C_R   0.144167 0.303231 0.926267 -0.158212
C151  C     C_R   0.171000 0.352207 0.958427 -0.088834
C152  C     C_R   0.073408 0.407138 0.186591 0.157471
C153  C     C_R   0.136176 0.411608 0.171296 -0.163773
C154  C     C_R   0.166173 0.362379 0.142320 -0.121846
C155  C     C_R   0.134139 0.308049 0.129356 -0.121445
C156  C     C_R   0.072119 0.302663 0.145795 -0.157577
C157  C     C_R   0.620093 0.999831 0.499853 0.870980
C158  C     C_R   0.041962 0.351795 0.174723 -0.082955
C159  C     C_R   0.093496 0.571798 0.686109 0.152637
C160  C     C_R   0.081025 0.618032 0.642591 -0.104202
C161  C     C_R   0.129186 0.647835 0.612164 -0.118166
C162  C     C_R   0.190354 0.632951 0.626036 -0.127570
C163  C     C_R   0.203389 0.587576 0.669880 -0.143662
C164  C     C_R   0.155252 0.556859 0.699581 -0.131784
C165  C     C_R   0.091659 0.314440 0.573721 0.159606
C166  C     C_R   0.077639 0.356321 0.621061 -0.107028
C167  C     C_R   0.124807 0.385884 0.653524 -0.119275
C168  C     C_R   0.542569 0.038275 0.218127 -0.082002
C169  C     C_R   0.186429 0.373312 0.639528 -0.121748
C170  C     C_R   0.200919 0.331397 0.592694 -0.145050
C171  C     C_R   0.153788 0.302153 0.559763 -0.128167
C172  C     C_R   0.090046 0.424814 0.316257 0.164631
C173  C     C_R   0.072416 0.372774 0.350187 -0.133603
C174  C     C_R   0.116086 0.339863 0.384444 -0.113737
C175  C     C_R   0.177809 0.358182 0.384426 -0.101581
C176  C     C_R   0.195820 0.409882 0.350578 -0.148289
C177  C     C_R   0.152072 0.443405 0.316944 -0.117141
C178  C     C_R   0.088394 0.684670 0.422904 0.157860
C179  C     C_R   0.541767 0.782079 0.038885 -0.080280
C180  C     C_R   0.072189 0.646195 0.373413 -0.124184
C181  C     C_R   0.117829 0.617803 0.337783 -0.114173
C182  C     C_R   0.180059 0.627444 0.351408 -0.112278
C183  C     C_R   0.196713 0.665515 0.400735 -0.145267
C184  C     C_R   0.151143 0.694042 0.436390 -0.124895
C185  C     C_R   0.907328 0.428135 0.686077 0.155368
C186  C     C_R   0.910455 0.363971 0.677396 -0.155802
C187  C     C_R   0.860135 0.332203 0.652660 -0.133285
C188  C     C_R   0.806346 0.363984 0.636590 -0.123878
C189  C     C_R   0.802565 0.427621 0.645713 -0.160554
C190  C     C_R   0.543185 0.962088 0.782342 -0.075288
C191  C     C_R   0.852537 0.459493 0.670993 -0.093318
C192  C     C_R   0.906044 0.687592 0.570300 0.158703
C193  C     C_R   0.909153 0.669880 0.632536 -0.153823
C194  C     C_R   0.858454 0.641941 0.660670 -0.124679
C195  C     C_R   0.804239 0.631949 0.627229 -0.122102
C196  C     C_R   0.800384 0.650466 0.565662 -0.156655
C197  C     C_R   0.850900 0.678555 0.537395 -0.090626
C198  C     C_R   0.898370 0.558672 0.310683 0.166682
C199  C     C_R   0.892886 0.619574 0.332127 -0.138579
C200  C     C_R   0.837649 0.639772 0.358659 -0.117954
C201  C     C_R   0.540212 0.217547 0.959677 -0.084420
C202  C     C_R   0.787562 0.599704 0.363603 -0.126101
C203  C     C_R   0.792316 0.539435 0.341368 -0.156229
C204  C     C_R   0.847336 0.519103 0.314682 -0.095132
C205  C     C_R   0.900367 0.312274 0.437235 0.159656
C206  C     C_R   0.896063 0.324151 0.373729 -0.146515
C207  C     C_R   0.842222 0.350081 0.349246 -0.124782
C208  C     C_R   0.792408 0.363994 0.387620 -0.116890
C209  C     C_R   0.795881 0.351088 0.450585 -0.161005
C210  C     C_R   0.849357 0.324738 0.475168 -0.099651
C211  C     C_R   0.571839 0.313796 0.906876 0.160986
C212  C     C_R   0.457898 0.962234 0.217995 -0.081445
C213  C     C_R   0.621401 0.352005 0.922479 -0.116094
C214  C     C_R   0.658328 0.377654 0.876754 -0.132896
C215  C     C_R   0.645200 0.366589 0.814604 -0.123583
C216  C     C_R   0.594958 0.329599 0.798369 -0.145260
C217  C     C_R   0.558399 0.303105 0.844308 -0.120980
C218  C     C_R   0.315053 0.425851 0.909044 0.154819
C219  C     C_R   0.329798 0.363411 0.917776 -0.162706
C220  C     C_R   0.364399 0.331652 0.873575 -0.116934
C221  C     C_R   0.382076 0.361119 0.819171 -0.095602
C222  C     C_R   0.364811 0.422346 0.808711 -0.152177
C223  C     C_R   0.499803 0.879883 0.999833 0.877946
C224  C     C_R   0.458680 0.218371 0.038857 -0.088156
C225  C     C_R   0.331198 0.454592 0.853328 -0.096552
C226  C     C_R   0.426943 0.686101 0.908154 0.152782
C227  C     C_R   0.363320 0.674762 0.912882 -0.159680
C228  C     C_R   0.331767 0.646025 0.864504 -0.124809
C229  C     C_R   0.363004 0.629509 0.810664 -0.119814
C230  C     C_R   0.425798 0.642384 0.804780 -0.155774
C231  C     C_R   0.457516 0.671115 0.853025 -0.093863
C232  C     C_R   0.686871 0.570160 0.905332 0.169475
C233  C     C_R   0.663068 0.630189 0.910655 -0.147253
C234  C     C_R   0.635520 0.658893 0.859895 -0.120003
C235  C     C_R   0.455832 0.035203 0.781162 -0.088410
C236  C     C_R   0.632289 0.628494 0.803200 -0.119831
C237  C     C_R   0.657843 0.569724 0.796812 -0.155528
C238  C     C_R   0.685634 0.540988 0.847404 -0.099595
C239  C     C_R   0.434844 0.313956 0.097395 0.163876
C240  C     C_R   0.382519 0.351229 0.089108 -0.113128
C241  C     C_R   0.356627 0.382720 0.139070 -0.106832
C242  C     C_R   0.382494 0.376785 0.197832 -0.114005
C243  C     C_R   0.434716 0.339870 0.206538 -0.159089
C244  C     C_R   0.461098 0.308914 0.156478 -0.125326
C245  C     C_R   0.686108 0.423415 0.089680 0.147371
C246  C     C_R   0.455415 0.781537 0.964745 -0.081409
C247  C     C_R   0.678708 0.359348 0.083218 -0.171722
C248  C     C_R   0.649921 0.325201 0.129540 -0.122381
C249  C     C_R   0.629583 0.354178 0.183323 -0.103650
C250  C     C_R   0.639022 0.417308 0.191360 -0.151534
C251  C     C_R   0.667851 0.451588 0.145168 -0.089127
C252  C     C_R   0.568227 0.687577 0.097140 0.165528
C253  C     C_R   0.620151 0.649834 0.088849 -0.109724
C254  C     C_R   0.653504 0.628428 0.139680 -0.131992
C255  C     C_R   0.634061 0.642603 0.199419 -0.120115
C256  C     C_R   0.581512 0.678899 0.208324 -0.149436
C257  C     C_R   0.036301 0.781581 0.455987 -0.073044
C258  C     C_R   0.548987 0.701714 0.157489 -0.130740
C259  C     C_R   0.314291 0.573117 0.092186 0.155555
C260  C     C_R   0.356064 0.620324 0.078208 -0.107689
C261  C     C_R   0.384582 0.653789 0.125293 -0.122090
C262  C     C_R   0.371511 0.640589 0.186918 -0.123642
C263  C     C_R   0.330054 0.593567 0.201453 -0.144713
C264  C     C_R   0.301594 0.559851 0.154358 -0.130259
C265  C     C_R   0.314970 0.090694 0.426010 0.162746
C266  C     C_R   0.352574 0.074530 0.375940 -0.120081
C267  C     C_R   0.383711 0.119954 0.342686 -0.117065
C268  C     C_R   0.782032 0.961901 0.457539 -0.076633
C269  C     C_R   0.377206 0.181962 0.358935 -0.110485
C270  C     C_R   0.339915 0.198538 0.408832 -0.146663
C271  C     C_R   0.309129 0.153107 0.442492 -0.124858
C272  C     C_R   0.424943 0.089436 0.685243 0.163110
C273  C     C_R   0.374875 0.073535 0.647446 -0.112394
C274  C     C_R   0.340052 0.119294 0.618179 -0.115085
C275  C     C_R   0.355063 0.181359 0.626392 -0.108520
C276  C     C_R   0.405116 0.197676 0.663685 -0.147536
C277  C     C_R   0.440079 0.151939 0.692889 -0.140472
C278  C     C_R   0.685890 0.093179 0.572129 0.155416
C279  C     C_R   0.961607 0.218038 0.458415 -0.080739
C280  C     C_R   0.644210 0.080626 0.619920 -0.112198
C281  C     C_R   0.616602 0.128714 0.652874 -0.110446
C282  C     C_R   0.630390 0.189868 0.638420 -0.116316
C283  C     C_R   0.671608 0.202983 0.590758 -0.147489
C284  C     C_R   0.699202 0.154944 0.557669 -0.131149
C285  C     C_R   0.573273 0.092004 0.314650 0.156524
C286  C     C_R   0.620523 0.078158 0.356753 -0.111550
C287  C     C_R   0.652562 0.125425 0.386585 -0.118050
C288  C     C_R   0.638342 0.186975 0.373979 -0.120962
C289  C     C_R   0.591646 0.201309 0.331802 -0.147607
C290  C     C_R   0.218177 0.038787 0.458158 -0.088986
C291  C     C_R   0.559069 0.154092 0.302353 -0.129683
C292  C     C_R   0.313924 0.902237 0.565181 0.158683
C293  C     C_R   0.328355 0.902006 0.628321 -0.151016
C294  C     C_R   0.360644 0.852336 0.653886 -0.122798
C295  C     C_R   0.376608 0.801676 0.617345 -0.117601
C296  C     C_R   0.359906 0.800344 0.555120 -0.153998
C297  C     C_R   0.328393 0.850244 0.529171 -0.097302
C298  C     C_R   0.431623 0.904510 0.313152 0.157061
C299  C     C_R   0.367409 0.904837 0.321993 -0.152631
C300  C     C_R   0.338176 0.853737 0.347981 -0.132602
C301  C     C_R   0.964747 0.781935 0.544341 -0.071253
C302  C     C_R   0.372515 0.801860 0.364916 -0.123022
C303  C     C_R   0.436139 0.800597 0.355048 -0.160740
C304  C     C_R   0.465474 0.851364 0.328607 -0.094226
C305  C     C_R   0.686505 0.906950 0.427608 0.156117
C306  C     C_R   0.677207 0.910843 0.363587 -0.164366
C307  C     C_R   0.650616 0.861609 0.331567 -0.130119
C308  C     C_R   0.633896 0.807961 0.362894 -0.122595
C309  C     C_R   0.644227 0.803209 0.426308 -0.158266
C310  C     C_R   0.671031 0.852210 0.458455 -0.088851
C311  C     C_R   0.573422 0.907138 0.686588 0.157490
C312  C     C_R   0.218171 0.960670 0.541388 -0.079696
C313  C     C_R   0.636197 0.911619 0.671325 -0.163856
C314  C     C_R   0.666214 0.862398 0.642354 -0.121860
C315  C     C_R   0.634193 0.808066 0.629367 -0.121434
C316  C     C_R   0.572166 0.802669 0.645778 -0.157588
C317  C     C_R   0.541990 0.851793 0.674700 -0.082904
C318  C     C_R   0.037143 0.218243 0.543762 -0.086226
C319  C     C_R   0.499774 0.999970 0.879860 0.877796
C320  C     C_R   0.781993 0.038227 0.542199 -0.078901
C321  C     C_R   0.782054 0.542465 0.962246 -0.079211
C322  C     C_R   0.961847 0.541180 0.217675 -0.077713
C323  C     C_R   0.217975 0.542305 0.038109 -0.080942
C324  C     C_R   0.038721 0.542017 0.782146 -0.079804
C325  C     C_R   0.781840 0.455497 0.035713 -0.080089
C326  C     C_R   0.963617 0.456560 0.781638 -0.080661
C327  C     C_R   0.218270 0.457161 0.962180 -0.081099
C328  C     C_R   0.040226 0.458372 0.218320 -0.086821
C329  C     C_R   0.042577 0.538264 0.718129 -0.081988
C330  C     C_R   0.120122 0.000356 0.500081 0.874539
C331  C     C_R   0.041773 0.282077 0.538890 -0.080338
C332  C     C_R   0.043199 0.462118 0.282338 -0.075272
C333  C     C_R   0.040212 0.717547 0.459689 -0.084400
C334  C     C_R   0.957889 0.462242 0.717994 -0.081402
C335  C     C_R   0.958677 0.718370 0.538866 -0.088125
C336  C     C_R   0.955828 0.535217 0.281161 -0.088376
C337  C     C_R   0.955424 0.281537 0.464747 -0.081380
C338  C     C_R   0.536308 0.281583 0.955983 -0.073018
C339  C     C_R   0.282033 0.461865 0.957558 -0.076605
C340  C     C_R   0.461597 0.718035 0.958415 -0.080717
C341  C     C_R   0.000209 0.879884 0.500039 0.878240
C342  C     C_R   0.718180 0.538735 0.958111 -0.089032
C343  C     C_R   0.464766 0.281933 0.044347 -0.071271
C344  C     C_R   0.718172 0.460674 0.041384 -0.079684
C345  C     C_R   0.537121 0.718250 0.043776 -0.086381
C346  C     C_R   0.281991 0.538208 0.042201 -0.078864
C347  C     C_R   0.282055 0.042491 0.462274 -0.079176
C348  C     C_R   0.461869 0.041188 0.717681 -0.077706
C349  C     C_R   0.717975 0.042315 0.538112 -0.080912
C350  C     C_R   0.538719 0.042021 0.282145 -0.079811
C351  C     C_R   0.281843 0.955513 0.535735 -0.080069
C352  C     C_R   0.879929 0.999789 0.499899 0.877328
C353  C     C_R   0.463645 0.956537 0.281636 -0.080653
C354  C     C_R   0.718272 0.957176 0.462176 -0.081145
C355  C     C_R   0.540225 0.958359 0.718322 -0.086792
C356  C     C_R   0.501379 0.999048 0.313686 -0.142807
C357  C     C_R   0.500620 0.686261 0.000094 -0.145310
C358  C     C_R   0.501421 0.000020 0.686234 -0.143187
C359  C     C_R   0.500666 0.313604 0.000262 -0.130663
C360  C     C_R   0.999086 0.686212 0.499002 -0.143824
C361  C     C_R   0.686312 0.999357 0.500542 -0.142690
C362  C     C_R   0.998881 0.313656 0.501384 -0.143510
C363  C     C_R   0.000572 0.120089 0.500029 0.873050
C364  C     C_R   0.313666 0.999208 0.499299 -0.145684
C365  C     C_R   0.686350 0.500520 0.000371 -0.146040
C366  C     C_R   0.999368 0.498926 0.313543 -0.145244
C367  C     C_R   0.313725 0.500399 0.999564 -0.139739
C368  C     C_R   0.999589 0.500916 0.686280 -0.144144
C369  C     C_R   0.001369 0.499054 0.813687 -0.142811
C370  C     C_R   0.000629 0.186260 0.500089 -0.145218
C371  C     C_R   0.001408 0.500018 0.186232 -0.143182
C372  C     C_R   0.000652 0.813604 0.500259 -0.130688
C373  C     C_R   0.499085 0.186212 0.998990 -0.143849
C374  C     C_R   0.000091 0.499796 0.879906 0.875857
C375  C     C_R   0.186312 0.499353 0.000536 -0.142725
C376  C     C_R   0.498880 0.813657 0.001373 -0.143472
C377  C     C_R   0.813667 0.499196 0.999284 -0.145595
C378  C     C_R   0.186351 0.000526 0.500382 -0.146039
C379  C     C_R   0.499364 0.998906 0.813545 -0.145243
C380  C     C_R   0.813725 0.000422 0.499557 -0.139753
C381  C     C_R   0.499586 0.000920 0.186280 -0.144148
C382  C     C_R   0.593472 0.071829 0.186103 0.152654
C383  C     C_R   0.580978 0.118070 0.142598 -0.104295
C384  C     C_R   0.629125 0.147901 0.112175 -0.118183
H1    H     H_    0.534127 0.129479 0.130770 0.090337
H2    H     H_    0.665598 0.769948 0.023443 0.102497
H3    H     H_    0.022799 0.665807 0.769931 0.103892
H4    H     H_    0.814085 0.439356 0.157806 0.106676
H5    H     H_    0.873379 0.352737 0.201839 0.109071
H6    H     H_    0.901427 0.263080 0.137096 0.110761
H7    H     H_    0.871525 0.260787 0.026623 0.111628
H8    H     H_    0.815735 0.348963 0.980719 0.121102
H9    H     H_    0.839669 0.443636 0.806821 0.108851
H10   H     H_    0.788620 0.354160 0.854225 0.124624
H11   H     H_    0.849409 0.262532 0.884959 0.110996
H12   H     H_    0.962384 0.260105 0.867320 0.111913
H13   H     H_    0.524688 0.858619 0.850987 0.094641
H14   H     H_    0.014399 0.349389 0.819938 0.125726
H15   H     H_    0.192021 0.451096 0.838245 0.104786
H16   H     H_    0.143530 0.364751 0.782342 0.127639
H17   H     H_    0.113321 0.269972 0.837874 0.112343
H18   H     H_    0.131873 0.261407 0.950424 0.111257
H19   H     H_    0.179939 0.347591 0.007309 0.121251
H20   H     H_    0.162359 0.452284 0.182911 0.097799
H21   H     H_    0.214369 0.366144 0.130224 0.120196
H22   H     H_    0.157510 0.269990 0.106969 0.115881
H23   H     H_    0.047434 0.260381 0.136279 0.110545
H24   H     H_    0.601712 0.800460 0.911517 0.120236
H25   H     H_    0.994040 0.346957 0.187705 0.114240
H26   H     H_    0.034179 0.629452 0.630749 0.090339
H27   H     H_    0.118945 0.682063 0.577386 0.124304
H28   H     H_    0.227586 0.656329 0.602576 0.120924
H29   H     H_    0.250777 0.575889 0.680564 0.114481
H30   H     H_    0.166029 0.521274 0.732940 0.104680
H31   H     H_    0.030327 0.366910 0.631809 0.092596
H32   H     H_    0.113514 0.418735 0.689359 0.125481
H33   H     H_    0.222893 0.396158 0.664863 0.119819
H34   H     H_    0.248657 0.321651 0.581804 0.114494
H35   H     H_    0.711364 0.832316 0.910953 0.112530
H36   H     H_    0.165600 0.269944 0.523396 0.102490
H37   H     H_    0.024807 0.358728 0.351142 0.094555
H38   H     H_    0.101898 0.300722 0.411724 0.120227
H39   H     H_    0.211537 0.332619 0.411015 0.112584
H40   H     H_    0.243562 0.424349 0.350880 0.114269
H41   H     H_    0.166348 0.484123 0.291963 0.099880
H42   H     H_    0.024442 0.638154 0.362611 0.088126
H43   H     H_    0.104941 0.588293 0.299651 0.121629
H44   H     H_    0.215331 0.605430 0.323751 0.112647
H45   H     H_    0.244933 0.673113 0.411220 0.114041
H46   H     H_    0.743475 0.924135 0.850999 0.114254
H47   H     H_    0.164662 0.723780 0.474229 0.104049
H48   H     H_    0.950705 0.338238 0.691907 0.107588
H49   H     H_    0.862496 0.282832 0.646581 0.126389
H50   H     H_    0.767461 0.339197 0.617480 0.112115
H51   H     H_    0.760661 0.452156 0.633907 0.112585
H52   H     H_    0.848495 0.508510 0.679430 0.121542
H53   H     H_    0.949940 0.678646 0.659741 0.098183
H54   H     H_    0.861005 0.628277 0.708506 0.122207
H55   H     H_    0.765108 0.610242 0.649167 0.115341
H56   H     H_    0.758220 0.643222 0.539872 0.112997
H57   H     H_    0.666335 0.984036 0.792113 0.099895
H58   H     H_    0.847262 0.693146 0.489800 0.109151
H59   H     H_    0.930347 0.651816 0.327257 0.094658
H60   H     H_    0.833333 0.686636 0.374976 0.112015
H61   H     H_    0.744903 0.615559 0.384130 0.112933
H62   H     H_    0.753314 0.508559 0.344545 0.114740
H63   H     H_    0.850323 0.472569 0.296905 0.112079
H64   H     H_    0.933256 0.311698 0.343025 0.106594
H65   H     H_    0.838666 0.358897 0.300433 0.112153
H66   H     H_    0.750863 0.384048 0.368402 0.112064
H67   H     H_    0.756994 0.360966 0.480255 0.114213
H68   H     H_    0.524412 0.138167 0.862593 0.088105
H69   H     H_    0.851167 0.313592 0.523698 0.126198
H70   H     H_    0.631095 0.361965 0.970015 0.098654
H71   H     H_    0.697269 0.405699 0.889987 0.117557
H72   H     H_    0.673920 0.386601 0.779131 0.118801
H73   H     H_    0.584715 0.320949 0.750260 0.113229
H74   H     H_    0.520177 0.273717 0.831290 0.105351
H75   H     H_    0.314038 0.339167 0.958203 0.107071
H76   H     H_    0.377570 0.284237 0.881491 0.113405
H77   H     H_    0.408728 0.336364 0.784953 0.108655
H78   H     H_    0.377930 0.445002 0.766292 0.110224
H79   H     H_    0.604895 0.088284 0.799627 0.121636
H80   H     H_    0.318699 0.502245 0.845151 0.117763
H81   H     H_    0.337804 0.689528 0.953074 0.108467
H82   H     H_    0.282964 0.637141 0.868392 0.125236
H83   H     H_    0.338385 0.607369 0.773261 0.110735
H84   H     H_    0.449857 0.630374 0.762742 0.112254
H85   H     H_    0.505923 0.681584 0.847616 0.117356
H86   H     H_    0.667843 0.655914 0.952801 0.089781
H87   H     H_    0.617281 0.705024 0.864239 0.116872
H88   H     H_    0.610975 0.650934 0.763989 0.116456
H89   H     H_    0.656751 0.546688 0.752520 0.113716
H90   H     H_    0.715291 0.105407 0.823709 0.112650
H91   H     H_    0.707206 0.496560 0.841001 0.101651
H92   H     H_    0.362969 0.357274 0.043976 0.093050
H93   H     H_    0.316963 0.412273 0.132069 0.116782
H94   H     H_    0.362378 0.401176 0.236482 0.114658
H95   H     H_    0.455048 0.335598 0.251966 0.114490
H96   H     H_    0.502152 0.281238 0.163597 0.108533
H97   H     H_    0.696524 0.335498 0.043206 0.111162
H98   H     H_    0.644122 0.276137 0.124170 0.125020
H99   H     H_    0.607420 0.327543 0.219141 0.111312
H100  H     H_    0.624358 0.439653 0.233534 0.112684
H101  H     H_    0.744917 0.173090 0.911170 0.114036
H102  H     H_    0.675762 0.500084 0.152591 0.115749
H103  H     H_    0.635424 0.637737 0.043418 0.089092
H104  H     H_    0.694852 0.601442 0.132613 0.115484
H105  H     H_    0.659900 0.625783 0.238736 0.123804
H106  H     H_    0.566574 0.690256 0.254573 0.112956
H107  H     H_    0.509579 0.731517 0.165100 0.103062
H108  H     H_    0.367358 0.630263 0.031009 0.094888
H109  H     H_    0.416883 0.689866 0.113836 0.124082
H110  H     H_    0.393590 0.666692 0.223337 0.121701
H111  H     H_    0.319913 0.583267 0.249192 0.114133
H112  H     H_    0.618869 0.182140 0.077412 0.124307
H113  H     H_    0.664663 0.223769 0.974192 0.104064
H114  H     H_    0.269487 0.523579 0.166232 0.103590
H115  H     H_    0.358719 0.026829 0.363716 0.093619
H116  H     H_    0.413303 0.107003 0.304681 0.122329
H117  H     H_    0.401339 0.217084 0.333103 0.117460
H118  H     H_    0.335084 0.246552 0.421622 0.115457
H119  H     H_    0.280966 0.166463 0.481508 0.100947
H120  H     H_    0.363591 0.025888 0.639988 0.093237
H121  H     H_    0.301676 0.106612 0.588870 0.121162
H122  H     H_    0.328069 0.216746 0.603689 0.113121
H123  H     H_    0.416843 0.245755 0.669975 0.115606
H124  H     H_    0.450664 0.838226 0.191926 0.107646
H125  H     H_    0.478809 0.165160 0.721595 0.102171
H126  H     H_    0.632397 0.033819 0.630882 0.091991
H127  H     H_    0.584346 0.118527 0.689443 0.121925
H128  H     H_    0.609013 0.227052 0.664026 0.114635
H129  H     H_    0.682295 0.250368 0.579508 0.113809
H130  H     H_    0.731266 0.165796 0.521019 0.105798
H131  H     H_    0.631510 0.030903 0.367336 0.093570
H132  H     H_    0.688198 0.114253 0.419720 0.124631
H133  H     H_    0.663376 0.223506 0.397019 0.122285
H134  H     H_    0.580563 0.248992 0.322032 0.113747
H135  H     H_    0.362415 0.782844 0.146652 0.126401
H136  H     H_    0.522784 0.165814 0.269970 0.103896
H137  H     H_    0.314080 0.939550 0.657843 0.106693
H138  H     H_    0.373446 0.853040 0.701993 0.109040
H139  H     H_    0.401540 0.763303 0.637376 0.110731
H140  H     H_    0.371642 0.760838 0.526906 0.111589
H141  H     H_    0.315806 0.848920 0.480874 0.121024
H142  H     H_    0.339710 0.943458 0.306833 0.108881
H143  H     H_    0.288784 0.853944 0.354298 0.124637
H144  H     H_    0.349692 0.762397 0.385038 0.110984
H145  H     H_    0.462659 0.760085 0.367332 0.111909
H146  H     H_    0.267397 0.839241 0.117557 0.112138
H147  H     H_    0.514550 0.849415 0.319901 0.125767
H148  H     H_    0.692022 0.951065 0.338240 0.104803
H149  H     H_    0.643587 0.864677 0.282360 0.127684
H150  H     H_    0.613414 0.769903 0.337921 0.112452
H151  H     H_    0.631949 0.761388 0.450478 0.111267
H152  H     H_    0.679968 0.847614 0.507339 0.121281
H153  H     H_    0.662369 0.952296 0.682964 0.097818
H154  H     H_    0.714414 0.866171 0.630282 0.120211
H155  H     H_    0.657578 0.770014 0.606985 0.115879
H156  H     H_    0.547492 0.760385 0.636246 0.110533
H157  H     H_    0.260653 0.952209 0.133946 0.112626
H158  H     H_    0.494066 0.846944 0.687667 0.114248
H159  H     H_    0.348521 0.008538 0.179432 0.121565
H160  H     H_    0.449864 0.178655 0.159732 0.098215
H161  H     H_    0.360886 0.128312 0.208447 0.122184
H162  H     H_    0.265026 0.110283 0.149047 0.115390
H163  H     H_    0.258212 0.143255 0.039745 0.113021
H164  H     H_    0.727520 0.156430 0.102575 0.120947
H165  H     H_    0.347293 0.193162 0.989727 0.109113
H166  H     H_    0.430258 0.151757 0.827328 0.094639
H167  H     H_    0.333175 0.186501 0.874968 0.112024
H168  H     H_    0.244782 0.115367 0.884011 0.112955
H169  H     H_    0.253291 0.008389 0.844387 0.114780
H170  H     H_    0.350361 0.972477 0.796812 0.112074
H171  H     H_    0.433107 0.811628 0.843024 0.106613
H172  H     H_    0.338452 0.858772 0.800510 0.112238
H173  H     H_    0.250731 0.883964 0.868566 0.112066
H174  H     H_    0.257000 0.860966 0.980428 0.114231
H175  H     H_    0.750750 0.075969 0.180530 0.114487
H176  H     H_    0.351229 0.813633 0.023792 0.126271
H177  H     H_    0.131114 0.861912 0.470059 0.098713
H178  H     H_    0.197443 0.905490 0.390067 0.117501
H179  H     H_    0.174146 0.886384 0.279201 0.118828
H180  H     H_    0.084859 0.820864 0.250287 0.113204
H181  H     H_    0.020201 0.773742 0.331286 0.105341
H182  H     H_    0.814120 0.839218 0.458071 0.107024
H183  H     H_    0.877648 0.784395 0.381278 0.113389
H184  H     H_    0.908716 0.836622 0.284767 0.108672
H185  H     H_    0.877836 0.945256 0.266213 0.110241
H186  H     H_    0.666029 0.021311 0.232904 0.104686
H187  H     H_    0.818610 0.002393 0.345151 0.117742
H188  H     H_    0.837832 0.189470 0.453007 0.108410
H189  H     H_    0.783056 0.137101 0.368269 0.125209
H190  H     H_    0.838543 0.107401 0.273151 0.110710
H191  H     H_    0.950013 0.130456 0.262704 0.112225
H192  H     H_    0.006013 0.181652 0.347635 0.117504
H193  H     H_    0.168494 0.156251 0.452836 0.090086
H194  H     H_    0.117688 0.205407 0.364427 0.117074
H195  H     H_    0.110634 0.151159 0.264319 0.116393
H196  H     H_    0.155868 0.046684 0.252827 0.113701
H197  H     H_    0.530278 0.866899 0.131810 0.092593
H198  H     H_    0.206492 0.996479 0.341165 0.101841
H199  H     H_    0.862950 0.857274 0.543911 0.093021
H200  H     H_    0.816930 0.912323 0.631964 0.116790
H201  H     H_    0.862303 0.901257 0.736398 0.114653
H202  H     H_    0.954956 0.835667 0.751940 0.114498
H203  H     H_    0.002085 0.781271 0.663608 0.108526
H204  H     H_    0.196638 0.835475 0.543173 0.111180
H205  H     H_    0.144268 0.776040 0.624099 0.125039
H206  H     H_    0.107461 0.827383 0.719063 0.111325
H207  H     H_    0.124274 0.939507 0.733491 0.112669
H208  H     H_    0.613441 0.918708 0.189412 0.125490
H209  H     H_    0.175657 0.000009 0.652597 0.115826
H210  H     H_    0.135249 0.137535 0.543075 0.089288
H211  H     H_    0.194972 0.101195 0.632064 0.115531
H212  H     H_    0.160441 0.125615 0.738311 0.123925
H213  H     H_    0.067247 0.190200 0.754469 0.112935
H214  H     H_    0.009985 0.231523 0.665185 0.103123
H215  H     H_    0.867379 0.130281 0.531026 0.094832
H216  H     H_    0.916972 0.189807 0.613881 0.124136
H217  H     H_    0.893662 0.166610 0.723369 0.121682
H218  H     H_    0.819935 0.083223 0.749198 0.114134
H219  H     H_    0.722831 0.896134 0.164960 0.119834
H220  H     H_    0.769477 0.023586 0.666223 0.103591
H221  H     H_    0.858984 0.526872 0.863866 0.093570
H222  H     H_    0.913428 0.607120 0.804806 0.122389
H223  H     H_    0.901095 0.717207 0.833046 0.117545
H224  H     H_    0.834595 0.746613 0.921405 0.115486
H225  H     H_    0.780599 0.666455 0.981308 0.101033
H226  H     H_    0.863499 0.525776 0.140098 0.093260
H227  H     H_    0.801518 0.606432 0.088945 0.121218
H228  H     H_    0.827907 0.716586 0.103613 0.113121
H229  H     H_    0.916736 0.745687 0.169783 0.115600
H230  H     H_    0.748631 0.821643 0.081899 0.114523
H231  H     H_    0.978765 0.665162 0.221440 0.102144
H232  H     H_    0.132392 0.533824 0.130877 0.091987
H233  H     H_    0.084355 0.618539 0.189439 0.121909
H234  H     H_    0.109035 0.727060 0.164017 0.114602
H235  H     H_    0.182317 0.750364 0.079496 0.113806
H236  H     H_    0.231276 0.665785 0.021009 0.105798
H237  H     H_    0.131486 0.530915 0.867367 0.093574
H238  H     H_    0.188138 0.614275 0.919772 0.124636
H239  H     H_    0.163328 0.723524 0.897038 0.122297
H240  H     H_    0.080554 0.748995 0.822003 0.113753
O1    O     O_R   0.448310 0.091640 0.999960 -0.613857
O2    O     O_R   0.000040 0.908360 0.551690 -0.607272
O3    O     O_R   0.908360 0.999960 0.551690 -0.612727
O4    O     O_R   0.999960 0.091640 0.551690 -0.613832
O5    O     O_R   0.908360 0.000040 0.448310 -0.611494
O6    O     O_R   0.999960 0.908360 0.448310 -0.608623
O7    O     O_R   0.091640 0.999960 0.448310 -0.610399
O8    O     O_R   0.000040 0.091640 0.448310 -0.613745
O9    O     O_R   0.000040 0.448310 0.908360 -0.615707
O10   O     O_R   0.908360 0.448310 0.999960 -0.612446
O11   O     O_R   0.999960 0.448310 0.091640 -0.612345
O12   O     O_R   0.448310 0.000040 0.091640 -0.615564
O13   O     O_R   0.091640 0.448310 0.000040 -0.615179
O14   O     O_R   0.000040 0.551690 0.091640 -0.612579
O15   O     O_R   0.908360 0.551690 0.000040 -0.608000
O16   O     O_R   0.999960 0.551690 0.908360 -0.608265
O17   O     O_R   0.091640 0.551690 0.999960 -0.612409
O18   O     O_R   0.948310 0.591640 0.499960 -0.613835
O19   O     O_R   0.948310 0.500040 0.591640 -0.615549
O20   O     O_R   0.948310 0.408360 0.500040 -0.613498
O21   O     O_R   0.948310 0.499960 0.408360 -0.611764
O22   O     O_R   0.051690 0.408360 0.499960 -0.607272
O23   O     O_R   0.448310 0.908360 0.000040 -0.613545
O24   O     O_R   0.051690 0.499960 0.591640 -0.610706
O25   O     O_R   0.051690 0.591640 0.500040 -0.613292
O26   O     O_R   0.051690 0.500040 0.408360 -0.607553
O27   O     O_R   0.591640 0.500040 0.051690 -0.619326
O28   O     O_R   0.500040 0.408360 0.051690 -0.607291
O29   O     O_R   0.408360 0.499960 0.051690 -0.612748
O30   O     O_R   0.499960 0.591640 0.051690 -0.613784
O31   O     O_R   0.408360 0.500040 0.948310 -0.611513
O32   O     O_R   0.499960 0.408360 0.948310 -0.608571
O33   O     O_R   0.591640 0.499960 0.948310 -0.610375
O34   O     O_R   0.448310 0.999960 0.908360 -0.611779
O35   O     O_R   0.500040 0.591640 0.948310 -0.613819
O36   O     O_R   0.500040 0.948310 0.408360 -0.615709
O37   O     O_R   0.408360 0.948310 0.499960 -0.612449
O38   O     O_R   0.499960 0.948310 0.591640 -0.612329
O39   O     O_R   0.591640 0.948310 0.500040 -0.615191
O40   O     O_R   0.500040 0.051690 0.591640 -0.612590
O41   O     O_R   0.408360 0.051690 0.500040 -0.608029
O42   O     O_R   0.499960 0.051690 0.408360 -0.608199
O43   O     O_R   0.591640 0.051690 0.499960 -0.612394
O44   O     O_R   0.551690 0.908360 0.999960 -0.607234
O45   O     O_R   0.551690 0.999960 0.091640 -0.610692
O46   O     O_R   0.551690 0.091640 0.000040 -0.613258
O47   O     O_R   0.551690 0.000040 0.908360 -0.607586
O48   O     O_R   0.091640 0.000040 0.551690 -0.619357
Zn1   Zn    Zn3+2 0.430960 0.000000 0.000000 0.985945
Zn2   Zn    Zn3+2 0.500000 0.500000 0.930960 0.985455
Zn3   Zn    Zn3+2 0.500000 0.930960 0.500000 0.979414
Zn4   Zn    Zn3+2 0.500000 0.069040 0.500000 0.993578
Zn5   Zn    Zn3+2 0.569040 0.000000 0.000000 0.993098
Zn6   Zn    Zn3+2 1.000000 0.000000 0.569040 0.987215
Zn7   Zn    Zn3+2 0.000000 0.000000 0.430960 0.985443
Zn8   Zn    Zn3+2 1.000000 0.430960 0.000000 0.979412
Zn9   Zn    Zn3+2 0.000000 0.569040 0.000000 0.993564
Zn10  Zn    Zn3+2 0.930960 0.500000 0.500000 0.985939
Zn11  Zn    Zn3+2 0.069040 0.500000 0.500000 0.993103
Zn12  Zn    Zn3+2 0.500000 0.500000 0.069040 0.987270

loop_
_geom_bond_atom_site_label_1
_geom_bond_atom_site_label_2
_ccdc_geom_bond_type
C172  C177  A    
C27   H124  S    
C126  C127  A    
C267  H116  S    
C124  O42   A    
C216  H73   S    
C19   C20   A    
C220  H76   S    
C214  H71   S    
C105  C110  A    
C114  C115  A    
C281  H127  S    
C252  C258  A    
C79   O33   A    
C248  C249  A    
C282  C283  A    
C23   H101  S    
C354  C361  A    
C99   H215  S    
C5    H186  S    
C111  C118  A    
C68   O21   A    
C172  C173  A    
C42   H168  S    
C320  C349  A    
C6    C179  S    
C44   H170  S    
C106  C107  A    
C274  H121  S    
C190  C355  A    
C11   H2    S    
C126  C324  S    
C206  H64   S    
C17   H46   S    
C307  H149  S    
C246  C340  A    
C274  C275  A    
C73   C74   A    
O9    Zn8   S    
C182  C183  A    
C24   C375  S    
C305  C354  S    
C140  H9    S    
C101  O29   A    
C31   H159  S    
C275  C276  A    
C272  C273  A    
C254  H104  S    
C338  C359  A    
C74   H194  S    
C176  C177  A    
C73   H193  S    
C101  C367  S    
C330  O48   A    
C324  C369  A    
C91   H209  S    
C2    O15   A    
C49   H173  S    
C139  C326  S    
C199  C200  A    
C21   C22   A    
C292  C297  A    
C234  C236  A    
C228  C229  A    
C32   C224  S    
C217  H74   S    
C45   C47   A    
O34   Zn1   S    
C202  C203  A    
C352  C380  S    
C342  C365  A    
C33   C34   A    
C140  C141  A    
C227  H81   S    
C6    C11   A    
C172  C332  S    
C206  C207  A    
C100  H216  S    
C276  H123  S    
C71   H192  S    
C314  C315  A    
C213  C214  A    
C142  H11   S    
C316  C317  A    
C245  C344  S    
C75   C76   A    
C229  C230  A    
C208  H66   S    
C303  C304  A    
C268  C380  A    
C157  O43   A    
C107  H222  S    
C14   C15   A    
C306  C307  A    
C301  C335  A    
C293  H137  S    
C148  C149  A    
C36   H162  S    
C230  H84   S    
C154  C155  A    
C89   H207  S    
C251  H102  S    
C52   C58   A    
C146  O40   A    
C228  H82   S    
C341  O2    A    
C263  H111  S    
C70   H191  S    
C272  C348  S    
C153  H20   S    
C284  H130  S    
C198  C204  A    
C218  C339  S    
C278  C349  S    
C335  C360  A    
C298  C299  A    
C181  H43   S    
C383  C384  A    
O7    Zn7   S    
C224  C373  A    
O12   Zn1   S    
C67   C69   A    
C205  C206  A    
C337  C362  A    
C173  H37   S    
C197  H58   S    
C72   C73   A    
C45   C246  S    
C139  C140  A    
C115  H227  S    
C6    C7    A    
C169  H33   S    
C384  H112  S    
C174  H38   S    
C148  H16   S    
C170  H34   S    
C135  O41   A    
C198  C336  S    
C221  H77   S    
C223  O23   A    
C130  C131  A    
C175  C176  A    
C282  H128  S    
C276  C277  A    
C101  O31   A    
C130  H240  S    
C30   C31   A    
O44   Zn5   S    
C81   H200  S    
C123  H235  S    
C289  H134  S    
C156  C158  A    
C15   H24   S    
C138  H8    S    
C166  H31   S    
C127  H237  S    
C134  H5    S    
C323  C346  A    
C16   H35   S    
C69   C70   A    
C192  C335  S    
O1    Zn1   S    
C195  C196  A    
C178  C333  S    
C88   C89   A    
C331  C362  A    
C332  C366  A    
C98   C99   A    
C199  H59   S    
C155  C156  A    
C8    H208  S    
C22   C23   A    
C104  H220  S    
C333  C360  A    
C26   C212  S    
C184  H47   S    
C82   C83   A    
C186  C187  A    
C149  C150  A    
C185  C334  S    
C305  C310  A    
O8    Zn7   S    
C252  C253  A    
C270  H118  S    
C53   H177  S    
C165  C171  A    
C82   H201  S    
C47   H171  S    
C321  C377  A    
O19   Zn10  S    
C113  C357  S    
C326  C334  A    
C95   C96   A    
C231  H85   S    
C57   O20   A    
C147  C148  A    
C164  H30   S    
C128  C129  A    
C265  C347  S    
C161  H27   S    
C313  C314  A    
C7    C8    A    
C167  C169  A    
C53   C54   A    
C108  C109  A    
C262  H110  S    
C249  C250  A    
C221  C222  A    
C215  H72   S    
C3    H164  S    
O17   Zn9   S    
C36   C37   A    
C124  C356  S    
O5    Zn7   S    
C318  C370  A    
C256  H106  S    
C253  C254  A    
C246  C376  A    
C170  C171  A    
C52   C257  S    
C115  C116  A    
C363  O8    A    
C19   C201  S    
C236  C237  A    
C210  H69   S    
C98   C320  S    
C241  C242  A    
C139  C144  A    
C243  H95   S    
C189  C191  A    
C72   C290  S    
C252  C345  S    
C92   C93   A    
C349  C361  A    
C146  O38   A    
C80   H199  S    
C151  H19   S    
C24   O17   A    
C190  C379  A    
C47   C48   A    
C299  H142  S    
C256  C258  A    
C244  H96   S    
C144  H14   S    
C107  C108  A    
C287  H132  S    
O37   Zn3   S    
C257  C372  A    
C264  H114  S    
C89   C91   A    
C202  H61   S    
C9    C10   A    
O31   Zn2   S    
C118  H231  S    
C66   C67   A    
O16   Zn9   S    
O28   Zn12  S    
C237  C238  A    
C340  C357  A    
O23   Zn1   S    
C241  H93   S    
C350  C356  A    
C236  H88   S    
C1    O1    A    
C220  C221  A    
C92   C97   A    
O2    Zn6   S    
C85   C312  S    
C2    O10   A    
C283  H129  S    
C90   C359  S    
C322  C371  A    
C96   H213  S    
C286  H131  S    
C10   H230  S    
C280  C281  A    
C247  H97   S    
C143  H12   S    
C146  C358  S    
O45   Zn5   S    
C39   C40   A    
C16   C17   A    
C147  H15   S    
C222  C225  A    
C324  C329  A    
C48   H172  S    
C55   H179  S    
C186  H48   S    
C369  C374  S    
C88   H206  S    
C110  H225  S    
C67   H189  S    
C293  C294  A    
C83   C84   A    
C249  H99   S    
C325  C377  A    
C316  H156  S    
C209  C210  A    
C183  C184  A    
C37   H163  S    
C204  H63   S    
C145  C151  A    
C20   C21   A    
C177  H41   S    
C330  O7    A    
O40   Zn4   S    
C83   H202  S    
C343  C359  A    
C344  C365  A    
C200  C202  A    
C193  C194  A    
C119  C323  S    
O22   Zn11  S    
C311  C313  A    
C219  C220  A    
C57   O22   A    
C61   H183  S    
C114  H226  S    
O11   Zn8   S    
C111  C322  S    
C336  C366  A    
C3    C4    A    
C212  C381  A    
C52   C53   A    
C129  C130  A    
C93   H210  S    
C309  H151  S    
C54   C55   A    
C132  C325  S    
C345  C357  A    
C270  C271  A    
C219  H75   S    
C271  H119  S    
C112  O45   A    
C30   H157  S    
C334  C368  A    
C39   C44   A    
C235  C379  A    
C157  O39   A    
C285  C291  A    
C205  C337  S    
C43   H169  S    
C14   H13   S    
C193  H53   S    
C117  C118  A    
C260  C261  A    
C374  O16   A    
C205  C210  A    
C131  H3    S    
C240  C241  A    
C56   C58   A    
C145  C327  S    
C34   C36   A    
C240  H92   S    
C61   C62   A    
C318  C331  A    
C10   C11   A    
C63   C64   A    
C304  H147  S    
C86   H204  S    
C352  O5    A    
C59   C60   A    
C237  H89   S    
C152  C153  A    
C152  C328  S    
C49   C50   A    
C56   H180  S    
C283  C284  A    
C159  C164  A    
C277  H125  S    
C3    C384  A    
C62   H184  S    
C133  H4    S    
C259  C260  A    
C168  C350  A    
C374  O9    A    
C69   H190  S    
C312  C351  A    
C55   C56   A    
C382  C383  A    
C223  C376  S    
C257  C333  A    
C41   C42   A    
C79   O27   A    
C239  C240  A    
C9    H219  S    
C161  C162  A    
C263  C264  A    
C68   C366  S    
C181  C182  A    
C120  C121  A    
O38   Zn3   S    
C328  C371  A    
C26   C27   A    
C93   C94   A    
O20   Zn10  S    
C168  C381  A    
C41   H167  S    
C308  H150  S    
C28   C29   A    
C285  C350  S    
C295  H139  S    
C123  C125  A    
C64   H187  S    
C212  C353  A    
C103  H218  S    
C132  C138  A    
C243  C244  A    
C182  H44   S    
C203  H62   S    
C285  C286  A    
C2    C377  S    
C180  H42   S    
C29   H146  S    
C145  C147  A    
C313  H153  S    
C191  H52   S    
C54   H178  S    
C208  C209  A    
C163  H29   S    
C185  C191  A    
C70   C71   A    
C66   H188  S    
C209  H67   S    
C29   C30   A    
C175  H39   S    
C327  C339  A    
C176  H40   S    
C348  C358  A    
C250  H100  S    
C21   H79   S    
C194  C195  A    
C245  C251  A    
C315  C316  A    
C269  C270  A    
C105  C321  S    
C260  H108  S    
O4    Zn6   S    
C346  C367  A    
C116  H228  S    
C95   H212  S    
C84   H203  S    
C122  H234  S    
C300  C302  A    
C189  H51   S    
C121  H233  S    
C97   H214  S    
C194  H54   S    
C211  C217  A    
C152  C158  A    
C363  O4    A    
C211  C338  S    
O10   Zn8   S    
C128  H238  S    
C235  C348  A    
O13   Zn8   S    
C259  C264  A    
C298  C353  S    
C295  C296  A    
C86   C87   A    
C136  C137  A    
C233  H86   S    
C102  H217  S    
C250  C251  A    
C85   C86   A    
C20   H68   S    
C154  H21   S    
C179  C345  A    
C207  C208  A    
C60   C61   A    
C312  C378  A    
O21   Zn10  S    
C62   C63   A    
C46   C368  S    
C133  C134  A    
C90   O28   A    
C159  C160  A    
C207  H65   S    
O24   Zn11  S    
C141  H10   S    
C50   C51   A    
C59   C64   A    
O27   Zn12  S    
C125  H236  S    
C13   C371  S    
C317  H158  S    
O3    Zn6   S    
C280  H126  S    
C35   O18   A    
C121  C122  A    
C262  C263  A    
C325  C344  A    
C296  H140  S    
C48   C49   A    
C239  C343  S    
C245  C247  A    
C225  H80   S    
C51   H176  S    
O43   Zn4   S    
C211  C213  A    
C42   C43   A    
C127  C128  A    
C213  H70   S    
C46   O19   A    
C353  C356  A    
C180  C181  A    
C329  C368  A    
C162  C163  A    
C230  C231  A    
C108  H223  S    
C315  H155  S    
C307  C308  A    
C292  C293  A    
C302  H144  S    
O26   Zn11  S    
C341  C372  S    
C196  H56   S    
C266  H115  S    
C135  C364  S    
O35   Zn2   S    
C75   H195  S    
C5    C382  A    
C7    H197  S    
C38   H165  S    
C178  C180  A    
C119  C120  A    
C275  H122  S    
C327  C375  A    
C322  C336  A    
C105  C106  A    
C319  O34   A    
C222  H78   S    
C32   C33   A    
C254  C255  A    
C143  C144  A    
C265  C271  A    
C183  H45   S    
C187  C188  A    
C135  O37   A    
C109  C110  A    
C192  C193  A    
C267  C269  A    
C185  C186  A    
C261  C262  A    
O18   Zn10  S    
C58   H181  S    
C4    C5    A    
C311  C317  A    
C232  C233  A    
C179  C376  A    
C111  C114  A    
C78   C80   A    
C215  C216  A    
C22   H90   S    
C94   C95   A    
C351  C364  A    
C79   C365  S    
C46   O24   A    
C201  C338  A    
C87   C88   A    
C305  C306  A    
O33   Zn2   S    
C311  C355  S    
C103  C104  A    
C142  C143  A    
C306  H148  S    
C90   O32   A    
C226  C231  A    
O46   Zn5   S    
C4    H175  S    
C78   C301  S    
C269  H117  S    
C203  C204  A    
C165  C166  A    
C278  C280  A    
C169  C170  A    
C273  H120  S    
C68   O26   A    
C163  C164  A    
C301  C372  A    
C33   H160  S    
C187  H49   S    
C43   C44   A    
C171  H36   S    
C81   C82   A    
C85   C91   A    
C321  C342  A    
C1    C373  S    
C173  C174  A    
C113  O30   A    
C124  O36   A    
C112  C381  S    
C37   C38   A    
C224  C343  A    
C261  H109  S    
C59   C268  S    
C259  C346  S    
O42   Zn4   S    
C1    O46   A    
C112  O12   A    
C286  C287  A    
C13   O11   A    
C255  H105  S    
C45   C51   A    
C136  H6    S    
C15   C16   A    
O6    Zn7   S    
C196  C197  A    
C116  C117  A    
C227  C228  A    
C290  C347  A    
C174  C175  A    
C300  H143  S    
C287  C288  A    
C65   C71   A    
C8    C9    A    
C149  H17   S    
C17   C18   A    
C65   C279  S    
C216  C217  A    
C297  H141  S    
C239  C244  A    
C294  C295  A    
C32   C38   A    
C265  C266  A    
C218  C225  A    
C268  C354  A    
C35   O25   A    
C120  H232  S    
C26   C31   A    
C290  C378  A    
C278  C284  A    
C242  H94   S    
C232  C238  A    
C238  H91   S    
C102  C103  A    
C109  H224  S    
C195  H55   S    
C160  H26   S    
C137  H7    S    
O48   Zn6   S    
C242  C243  A    
C155  H22   S    
C326  C369  A    
C341  O6    A    
C159  C329  S    
C74   C75   A    
O41   Zn4   S    
C18   H57   S    
C248  H98   S    
C76   C77   A    
C223  O44   A    
C299  C300  A    
C214  C215  A    
C132  C133  A    
C134  C136  A    
C314  H154  S    
C281  C282  A    
C192  C197  A    
C328  C332  A    
O29   Zn12  S    
O47   Zn5   S    
C188  C189  A    
C253  H103  S    
C291  H136  S    
C383  H1    S    
C363  C370  S    
C72   C77   A    
C162  H28   S    
C77   H198  S    
C258  H107  S    
C40   H166  S    
C99   C100  A    
C319  O47   A    
C50   H174  S    
C157  C361  S    
C96   C97   A    
C100  C102  A    
C273  C274  A    
C165  C331  S    
C94   H211  S    
C226  C227  A    
C298  C304  A    
C129  H239  S    
C198  C199  A    
C13   O14   A    
C117  H229  S    
C40   C41   A    
C330  C378  S    
C320  C380  A    
C12   C14   A    
C35   C360  S    
O39   Zn3   S    
C60   H182  S    
C166  C167  A    
C339  C367  A    
C201  C373  A    
C272  C277  A    
C255  C256  A    
C28   H135  S    
C119  C125  A    
C308  C309  A    
C156  H23   S    
O30   Zn12  S    
C233  C234  A    
C302  C303  A    
C296  C297  A    
C310  H152  S    
C279  C337  A    
O32   Zn2   S    
C150  C151  A    
O36   Zn3   S    
C347  C364  A    
C200  H60   S    
C92   C318  S    
C80   C81   A    
C319  C379  S    
C247  C248  A    
C303  H145  S    
C352  O3    A    
C167  H32   S    
O15   Zn9   S    
C12   C190  S    
C137  C138  A    
C34   H161  S    
C168  C382  S    
C288  C289  A    
C113  O35   A    
C57   C362  S    
C294  H138  S    
C232  C342  S    
O14   Zn9   S    
C141  C142  A    
C229  H83   S    
C279  C370  A    
C39   C235  S    
C234  H87   S    
C292  C351  S    
C218  C219  A    
C24   O13   A    
C226  C340  S    
C126  C131  A    
C98   C104  A    
C289  C291  A    
C309  C310  A    
C25   H113  S    
C23   C25   A    
C288  H133  S    
C19   C25   A    
C160  C161  A    
O25   Zn11  S    
C106  H221  S    
C266  C267  A    
C188  H50   S    
C78   C84   A    
C355  C358  A    
C65   C66   A    
C12   C18   A    
C27   C28   A    
C122  C123  A    
C87   H205  S    
C76   H196  S    
C153  C154  A    
C323  C375  A    
C158  H25   S    
C178  C184  A    
C150  H18   S    
C63   H185  S    
