data_mof_unit_41715.cif
_audit_creation_date              2012-12-10T18:59:53-0500
_audit_creation_method            fapswitch 2.2
_symmetry_space_group_name_H-M    P1
_symmetry_Int_Tables_number       1
_space_group_crystal_system       triclinic
_cell_length_a                    10.766524
_cell_length_b                    10.711333
_cell_length_c                    9.849783
_cell_angle_alpha                 89.982224
_cell_angle_beta                  90.317399
_cell_angle_gamma                 89.827659
_cell_volume                      1135.89201075

loop_
_atom_site_label
_atom_site_type_symbol
_atom_type_description
_atom_site_fract_x
_atom_site_fract_y
_atom_site_fract_z
_atom_type_partial_charge
C1    C     C_R   0.500754 0.259883 0.499960 0.866561
C2    C     C_R   0.501546 0.740053 0.500002 0.870461
C3    C     C_R   0.871944 0.530437 0.504232 -0.188760
C4    C     C_R   0.126568 0.520436 0.501820 -0.205654
C5    C     C_R   0.936044 0.520619 0.628227 -0.139725
C6    C     C_R   0.063605 0.570325 0.387432 -0.099078
C7    C     C_R   0.487427 0.063824 0.377114 -0.193365
C8    C     C_R   0.522540 0.935873 0.622155 -0.170314
C9    C     C_R   0.488723 0.936081 0.376974 -0.188244
C10   C     C_R   0.521771 0.063740 0.622201 -0.193234
C11   C     C_R   0.504782 0.872447 0.499705 -0.016551
C12   C     C_R   0.503214 0.127359 0.499828 -0.010051
C13   C     C_R   0.475454 0.606714 0.071575 -0.080391
C14   C     C_R   0.523281 0.392836 0.928387 -0.080919
C15   C     C_R   0.475699 0.606823 0.927940 -0.025925
C16   C     C_R   0.523406 0.392869 0.072033 -0.105203
C17   C     C_R   0.259544 0.504436 0.499982 0.959748
C18   C     C_R   0.739684 0.510227 0.500848 0.951215
C19   C     C_R   0.206801 0.826990 0.176117 -0.325867
C20   C     C_R   0.785912 0.580098 0.972508 -0.278687
C21   C     C_R   0.165287 0.759546 0.289104 0.060210
C22   C     C_R   0.837621 0.515314 0.862124 0.058923
C23   C     C_R   0.129696 0.633753 0.274352 0.157245
C24   C     C_R   0.885237 0.583539 0.751300 0.159072
C25   C     C_R   0.138836 0.575875 0.146403 0.030465
C26   C     C_R   0.880633 0.715610 0.753318 0.028889
C27   C     C_R   0.178109 0.645263 0.033801 -0.212491
C28   C     C_R   0.826258 0.777724 0.863227 -0.178721
C29   C     C_R   0.211203 0.770703 0.047320 0.459733
C30   C     C_R   0.778212 0.711316 0.972256 0.454800
C31   C     C_R   0.933669 0.568915 0.386792 0.426414
C32   C     C_R   0.062435 0.496227 0.623811 0.393476
H1    H     H_    0.456785 0.692629 0.873910 0.170726
H2    H     H_    0.543231 0.307198 0.126016 0.137163
H3    H     H_    0.232816 0.923961 0.188432 0.143412
H4    H     H_    0.750175 0.528228 0.057877 0.192041
H5    H     H_    0.183387 0.601528 0.935181 0.211146
H6    H     H_    0.821305 0.878742 0.864470 0.158846
H7    H     H_    0.472945 0.112312 0.281750 0.151781
H8    H     H_    0.536661 0.887179 0.717490 0.163871
H9    H     H_    0.475100 0.887656 0.281528 0.165180
H10   H     H_    0.535524 0.112277 0.717549 0.148323
H11   H     H_    0.456406 0.692437 0.125361 0.148098
H12   H     H_    0.542955 0.307138 0.874740 0.125231
N1    N     N_R   0.499970 0.499970 0.857200 -0.082505
N2    N     N_R   0.500030 0.500030 0.142800 -0.089781
O1    O     O_R   0.499990 0.316750 0.614620 -0.636592
O2    O     O_R   0.500010 0.683250 0.385380 -0.637638
O3    O     O_R   0.499990 0.316780 0.385290 -0.638561
O4    O     O_R   0.500010 0.683220 0.614710 -0.638218
O5    O     O_R   0.316760 0.500000 0.614660 -0.539790
O6    O     O_R   0.683240 0.500000 0.385340 -0.564357
O7    O     O_R   0.316760 0.500020 0.385330 -0.624788
O8    O     O_R   0.683240 0.499980 0.614670 -0.643039
Zn1   Zn    Zn3+2 0.500000 0.499980 0.653120 0.974665
Zn2   Zn    Zn3+2 0.500000 0.500020 0.346880 0.961427
O9    O     O_3   0.248318 0.835187 0.933399 -0.786991
H13   H     H_    0.269792 0.921788 0.960033 0.327961
O10   O     O_3   0.724490 0.777674 0.076690 -0.777560
H14   H     H_    0.692500 0.718295 0.145039 0.369082
N3    N     N_3   0.153599 0.820414 0.417771 -0.466558
H15   H     H_    0.093768 0.896711 0.405624 0.203514
H16   H     H_    0.240686 0.854683 0.445914 0.193726
N4    N     N_3   0.841524 0.381076 0.861772 -0.485485
H17   H     H_    0.780535 0.349271 0.786676 0.212580
H18   H     H_    0.809249 0.345745 0.954001 0.181928
N5    N     N_3   0.104741 0.447615 0.130593 -0.440397
H19   H     H_    0.031983 0.443132 0.060223 0.201850
H20   H     H_    0.180735 0.399823 0.089899 0.203648
N6    N     N_3   0.931759 0.786048 0.642878 -0.444555
H21   H     H_    0.028330 0.778567 0.650673 0.223644
H22   H     H_    0.910270 0.880854 0.652869 0.187385
O11   O     O_3   0.863672 0.612006 0.278353 -0.773305
H23   H     H_    0.914657 0.661347 0.215283 0.349230
O12   O     O_3   0.125821 0.455549 0.738214 -0.761352
H24   H     H_    0.066467 0.426731 0.807454 0.340986

loop_
_geom_bond_atom_site_label_1
_geom_bond_atom_site_label_2
_ccdc_geom_bond_type
C10   H10   S    
O11   H23   S    
C25   N5    S    
C17   O5    A    
C32   O12   S    
C18   O6    A    
C20   C30   A    
O1    Zn1   S    
C19   C21   A    
C24   C26   A    
C13   N2    A    
C31   O11   S    
C27   C29   A    
C3    C18   S    
O2    Zn2   S    
N3    H16   S    
C2    O4    A    
C16   H2    S    
N6    H21   S    
C14   C16   A    
C21   N3    S    
C5    C32   A    
C6    C31   A    
O10   H14   S    
C1    C12   S    
C2    C11   S    
C14   N1    A    
C7    C12   A    
N5    H19   S    
C4    C6    A    
C16   N2    A    
C1    O1    A    
C2    O2    A    
N5    H20   S    
N4    H18   S    
O12   H24   S    
C28   H6    S    
C30   O10   S    
C3    C31   A    
C9    C11   A    
C4    C32   A    
C10   C12   A    
C4    C17   S    
C29   O9    S    
C13   C15   A    
C26   N6    S    
C22   C24   A    
C15   N1    A    
C19   C29   A    
C17   O7    A    
C13   H11   S    
C14   H12   S    
O7    Zn2   S    
C7    C9    A    
O8    Zn1   S    
C26   C28   A    
C20   C22   A    
C3    C5    A    
C25   C27   A    
O3    Zn2   S    
C9    H9    S    
O4    Zn1   S    
N4    H17   S    
C21   C23   A    
C19   H3    S    
O9    H13   S    
C5    C24   S    
C27   H5    S    
C8    C11   A    
C6    C23   S    
C28   C30   A    
O5    Zn1   S    
C23   C25   A    
N3    H15   S    
C18   O8    A    
C22   N4    S    
C20   H4    S    
N1    Zn1   S    
C8    C10   A    
N2    Zn2   S    
C7    H7    S    
N6    H22   S    
C8    H8    S    
C1    O3    A    
C15   H1    S    
O6    Zn2   S    
