data_mof_unit_15514.cif
_audit_creation_date              2013-03-05T15:47:45-0500
_audit_creation_method            fapswitch 2.2
_symmetry_space_group_name_H-M    P1
_symmetry_Int_Tables_number       1
_space_group_crystal_system       triclinic
_cell_length_a                    10.818518
_cell_length_b                    13.008614
_cell_length_c                    11.629835
_cell_angle_alpha                 99.541912
_cell_angle_beta                  94.103297
_cell_angle_gamma                 90.270252
_cell_volume                      1609.70169255

loop_
_atom_site_label
_atom_site_type_symbol
_atom_site_description
_atom_site_fract_x
_atom_site_fract_y
_atom_site_fract_z
_atom_type_partial_charge
O1    O     O_R   0.506570 0.354460 0.582000 -0.553085
O2    O     O_R   0.493430 0.645540 0.418000 -0.559241
O3    O     O_R   0.490940 0.341410 0.386200 -0.573735
O4    O     O_R   0.509060 0.658590 0.613800 -0.570177
C1    C     C_R   0.495122 0.299516 0.479082 0.925954
C2    C     C_R   0.504725 0.700486 0.520906 0.929321
O5    O     O_R   0.327470 0.506520 0.597900 -0.611631
O6    O     O_R   0.672530 0.493480 0.402100 -0.604147
O7    O     O_R   0.311840 0.493460 0.402100 -0.574737
O8    O     O_R   0.688160 0.506540 0.597900 -0.576640
C3    C     C_R   0.262320 0.512719 0.501184 0.870056
C4    C     C_R   0.737253 0.486097 0.498781 0.870021
Cu1   Cu    Cu3+1 0.509250 0.507730 0.615930 1.020798
Cu2   Cu    Cu3+1 0.490750 0.492270 0.384070 1.020456
H1    H     H_    0.065746 0.501294 0.099653 0.146598
H2    H     H_    0.933766 0.487470 0.899255 0.152510
C5    C     C_R   0.129729 0.570829 0.718166 -0.104235
C6    C     C_R   0.869699 0.421764 0.282979 -0.098080
C7    C     C_R   0.080449 0.557331 0.822225 -0.093293
C8    C     C_R   0.919857 0.432071 0.178372 -0.039832
C9    C     C_R   0.969739 0.502209 0.818914 -0.091672
C10   C     C_R   0.029894 0.487935 0.180552 -0.052998
C11   C     C_R   0.903495 0.468158 0.712095 -0.072418
C12   C     C_R   0.095187 0.525198 0.287051 -0.075381
C13   C     C_R   0.946993 0.489340 0.606039 0.101307
C14   C     C_R   0.052100 0.505567 0.393895 0.097660
C15   C     C_R   0.068951 0.528340 0.608325 0.070658
C16   C     C_R   0.930332 0.466351 0.392043 0.067394
C17   C     C_R   0.873055 0.471979 0.498499 -0.161985
C18   C     C_R   0.126062 0.524325 0.501620 -0.160337
H3    H     H_    0.214118 0.616954 0.725008 0.167129
H4    H     H_    0.784716 0.376546 0.277511 0.163138
H5    H     H_    0.129515 0.587946 0.905368 0.153837
H6    H     H_    0.871309 0.399445 0.095628 0.155189
H7    H     H_    0.819993 0.422699 0.713737 0.198346
H8    H     H_    0.177537 0.571761 0.284328 0.195545
C19   C     C_R   0.516221 0.813006 0.531136 -0.268209
C20   C     C_R   0.483395 0.187004 0.468818 -0.265551
C21   C     C_R   0.374132 0.025194 0.390989 -0.128845
C22   C     C_R   0.625332 0.974859 0.608994 -0.126077
C23   C     C_R   0.387831 0.132047 0.394361 0.270207
C24   C     C_R   0.611763 0.868011 0.605550 0.270053
C25   C     C_R   0.563606 0.135198 0.539995 0.304972
C26   C     C_R   0.435916 0.864769 0.459948 0.297907
C27   C     C_R   0.547211 0.027805 0.537891 -0.049898
C28   C     C_R   0.452237 0.972200 0.462085 -0.051680
H9    H     H_    0.298726 0.984868 0.335069 0.232442
H10   H     H_    0.700686 0.015223 0.664964 0.231478
N1    N     N_R   0.523180 0.519350 0.790130 -0.233506
N2    N     N_R   0.476820 0.480650 0.209870 -0.236539
C29   C     C_R   0.383196 0.400238 0.021968 0.225713
C30   C     C_R   0.623011 0.594706 0.977322 0.227634
C31   C     C_R   0.393779 0.412041 0.144798 0.019159
C32   C     C_R   0.608360 0.586134 0.854845 0.016987
C33   C     C_R   0.551499 0.540973 0.157525 0.088298
C34   C     C_R   0.448876 0.458863 0.842557 0.085986
C35   C     C_R   0.546443 0.532894 0.034127 -0.097088
C36   C     C_R   0.459279 0.462515 0.965414 -0.101049
H11   H     H_    0.380679 0.408934 0.787592 0.187468
H12   H     H_    0.613552 0.596126 0.213245 0.196555
H13   H     H_    0.666883 0.632228 0.810621 0.207198
H14   H     H_    0.336441 0.364761 0.188731 0.210258
N3    N     N_R   0.297051 0.323844 0.957351 0.118845
O9    O     O_R   0.189910 0.309787 0.997094 -0.329095
O10   O     O_R   0.333662 0.255682 0.872145 -0.301972
N4    N     N_R   0.715797 0.665673 0.040899 0.115188
O11   O     O_R   0.735689 0.754788 0.008001 -0.261850
O12   O     O_R   0.794845 0.634501 0.116913 -0.380566
N5    N     N_R   0.336912 0.808039 0.387031 0.117267
O13   O     O_R   0.249624 0.763941 0.434053 -0.378151
O14   O     O_R   0.340732 0.791787 0.273897 -0.336167
N6    N     N_R   0.662858 0.191802 0.612630 0.115439
O15   O     O_R   0.750821 0.234680 0.565237 -0.385519
O16   O     O_R   0.658967 0.208806 0.725759 -0.323193
N7    N     N_R   0.700191 0.815960 0.673138 0.133464
O17   O     O_R   0.757273 0.734482 0.623390 -0.362093
O18   O     O_R   0.738999 0.859760 0.778488 -0.275193
N8    N     N_R   0.299542 0.184155 0.326670 0.132714
O19   O     O_R   0.242763 0.265834 0.376271 -0.363412
O20   O     O_R   0.260432 0.140245 0.221499 -0.281875

loop_
_geom_bond_atom_site_label_1
_geom_bond_atom_site_label_2
_geom_bond_distance
_ccdc_geom_bond_type
N4    O12   1.300467 A    
N3    O10   1.301243 A    
H2    C9    1.082571 S    
C4    C17   1.481645 S    
N7    O17   1.301344 A    
C21   C23   1.390961 A    
C27   C28   1.417081 A    
O5    C3    1.298298 A    
C33   H12   1.079074 S    
C24   N7    1.437531 S    
C12   H8    1.080244 S    
O1    C1    1.285739 A    
C16   C17   1.415034 A    
C7    C9    1.387925 A    
C12   C14   1.418962 A    
N8    O20   1.301290 A    
N1    C32   1.358969 A    
C19   C24   1.410326 A    
O4    Cu1   1.966745 S    
N5    O14   1.301236 A    
H1    C10   1.082412 S    
C3    C18   1.482815 S    
C26   C28   1.403715 A    
O7    C3    1.292884 A    
C8    H6    1.082665 S    
C22   C24   1.390631 A    
N4    O11   1.301172 A    
C1    C20   1.452829 S    
C15   C18   1.418802 A    
O2    C2    1.285598 A    
C30   C32   1.407586 A    
C13   C17   1.420038 A    
C22   C27   1.402417 A    
N2    C31   1.359256 A    
C5    C15   1.418437 A    
C29   N3    1.436771 S    
C20   C23   1.410490 A    
O4    C2    1.286302 A    
C7    H5    1.082692 S    
C23   N8    1.437695 S    
N8    O19   1.301045 A    
C29   C31   1.407473 A    
O7    Cu2   1.961585 S    
N7    O18   1.301814 A    
C31   H14   1.081704 S    
O6    C4    1.299047 A    
C2    C19   1.452774 S    
C6    C16   1.417378 A    
C26   N5    1.437360 S    
C29   C36   1.419249 A    
C25   C27   1.403368 A    
O3    Cu2   1.966748 S    
O8    C4    1.291862 A    
C21   C28   1.402625 A    
Cu1   N1    2.001117 S    
N6    O16   1.301241 A    
C8    C10   1.388282 A    
C14   C18   1.422225 A    
C11   H7    1.080422 S    
C33   C35   1.418538 A    
C5    H3    1.080953 S    
C10   C12   1.393012 A    
O1    Cu1   1.966949 S    
C30   N4    1.437121 S    
C21   H9    1.081927 S    
C22   H10   1.081995 S    
C25   N6    1.437089 S    
O6    Cu2   1.962471 S    
N6    O15   1.300956 A    
O3    C1    1.286197 A    
O8    Cu1   1.961585 S    
C32   H13   1.081753 S    
C13   C15   1.408238 A    
N1    C34   1.363930 A    
C14   C16   1.407864 A    
N2    C33   1.364502 A    
C34   H11   1.079429 S    
C19   C26   1.407505 A    
C9    C11   1.392928 A    
C20   C25   1.407155 A    
C35   C36   1.416852 A    
Cu2   N2    2.001117 S    
C5    C7    1.393385 A    
C34   C36   1.418034 A    
C6    C8    1.392956 A    
C11   C13   1.418875 A    
N5    O13   1.301030 A    
O2    Cu2   1.966946 S    
C30   C35   1.420327 A    
N3    O9    1.301263 A    
O5    Cu1   1.962470 S    
C6    H4    1.081410 S    
Cu1   Cu2   2.663488 S    
