data_mof_unit_13406.cif
_audit_creation_date              2013-03-05T15:52:44-0500
_audit_creation_method            fapswitch 2.2
_symmetry_space_group_name_H-M    P1
_symmetry_Int_Tables_number       1
_space_group_crystal_system       triclinic
_cell_length_a                    9.889661
_cell_length_b                    10.696318
_cell_length_c                    13.06308
_cell_angle_alpha                 92.937726
_cell_angle_beta                  68.882737
_cell_angle_gamma                 89.413769
_cell_volume                      1286.74818217

loop_
_atom_site_label
_atom_site_type_symbol
_atom_site_description
_atom_site_fract_x
_atom_site_fract_y
_atom_site_fract_z
_atom_type_partial_charge
O1    O     O_R   0.385310 0.683220 0.500000 -0.666066
O2    O     O_R   0.614640 0.683250 0.500010 -0.622278
C1    C     C_R   0.507194 0.737627 0.484062 0.865186
O3    O     O_R   0.328400 0.499950 0.653610 -0.569993
O4    O     O_R   0.557730 0.499970 0.653620 -0.642689
C2    C     C_R   0.417764 0.495261 0.705521 0.845318
Zn1   Zn    Zn3+2 0.346880 0.499980 0.499990 0.958672
Zn2   Zn    Zn3+2 0.653120 0.500020 0.500010 1.012606
O5    O     O_R   0.385360 0.316750 0.499990 -0.608524
O6    O     O_R   0.614690 0.316780 0.500000 -0.618607
O7    O     O_R   0.442270 0.500030 0.346380 -0.648671
O8    O     O_R   0.671600 0.500050 0.346390 -0.524531
C3    C     C_R   0.505569 0.258563 0.491541 0.895501
C4    C     C_R   0.582664 0.502287 0.294634 0.943665
C5    C     C_R   0.776288 0.366220 0.007900 -0.219821
H1    H     H_    0.767117 0.272410 0.818672 0.157516
H2    H     H_    0.868858 0.305914 0.960547 0.191648
C6    C     C_R   0.640606 0.490891 0.174120 -0.149089
C7    C     C_R   0.222001 0.539287 0.893086 -0.069095
C8    C     C_R   0.191202 0.568167 0.004349 -0.155924
C9    C     C_R   0.291036 0.541621 0.054041 -0.016809
C10   C     C_R   0.430691 0.488367 0.988475 -0.014690
C11   C     C_R   0.455670 0.448002 0.878027 0.076076
C12   C     C_R   0.546641 0.471037 0.027246 0.078991
C13   C     C_R   0.667368 0.391196 0.966274 0.126547
C14   C     C_R   0.677437 0.336070 0.865047 -0.188221
C15   C     C_R   0.573701 0.364716 0.821131 -0.173011
C16   C     C_R   0.548483 0.532783 0.123482 -0.351094
C17   C     C_R   0.762765 0.412998 0.113103 0.368926
C18   C     C_R   0.360716 0.488558 0.826755 -0.132258
H3    H     H_    0.472743 0.608636 0.165052 0.165771
H4    H     H_    0.083837 0.605256 0.054381 0.208668
H5    H     H_    0.584797 0.318435 0.742839 0.148761
C19   C     C_R   0.312667 0.873850 0.389199 -0.181264
H6    H     H_    0.298240 0.774451 0.386533 0.194493
C20   C     C_R   0.223939 0.943568 0.349884 -0.086682
H7    H     H_    0.141120 0.897864 0.326758 0.200751
C21   C     C_R   0.254587 0.067392 0.326228 -0.194569
H8    H     H_    0.199088 0.114769 0.280582 0.167259
C22   C     C_R   0.369549 0.123201 0.347585 0.004408
C23   C     C_R   0.436324 0.062138 0.412056 0.118254
C24   C     C_R   0.421596 0.932126 0.420581 0.053633
C25   C     C_R   0.525830 0.866059 0.450414 -0.169364
C26   C     C_R   0.652490 0.927312 0.450056 -0.086690
C27   C     C_R   0.641807 0.055621 0.474560 -0.080076
C28   C     C_R   0.525728 0.123979 0.461868 -0.155190
H9    H     H_    0.931396 0.347881 0.383935 0.209339
C29   C     C_R   0.793135 0.675177 0.639453 -0.163966
H10   H     H_    0.682190 0.680042 0.647613 0.196757
C30   C     C_R   0.832053 0.762190 0.706026 -0.204027
H11   H     H_    0.752096 0.829526 0.759669 0.153338
C31   C     C_R   0.972268 0.761222 0.705511 -0.193764
H12   H     H_    0.001381 0.827168 0.759243 0.150215
C32   C     C_R   0.074285 0.673047 0.638546 -0.114414
H13   H     H_    0.177424 0.671760 0.647316 0.193683
C33   C     C_R   0.039794 0.586350 0.567733 0.185436
C34   C     C_R   0.894932 0.586657 0.567968 0.180404
N1    N     N_R   0.856860 0.501200 0.500990 -0.122141
C35   C     C_R   0.959644 0.416160 0.436208 0.019096
H14   H     H_    0.180603 0.346664 0.385686 0.119674
C36   C     C_R   0.102363 0.415772 0.436827 -0.088757
N2    N     N_R   0.142450 0.501280 0.501020 -0.122319
N3    N     N_R   0.868087 0.374397 0.158147 0.209859
O9    O     O_R   0.928858 0.457753 0.201803 -0.395446
O10   O     O_R   0.922938 0.260698 0.137324 -0.372046
C37   C     C_2   0.444848 0.221161 0.274486 0.401637
H15   H     H_    0.387351 0.279891 0.237369 0.038782
O11   O     O_2   0.575820 0.229369 0.247325 -0.572674
C38   C     C_2   0.750216 0.114475 0.515087 0.393897
H16   H     H_    0.715010 0.160872 0.596602 0.053925
O12   O     O_2   0.878362 0.114172 0.456599 -0.592364
C39   C     C_2   0.099641 0.552892 0.854564 0.395735
H17   H     H_    0.026168 0.633957 0.883141 0.058094
O13   O     O_2   0.071770 0.468696 0.799271 -0.550534
C40   C     C_2   0.233752 0.548441 0.175948 0.451888
H18   H     H_    0.270643 0.480519 0.219533 0.057985
O14   O     O_2   0.144546 0.629599 0.228757 -0.535116
C41   C     C_2   0.795104 0.860004 0.423400 0.542568
H19   H     H_    0.863231 0.880218 0.470902 0.064015
O15   O     O_2   0.838742 0.782751 0.345619 -0.506199

loop_
_geom_bond_atom_site_label_1
_geom_bond_atom_site_label_2
_geom_bond_distance
_ccdc_geom_bond_type
C37   O11   1.218888 D    
C17   N3    1.435044 S    
C23   C24   1.405655 A    
C4    C6    1.466458 S    
C7    C8    1.390595 A    
C19   C24   1.422280 A    
C40   H18   1.082477 S    
N3    O10   1.301365 A    
C29   C34   1.412272 A    
C27   C28   1.418584 A    
C15   H5    1.081309 S    
Zn1   O7    1.884832 S    
C1    C25   1.457069 S    
C14   C15   1.382438 A    
C20   H7    1.082796 S    
O4    C2    1.306509 A    
O7    C4    1.308203 A    
C41   O15   1.221516 D    
C5    C13   1.399448 A    
C33   C34   1.431508 A    
C5    H2    1.084350 S    
C19   H6    1.074641 S    
C38   O12   1.221399 D    
O5    C3    1.302355 A    
Zn2   N1    2.019730 S    
C30   C31   1.384205 A    
C23   C28   1.423072 A    
C11   C15   1.412200 A    
C33   N2    1.371301 A    
C29   C30   1.391474 A    
C37   H15   1.084264 S    
C22   C37   1.473239 S    
C9    C10   1.430779 A    
C7    C39   1.476956 S    
C38   H16   1.084694 S    
O3    Zn1   1.948396 S    
C31   C32   1.390209 A    
C5    C17   1.397348 A    
C10   C11   1.416412 A    
H1    C14   1.084195 S    
C32   C33   1.406371 A    
C35   C36   1.414341 A    
C27   C38   1.488175 S    
C11   C18   1.411829 A    
C6    C16   1.387325 A    
C12   C13   1.418957 A    
C39   O13   1.220907 D    
C41   H19   1.084540 S    
C13   C14   1.389302 A    
H14   C36   1.075477 S    
O1    C1    1.296502 A    
C25   C26   1.418178 A    
Zn1   N2    2.016836 S    
Zn2   O8    1.948398 S    
C30   H11   1.082794 S    
C6    C17   1.416503 A    
C40   O14   1.221552 D    
O3    C2    1.295308 A    
C22   C23   1.421359 A    
C2    C18   1.483301 S    
O8    C4    1.288784 A    
C10   C12   1.424626 A    
C24   C25   1.420107 A    
C31   H12   1.082659 S    
C8    H4    1.084771 S    
Zn1   O5    1.992666 S    
C32   H13   1.066690 S    
C29   H10   1.063915 S    
O1    Zn1   2.000317 S    
C16   H3    1.078672 S    
O2    Zn2   1.992665 S    
C26   C27   1.387380 A    
C12   C16   1.395912 A    
C39   H17   1.085209 S    
O6    C3    1.287325 A    
O4    Zn2   1.884832 S    
C9    C40   1.483053 S    
C26   C41   1.492798 S    
O2    C1    1.292332 A    
N1    C35   1.363511 A    
C21   C22   1.397206 A    
C34   N1    1.380307 A    
C21   H8    1.083839 S    
C20   C21   1.387173 A    
C19   C20   1.392998 A    
C36   N2    1.365727 A    
H9    C35   1.080852 S    
N3    O9    1.298919 A    
C8    C9    1.397054 A    
Zn2   O6    2.000318 S    
C3    C28   1.464084 S    
C7    C18   1.416771 A    
