data_mof_unit_26974.cif
_audit_creation_date              2012-12-11T15:20:40-0500
_audit_creation_method            fapswitch 2.2
_symmetry_space_group_name_H-M    P1
_symmetry_Int_Tables_number       1
_space_group_crystal_system       triclinic
_cell_length_a                    12.976191
_cell_length_b                    13.048169
_cell_length_c                    15.330608
_cell_angle_alpha                 116.664892
_cell_angle_beta                  63.166448
_cell_angle_gamma                 97.415844
_cell_volume                      2061.05883914

loop_
_atom_site_label
_atom_site_type_symbol
_atom_type_description
_atom_site_fract_x
_atom_site_fract_y
_atom_site_fract_z
_atom_type_partial_charge
C1    C     C_R   0.010749 0.834619 0.041284 -0.119104
C2    C     C_R   0.295296 0.600043 0.791250 -0.131627
C3    C     C_R   0.260032 0.418930 0.049270 -0.174786
C4    C     C_R   0.677983 0.473690 0.218671 -0.125867
C5    C     C_R   0.986407 0.300632 0.696621 -0.122414
C6    C     C_R   0.364450 0.438223 0.977603 0.108033
C7    C     C_R   0.925166 0.206540 0.697951 0.048294
C8    C     C_R   0.290514 0.573094 0.695099 0.034064
C9    C     C_R   0.035553 0.143670 0.015136 0.048681
C10   C     C_R   0.953005 0.041097 0.421991 -0.174274
C11   C     C_R   0.932095 0.138580 0.517661 -0.171201
C12   C     C_R   0.667151 0.543406 0.322620 0.041530
C13   C     C_R   0.891266 0.127878 0.614554 0.143472
C14   C     C_R   0.843885 0.027111 0.619823 -0.168084
C15   C     C_R   0.864032 0.929777 0.524289 -0.171781
C16   C     C_R   0.757523 0.514411 0.889524 -0.165968
C17   C     C_R   0.930671 0.934470 0.424593 0.151636
C18   C     C_R   0.561125 0.655431 0.522701 -0.167605
C19   C     C_R   0.465888 0.663548 0.617001 -0.173308
C20   C     C_R   0.368105 0.607463 0.610425 0.143656
C21   C     C_R   0.357527 0.565170 0.513381 -0.169361
C22   C     C_R   0.453019 0.556263 0.419056 -0.168066
C23   C     C_R   0.666832 0.449734 0.919675 0.160228
C24   C     C_R   0.558779 0.590129 0.422045 0.145918
C25   C     C_2   0.475769 0.395870 0.953758 -0.189362
C26   C     C_2   0.574724 0.419126 0.886909 -0.221260
C27   C     C_2   0.852841 0.961824 0.067989 -0.217930
C28   C     C_R   0.964650 0.719277 0.316609 -0.131776
C29   C     C_2   0.839824 0.048684 0.163184 -0.133430
C30   C     C_R   0.679648 0.416171 0.986813 -0.128248
C31   C     C_R   0.045256 0.819583 0.220962 -0.133975
C32   C     C_R   0.777855 0.551746 0.316384 -0.121335
C33   C     C_R   0.906711 0.747635 0.949376 -0.147118
C34   C     C_R   0.979659 0.829087 0.324998 0.045185
C35   C     C_R   0.924716 0.853710 0.018150 0.141462
C36   C     C_R   0.339878 0.521477 0.955219 0.069379
C37   C     C_R   0.903578 0.200838 0.792509 -0.130615
C38   C     C_R   0.197080 0.509520 0.695199 -0.118850
C39   C     C_R   0.065307 0.250193 0.073611 -0.124411
C40   C     C_R   0.970362 0.166557 0.973475 -0.097672
H1    H     H_    0.050010 0.900936 0.086264 0.084863
H2    H     H_    0.960854 0.218011 0.512478 0.104543
H3    H     H_    0.803701 0.018689 0.694979 0.105191
H4    H     H_    0.610039 0.446208 0.193233 0.091152
H5    H     H_    0.835613 0.850190 0.529329 0.102733
H6    H     H_    0.639048 0.690959 0.528546 0.104667
H7    H     H_    0.474481 0.703418 0.691944 0.105330
H8    H     H_    0.280646 0.527662 0.506651 0.104848
H9    H     H_    0.445794 0.512640 0.343500 0.106348
H10   H     H_    0.473094 0.367580 0.011232 0.124334
H11   H     H_    0.580365 0.439199 0.824004 0.132036
H12   H     H_    0.846450 0.146683 0.826471 0.082081
H13   H     H_    0.802707 0.968613 0.029863 0.132013
H14   H     H_    0.884185 0.045783 0.207566 0.125436
H15   H     H_    0.781242 0.541502 0.826273 0.088828
H16   H     H_    0.934573 0.693756 0.381109 0.082377
H17   H     H_    0.637366 0.349509 0.010384 0.082153
H18   H     H_    0.088003 0.886453 0.198844 0.083738
H19   H     H_    0.799123 0.588336 0.383684 0.082450
H20   H     H_    0.844622 0.730459 0.916682 0.099239
H21   H     H_    0.470331 0.625815 0.955187 0.108177
H22   H     H_    0.466913 0.550588 0.831982 0.088837
H23   H     H_    0.158051 0.486492 0.640566 0.082654
H24   H     H_    0.105401 0.265002 0.125917 0.086620
H25   H     H_    0.927198 0.104776 0.928742 0.091286
H26   H     H_    0.343571 0.665777 0.825760 0.100164
H27   H     H_    0.249739 0.367251 0.090644 0.101031
H28   H     H_    0.006520 0.339406 0.642286 0.081120
H29   H     H_    0.994962 0.048883 0.346500 0.102733
N1    N     N_R   0.037310 0.720000 0.995790 -0.043689
N2    N     N_R   0.824890 0.517960 0.936420 -0.037593
N3    N     N_R   0.003210 0.648190 0.211380 -0.037353
N4    N     N_R   0.774330 0.457010 0.995840 -0.042343
N5    N     N_R   0.053760 0.709140 0.151960 -0.037741
N6    N     N_R   0.853860 0.498840 0.211410 -0.039179
N7    N     N_R   0.974240 0.667310 0.936390 -0.041868
N8    N     N_R   0.225670 0.542990 0.004160 -0.053073
N9    N     N_3   0.416898 0.596093 0.915894 -0.229901
N10   N     N_R   0.946240 0.290860 0.848040 -0.039092
N11   N     N_R   0.146140 0.501160 0.788590 -0.039911
N12   N     N_R   0.025760 0.332690 0.063610 -0.039563
N13   N     N_R   0.962690 0.280000 0.004210 -0.044783
N14   N     N_R   0.209210 0.553840 0.847990 -0.038931
N15   N     N_R   0.175110 0.482040 0.063580 -0.048839
N16   N     N_R   0.996790 0.351810 0.788620 -0.037833
N17   N     N_R   0.790790 0.446160 0.152010 -0.040563
Ni1   Ni    Ni4+2 0.130310 0.630310 0.999970 0.215785
Ni2   Ni    Ni4+2 0.869690 0.369690 0.000030 0.208814
Ni3   Ni    Ni4+2 0.985640 0.509470 0.863740 0.206240
Ni4   Ni    Ni4+2 0.014360 0.490530 0.136260 0.212332

loop_
_geom_bond_atom_site_label_1
_geom_bond_atom_site_label_2
_ccdc_geom_bond_type
N14   Ni1   S    
C27   C29   D    
C19   C20   A    
C3    C6    A    
C32   N6    A    
N12   N13   A    
C28   H16   S    
C39   H24   S    
C37   N10   A    
C8    C20   S    
C8    C38   A    
C18   C24   A    
C31   H18   S    
C36   N8    A    
C5    H28   S    
C19   H7    S    
C6    C25   S    
C4    N17   A    
C29   H14   S    
C10   C17   A    
C30   H17   S    
C9    C39   A    
C11   H2    S    
C18   C19   A    
C23   C26   S    
N11   Ni3   S    
C25   H10   S    
C33   N7    A    
N6    Ni4   S    
N5    Ni1   S    
C4    C12   A    
N7    Ni3   S    
C21   H8    S    
C5    N16   A    
C28   C34   A    
C13   C14   A    
C12   C32   A    
C2    N14   A    
C28   N3    A    
C16   N2    A    
N15   Ni4   S    
N11   N14   A    
N1    Ni1   S    
C18   H6    S    
N10   Ni2   S    
C3    H27   S    
C23   C30   A    
C40   N13   A    
C39   N12   A    
N3    N5    A    
N2    N4    A    
C37   H12   S    
N16   Ni3   S    
C31   N5    A    
C4    H4    S    
N8    N15   A    
C27   C35   S    
C25   C26   D    
C30   N4    A    
C9    C40   A    
N4    Ni2   S    
N3    Ni4   S    
N6    N17   A    
N2    Ni3   S    
H21   N9    S    
C7    C37   A    
C31   C34   A    
C22   H9    S    
N12   Ni4   S    
C1    H1    S    
C16   C23   A    
C40   H25   S    
N1    N7    A    
C22   C24   A    
C17   C34   S    
C15   H5    S    
N10   N16   A    
C1    C35   A    
C5    C7    A    
C38   H23   S    
C15   C17   A    
H22   N9    S    
C2    C8    A    
C2    H26   S    
C27   H13   S    
C33   H20   S    
C12   C24   S    
C1    N1    A    
C16   H15   S    
C36   N9    S    
C26   H11   S    
C11   C13   A    
C38   N11   A    
N13   Ni2   S    
C33   C35   A    
C6    C36   A    
N17   Ni2   S    
C10   C11   A    
C10   H29   S    
C7    C13   S    
C20   C21   A    
N8    Ni1   S    
C3    N15   A    
C14   C15   A    
C32   H19   S    
C21   C22   A    
C14   H3    S    
