data_mof_unit_30967.cif
_audit_creation_date              2012-12-10T18:42:29-0500
_audit_creation_method            fapswitch 2.2
_symmetry_space_group_name_H-M    P1
_symmetry_Int_Tables_number       1
_space_group_crystal_system       triclinic
_cell_length_a                    8.586504
_cell_length_b                    10.630561
_cell_length_c                    9.861584
_cell_angle_alpha                 90.162147
_cell_angle_beta                  98.721036
_cell_angle_gamma                 90.099329
_cell_volume                      889.745947659

loop_
_atom_site_label
_atom_site_type_symbol
_atom_type_description
_atom_site_fract_x
_atom_site_fract_y
_atom_site_fract_z
_atom_type_partial_charge
C1    C     C_R   0.495859 0.260366 0.499217 0.846266
C2    C     C_R   0.504139 0.739634 0.500783 0.846267
C3    C     C_R   0.201116 0.500124 0.464048 0.958065
C4    C     C_R   0.798884 0.499876 0.535952 0.958067
C5    C     C_2   0.035906 0.500324 0.444766 -0.373651
C6    C     C_2   0.964094 0.499676 0.555233 -0.373653
C7    C     C_R   0.616994 0.068026 0.447776 -0.114129
C8    C     C_R   0.383005 0.931974 0.552222 -0.114133
C9    C     C_R   0.626452 0.938384 0.449670 -0.019817
C10   C     C_R   0.373546 0.061616 0.550326 -0.019814
C11   C     C_R   0.506764 0.872094 0.501692 -0.148537
C12   C     C_R   0.493235 0.127906 0.498307 -0.148538
C13   C     C_R   0.598899 0.577476 0.085147 -0.058474
C14   C     C_R   0.401101 0.422524 0.914853 -0.058475
C15   C     C_R   0.598846 0.577440 0.941384 -0.052448
C16   C     C_R   0.401153 0.422559 0.058616 -0.052447
H1    H     H_    0.973841 0.501091 0.340039 0.184068
H2    H     H_    0.026159 0.498909 0.659961 0.184067
H3    H     H_    0.707880 0.123350 0.410325 0.187236
H4    H     H_    0.292118 0.876651 0.589673 0.187235
H5    H     H_    0.678041 0.639479 0.150105 0.133561
H6    H     H_    0.321959 0.360520 0.849895 0.133558
H7    H     H_    0.677943 0.639416 0.897647 0.138097
H8    H     H_    0.322057 0.360584 0.102353 0.138096
N1    N     N_R   0.499960 0.499970 0.857200 -0.086627
N2    N     N_R   0.500040 0.500030 0.142800 -0.086627
O1    O     O_R   0.499990 0.316750 0.614620 -0.621836
O2    O     O_R   0.500010 0.683250 0.385380 -0.621835
O3    O     O_R   0.499990 0.316780 0.385290 -0.612414
O4    O     O_R   0.500010 0.683220 0.614710 -0.612414
O5    O     O_R   0.271750 0.499990 0.587840 -0.623703
O6    O     O_R   0.728250 0.500010 0.412160 -0.623702
O7    O     O_R   0.271750 0.500010 0.358510 -0.618497
O8    O     O_R   0.728250 0.499990 0.641490 -0.618497
Zn1   Zn    Zn3+2 0.500000 0.499980 0.653120 0.957964
Zn2   Zn    Zn3+2 0.500000 0.500020 0.346880 0.957965
C17   C     C_2   0.763316 0.874588 0.402897 0.424001
H9    H     H_    0.780126 0.774008 0.415331 0.059626
O9    O     O_2   0.860472 0.934151 0.350675 -0.558744
C18   C     C_2   0.236680 0.125412 0.597095 0.423991
H10   H     H_    0.219877 0.225993 0.584673 0.059633
O10   O     O_2   0.139513 0.065848 0.649299 -0.558751

loop_
_geom_bond_atom_site_label_1
_geom_bond_atom_site_label_2
_ccdc_geom_bond_type
C17   H9    S    
C4    O8    A    
C7    H3    S    
C2    O4    A    
C15   H7    S    
C14   H6    S    
C1    O3    A    
C13   H5    S    
C16   H8    S    
C8    H4    S    
C3    O5    A    
C9    C11   A    
O3    Zn2   S    
C4    O6    A    
C1    C12   S    
C10   C12   A    
O4    Zn1   S    
N1    Zn1   S    
C8    C11   A    
C2    C11   S    
O6    Zn2   S    
C18   O10   D    
C18   H10   S    
O5    Zn1   S    
C13   C15   A    
C14   N1    A    
C16   N2    A    
C5    C6    D    
C6    H2    S    
C14   C16   A    
C7    C12   A    
C15   N1    A    
C4    C6    S    
C5    H1    S    
C13   N2    A    
C7    C9    A    
O7    Zn2   S    
O2    Zn2   S    
C17   O9    D    
O8    Zn1   S    
N2    Zn2   S    
C1    O1    A    
C3    O7    A    
C10   C18   S    
C2    O2    A    
O1    Zn1   S    
C8    C10   A    
C3    C5    S    
C9    C17   S    
