data_mof_unit_44249.cif
_audit_creation_date              2012-12-10T19:54:33-0500
_audit_creation_method            fapswitch 2.2
_symmetry_space_group_name_H-M    P1
_symmetry_Int_Tables_number       1
_space_group_crystal_system       triclinic
_cell_length_a                    18.399042
_cell_length_b                    18.423177
_cell_length_c                    51.212253
_cell_angle_alpha                 90.019449
_cell_angle_beta                  89.999845
_cell_angle_gamma                 89.94618
_cell_volume                      17359.3476648

loop_
_atom_site_label
_atom_site_type_symbol
_atom_type_description
_atom_site_fract_x
_atom_site_fract_y
_atom_site_fract_z
_atom_type_partial_charge
C1    C     C_R   0.999987 0.499950 0.929423 0.791138
C2    C     C_R   0.500069 0.999996 0.929394 0.800510
C3    C     C_R   0.500117 0.001267 0.429171 0.807492
C4    C     C_R   0.000075 0.499948 0.429452 0.798464
C5    C     C_R   0.502797 0.002486 0.763532 -0.101795
C6    C     C_R   0.996988 0.499260 0.763625 -0.104442
C7    C     C_R   0.000915 0.501326 0.263654 -0.092152
C8    C     C_R   0.488321 0.991978 0.262954 -0.087413
C9    C     C_R   0.552523 0.878090 0.762600 0.445060
C10   C     C_R   0.117758 0.556944 0.762722 0.446916
C11   C     C_R   0.453007 0.126863 0.762972 0.441787
C12   C     C_R   0.876353 0.441292 0.763200 0.443028
C13   C     C_R   0.054085 0.378669 0.262682 0.439597
C14   C     C_R   0.413538 0.102562 0.262064 0.368607
C15   C     C_R   0.946939 0.623614 0.263455 0.350726
C16   C     C_R   0.561993 0.880558 0.262939 0.358888
C17   C     C_R   0.054228 0.381660 0.235396 -0.209323
C18   C     C_R   0.409408 0.096595 0.234872 -0.195933
C19   C     C_R   0.947806 0.622449 0.236157 -0.189623
C20   C     C_R   0.566221 0.885024 0.235700 -0.197318
C21   C     C_R   0.552344 0.880908 0.735333 -0.210244
C22   C     C_R   0.115107 0.556416 0.735447 -0.210375
C23   C     C_R   0.453672 0.124835 0.735692 -0.200404
C24   C     C_R   0.877817 0.442437 0.735910 -0.201610
C25   C     C_R   0.028069 0.442267 0.221977 -0.099856
C26   C     C_R   0.447375 0.042436 0.221452 -0.087552
C27   C     C_R   0.975027 0.562958 0.222349 -0.083381
C28   C     C_R   0.529554 0.939254 0.221887 -0.084490
C29   C     C_R   0.528181 0.942160 0.721891 -0.098645
C30   C     C_R   0.055564 0.528129 0.721995 -0.100184
C31   C     C_R   0.478232 0.064031 0.722063 -0.091069
C32   C     C_R   0.936625 0.471348 0.722216 -0.088222
C33   C     C_R   0.001384 0.502202 0.236028 -0.006033
C34   C     C_R   0.488231 0.991079 0.235450 -0.003150
C35   C     C_R   0.503149 0.002926 0.735876 -0.004694
C36   C     C_R   0.996373 0.499615 0.735985 -0.005506
C37   C     C_R   0.029059 0.444650 0.194563 0.538812
C38   C     C_R   0.445849 0.038592 0.194117 0.530518
C39   C     C_R   0.975116 0.562312 0.194910 0.518429
C40   C     C_R   0.533830 0.943441 0.194594 0.527893
C41   C     C_R   0.527974 0.943620 0.694466 0.541419
C42   C     C_R   0.053520 0.528786 0.694581 0.541699
C43   C     C_R   0.478825 0.063279 0.694625 0.524679
C44   C     C_R   0.937441 0.471555 0.694778 0.521593
C45   C     C_R   0.941984 0.470644 0.140369 0.040069
C46   C     C_R   0.471243 0.932625 0.138407 0.082601
C47   C     C_R   0.059535 0.535486 0.139541 0.056506
C48   C     C_R   0.520900 0.056136 0.140311 0.086480
C49   C     C_R   0.440174 0.975941 0.640285 0.040930
C50   C     C_R   0.030187 0.441392 0.640267 0.044598
C51   C     C_R   0.563278 0.029397 0.639358 0.050967
C52   C     C_R   0.962506 0.557358 0.639598 0.046671
C53   C     C_R   0.940240 0.471099 0.112574 0.347782
C54   C     C_R   0.485452 0.931237 0.111322 0.284432
C55   C     C_R   0.061485 0.529756 0.111966 0.324028
C56   C     C_R   0.512981 0.061728 0.112933 0.281044
C57   C     C_R   0.437843 0.977917 0.612517 0.351085
C58   C     C_R   0.030002 0.440046 0.612469 0.328990
C59   C     C_R   0.564593 0.023159 0.611814 0.326655
C60   C     C_R   0.968781 0.560012 0.612072 0.345204
C61   C     C_R   0.000695 0.499899 0.098756 -0.325354
C62   C     C_R   0.499889 0.997615 0.098453 -0.320305
C63   C     C_R   0.500920 0.999997 0.598668 -0.325759
C64   C     C_R   0.000061 0.500129 0.598754 -0.330377
C65   C     C_R   0.001291 0.503744 0.153505 0.168882
C66   C     C_R   0.494170 0.993473 0.153123 0.150552
C67   C     C_R   0.502426 0.003269 0.653360 0.166208
C68   C     C_R   0.995485 0.499669 0.653471 0.166936
C69   C     C_R   0.999847 0.499958 0.070112 1.041490
C70   C     C_R   0.500008 0.999796 0.070055 0.985345
C71   C     C_R   0.499895 0.999979 0.570083 1.043359
C72   C     C_R   0.000047 0.499758 0.570118 1.037858
C73   C     C_R   0.562606 0.027819 0.859535 0.157574
C74   C     C_R   0.986002 0.565046 0.859447 0.159723
C75   C     C_R   0.440009 0.973692 0.859162 0.157930
C76   C     C_R   0.011628 0.433555 0.859524 0.159370
C77   C     C_R   0.067388 0.503387 0.359616 0.155278
C78   C     C_R   0.431587 0.013931 0.359800 0.161553
C79   C     C_R   0.933561 0.494869 0.359541 0.164912
C80   C     C_R   0.561605 0.987330 0.358178 0.153176
C81   C     C_R   0.562535 0.027040 0.887231 0.077401
C82   C     C_R   0.987998 0.565637 0.887131 0.083939
C83   C     C_R   0.439257 0.973407 0.886860 0.076720
C84   C     C_R   0.011065 0.433551 0.887220 0.083268
C85   C     C_R   0.067435 0.500657 0.387292 0.090781
C86   C     C_R   0.439754 0.032117 0.386385 0.071735
C87   C     C_R   0.933309 0.497597 0.387214 0.096721
C88   C     C_R   0.560153 0.974681 0.385485 0.082572
C89   C     C_R   0.500645 0.000064 0.900660 -0.065055
C90   C     C_R   0.999855 0.499736 0.900741 -0.058411
C91   C     C_R   0.000293 0.499674 0.400802 -0.067326
C92   C     C_R   0.500291 0.002928 0.400133 -0.122104
C93   C     C_R   0.501496 0.001047 0.845797 0.187882
C94   C     C_R   0.998481 0.499159 0.845897 0.186513
C95   C     C_R   0.000513 0.499391 0.345953 0.182120
C96   C     C_R   0.494766 0.998779 0.345119 0.156219
C97   C     C_R   0.859016 0.639372 0.000111 0.891375
C98   C     C_R   0.361089 0.858222 0.000580 0.892031
C99   C     C_R   0.141031 0.360716 0.000129 0.926581
C100  C     C_R   0.638883 0.141779 0.000564 0.925527
C101  C     C_R   0.137888 0.642224 0.998591 0.885327
C102  C     C_R   0.642337 0.862034 0.998785 0.883665
C103  C     C_R   0.862092 0.357785 0.998599 0.860736
C104  C     C_R   0.357698 0.138013 0.998809 0.869331
C105  C     C_R   0.357659 0.138110 0.500885 0.887440
C106  C     C_R   0.860899 0.359073 0.500200 0.933139
C107  C     C_R   0.642117 0.861821 0.500661 0.912415
C108  C     C_R   0.139572 0.640677 0.500070 0.905980
C109  C     C_R   0.637666 0.142219 0.498799 0.893339
C110  C     C_R   0.141899 0.361678 0.498812 0.839919
C111  C     C_R   0.361773 0.857922 0.498938 0.864447
C112  C     C_R   0.858380 0.638693 0.498946 0.880187
C113  C     C_R   0.247248 0.700604 0.978858 -0.039285
C114  C     C_R   0.286778 0.235731 0.976028 -0.043714
C115  C     C_R   0.752932 0.299178 0.978763 -0.039505
C116  C     C_R   0.713324 0.764365 0.975955 -0.049159
C117  C     C_R   0.765353 0.710577 0.976607 0.001264
C118  C     C_R   0.696309 0.250009 0.980926 0.008069
C119  C     C_R   0.234841 0.289600 0.976674 -0.024152
C120  C     C_R   0.303861 0.749737 0.981084 0.013886
C121  C     C_R   0.742235 0.206190 0.478922 -0.081373
C122  C     C_R   0.804706 0.752225 0.480902 -0.015625
C123  C     C_R   0.263236 0.787151 0.476735 -0.033483
C124  C     C_R   0.194053 0.246852 0.481735 -0.027219
C125  C     C_R   0.242347 0.189193 0.484326 0.039978
C126  C     C_R   0.212332 0.732838 0.476586 -0.038549
C127  C     C_R   0.754363 0.808387 0.482163 -0.012196
C128  C     C_R   0.795931 0.256231 0.479595 -0.075495
C129  C     C_R   0.187215 0.704185 0.995637 -0.275725
C130  C     C_R   0.294898 0.186870 0.996729 -0.272792
C131  C     C_R   0.812697 0.295847 0.995683 -0.267221
C132  C     C_R   0.705269 0.813378 0.996633 -0.277948
C133  C     C_R   0.805616 0.697913 0.999404 -0.306537
C134  C     C_R   0.696221 0.197290 0.000643 -0.293015
C135  C     C_R   0.194684 0.302448 0.999493 -0.283583
C136  C     C_R   0.303607 0.802825 0.000679 -0.286557
C137  C     C_R   0.688789 0.202492 0.497961 -0.216489
C138  C     C_R   0.798453 0.690739 0.496972 -0.299241
C139  C     C_R   0.312719 0.795438 0.497170 -0.261934
C140  C     C_R   0.202115 0.309971 0.496743 -0.302175
C141  C     C_R   0.299615 0.192827 0.502255 -0.327295
C142  C     C_R   0.198620 0.693264 0.499375 -0.293500
C143  C     C_R   0.699661 0.806965 0.501320 -0.295383
C144  C     C_R   0.804566 0.303915 0.500516 -0.196093
C145  C     C_R   0.178806 0.767441 0.011083 0.293220
C146  C     C_R   0.238930 0.186394 0.015886 0.239844
C147  C     C_R   0.820722 0.232888 0.011309 0.311897
C148  C     C_R   0.761437 0.814158 0.015716 0.267513
C149  C     C_R   0.802096 0.750353 0.019755 0.217749
C150  C     C_R   0.758281 0.191606 0.017194 0.286517
C151  C     C_R   0.198345 0.250262 0.019906 0.295696
C152  C     C_R   0.241095 0.808939 0.017036 0.298999
C153  C     C_R   0.688333 0.258825 0.517135 0.211040
C154  C     C_R   0.735266 0.683571 0.512608 0.231600
C155  C     C_R   0.313988 0.739011 0.516181 0.253609
C156  C     C_R   0.266027 0.318085 0.511924 0.255974
C157  C     C_R   0.306823 0.255669 0.518127 0.237055
C158  C     C_R   0.250351 0.697690 0.520012 0.252751
C159  C     C_R   0.694622 0.746269 0.518314 0.315388
C160  C     C_R   0.751990 0.300586 0.520931 0.312444
C161  C     C_3   0.358868 0.690858 0.975974 0.204702
C162  C     C_3   0.278901 0.338543 0.959381 0.224854
C163  C     C_3   0.641324 0.308735 0.975558 0.206632
C164  C     C_3   0.721522 0.661410 0.959332 0.222316
C165  C     C_3   0.662782 0.721476 0.959123 0.246810
C166  C     C_3   0.705038 0.361169 0.971134 0.212583
C167  C     C_3   0.337318 0.278153 0.959070 0.249100
C168  C     C_3   0.295192 0.638481 0.971415 0.208956
C169  C     C_3   0.829306 0.230357 0.454548 0.263440
C170  C     C_3   0.814160 0.863923 0.478793 0.228345
C171  C     C_3   0.165027 0.772486 0.457478 0.233124
C172  C     C_3   0.179183 0.137013 0.484643 0.211117
C173  C     C_3   0.128390 0.200296 0.478250 0.226997
C174  C     C_3   0.221608 0.834640 0.458485 0.260232
C175  C     C_3   0.868430 0.800781 0.475911 0.222719
C176  C     C_3   0.767292 0.172676 0.453959 0.261232
C177  C     C_R   0.473800 0.060144 0.804897 0.536092
C178  C     C_R   0.936437 0.477895 0.804999 0.542345
C179  C     C_R   0.530526 0.943425 0.804738 0.535296
C180  C     C_R   0.059162 0.519995 0.804737 0.541342
C181  C     C_R   0.983621 0.562815 0.305044 0.524616
C182  C     C_R   0.513366 0.934267 0.304300 0.538749
C183  C     C_R   0.017500 0.437719 0.304669 0.543872
C184  C     C_R   0.467381 0.055313 0.303460 0.540461
C185  C     C_R   0.528882 0.940157 0.777178 -0.138819
C186  C     C_R   0.059018 0.525990 0.777241 -0.137699
C187  C     C_R   0.476301 0.064350 0.777360 -0.139297
C188  C     C_R   0.935567 0.472188 0.777493 -0.137932
C189  C     C_R   0.024739 0.438152 0.277209 -0.139571
C190  C     C_R   0.455418 0.050864 0.276365 -0.140428
C191  C     C_R   0.976568 0.563630 0.277596 -0.141045
C192  C     C_R   0.521868 0.934417 0.276936 -0.140637
H1    H     H_    0.389414 0.676948 0.994058 0.062073
H2    H     H_    0.297290 0.388222 0.969801 0.083924
H3    H     H_    0.610286 0.322815 0.993518 0.065742
H4    H     H_    0.703516 0.611555 0.969716 0.076182
H5    H     H_    0.613666 0.704583 0.970092 0.108497
H6    H     H_    0.706273 0.406201 0.985587 0.057680
H7    H     H_    0.386792 0.294762 0.969897 0.109509
H8    H     H_    0.293578 0.593551 0.985893 0.068453
H9    H     H_    0.883731 0.205711 0.457837 0.106807
H10   H     H_    0.823291 0.894742 0.497197 0.068100
H11   H     H_    0.111777 0.787993 0.466127 0.098305
H12   H     H_    0.169358 0.116207 0.504754 0.048574
H13   H     H_    0.086245 0.209267 0.493476 0.053279
H14   H     H_    0.198947 0.882684 0.468594 0.121583
H15   H     H_    0.908867 0.799089 0.492036 0.055286
H16   H     H_    0.787735 0.116618 0.457011 0.128938
H17   H     H_    0.075694 0.336210 0.224439 0.240702
H18   H     H_    0.377480 0.135638 0.224005 0.239680
H19   H     H_    0.926228 0.668410 0.225514 0.240507
H20   H     H_    0.597736 0.845119 0.225084 0.239764
H21   H     H_    0.570906 0.834274 0.724348 0.240705
H22   H     H_    0.159987 0.579065 0.724505 0.240753
H23   H     H_    0.435275 0.171771 0.724850 0.241628
H24   H     H_    0.832539 0.419892 0.725146 0.242319
N1    N     N_R   0.501939 0.001552 0.817650 -0.358761
N2    N     N_R   0.998021 0.498939 0.817745 -0.360591
N3    N     N_R   0.000590 0.499991 0.317788 -0.358362
N4    N     N_R   0.491355 0.995890 0.316961 -0.362712
N5    N     N_R   0.002901 0.504136 0.181638 -0.335313
N6    N     N_R   0.490938 0.991515 0.181215 -0.343308
N7    N     N_R   0.504167 0.003881 0.681463 -0.334856
N8    N     N_R   0.994907 0.500969 0.681590 -0.333884
O1    O     O_3   0.000000 0.500000 0.999730 -0.567593
O2    O     O_3   0.500000 0.000000 0.999730 -0.562392
O3    O     O_3   0.500000 0.000000 0.499730 -0.573390
O4    O     O_3   0.000000 0.500000 0.499730 -0.573992
O5    O     O_R   0.061010 0.500000 0.941690 -0.584573
O6    O     O_R   0.500000 0.061010 0.941690 -0.602916
O7    O     O_R   0.938990 0.500000 0.941690 -0.582125
O8    O     O_R   0.500000 0.938990 0.941690 -0.603028
O9    O     O_R   0.561010 0.000000 0.441690 -0.598751
O10   O     O_R   0.000000 0.561010 0.441690 -0.585140
O11   O     O_R   0.438990 0.000000 0.441690 -0.617284
O12   O     O_R   0.000000 0.438990 0.441690 -0.583520
O13   O     O_R   0.000000 0.560620 0.057780 -0.555458
O14   O     O_R   0.439380 0.000000 0.057780 -0.646442
O15   O     O_R   0.000000 0.439380 0.057780 -0.594234
O16   O     O_R   0.560620 0.000000 0.057780 -0.579436
O17   O     O_R   0.500000 0.060620 0.557780 -0.555058
O18   O     O_R   0.939380 0.500000 0.557780 -0.592065
O19   O     O_R   0.500000 0.939380 0.557780 -0.600128
O20   O     O_R   0.060620 0.500000 0.557780 -0.561983
O21   O     O_R   0.854100 0.585380 0.984510 -0.619830
O22   O     O_R   0.414620 0.854100 0.984510 -0.596852
O23   O     O_R   0.145900 0.414620 0.984510 -0.616966
O24   O     O_R   0.585380 0.145900 0.984510 -0.598151
O25   O     O_R   0.145900 0.585380 0.984510 -0.618366
O26   O     O_R   0.585380 0.854100 0.984510 -0.594414
O27   O     O_R   0.854100 0.414620 0.984510 -0.624621
O28   O     O_R   0.414620 0.145900 0.984510 -0.588681
O29   O     O_R   0.354100 0.085380 0.484510 -0.593497
O30   O     O_R   0.914620 0.354100 0.484510 -0.616038
O31   O     O_R   0.645900 0.914620 0.484510 -0.606036
O32   O     O_R   0.085380 0.645900 0.484510 -0.612259
O33   O     O_R   0.645900 0.085380 0.484510 -0.588072
O34   O     O_R   0.085380 0.354100 0.484510 -0.621722
O35   O     O_R   0.354100 0.914620 0.484510 -0.580661
O36   O     O_R   0.914620 0.645900 0.484510 -0.619274
O37   O     O_R   0.085710 0.353760 0.014950 -0.580150
O38   O     O_R   0.646240 0.085710 0.014950 -0.573998
O39   O     O_R   0.914290 0.646240 0.014950 -0.568715
O40   O     O_R   0.353760 0.914290 0.014950 -0.576990
O41   O     O_R   0.914290 0.353760 0.014950 -0.567050
O42   O     O_R   0.353760 0.085710 0.014950 -0.576782
O43   O     O_R   0.085710 0.646240 0.014950 -0.569937
O44   O     O_R   0.646240 0.914290 0.014950 -0.561101
O45   O     O_R   0.585710 0.853760 0.514950 -0.564699
O46   O     O_R   0.146240 0.585710 0.514950 -0.549217
O47   O     O_R   0.414290 0.146240 0.514950 -0.559094
O48   O     O_R   0.853760 0.414290 0.514950 -0.564725
O49   O     O_R   0.414290 0.853760 0.514950 -0.573009
O50   O     O_R   0.853760 0.585710 0.514950 -0.552404
O51   O     O_R   0.585710 0.146240 0.514950 -0.574598
O52   O     O_R   0.146240 0.414290 0.514950 -0.563597
O53   O     O_2   0.442487 0.112813 0.819217 -0.466680
O54   O     O_2   0.876901 0.463011 0.819276 -0.462681
O55   O     O_2   0.561398 0.890274 0.818938 -0.466987
O56   O     O_2   0.119207 0.534751 0.818756 -0.462479
O57   O     O_2   0.974133 0.623636 0.319212 -0.451873
O58   O     O_2   0.526766 0.874031 0.318377 -0.457849
O59   O     O_2   0.026966 0.376323 0.318491 -0.464776
O60   O     O_2   0.456257 0.117988 0.316393 -0.470433
O61   O     O_2   0.056358 0.388258 0.180876 -0.531460
O62   O     O_2   0.401458 0.082911 0.180460 -0.508515
O63   O     O_2   0.947647 0.619186 0.181539 -0.508602
O64   O     O_2   0.579544 0.899223 0.181455 -0.508771
O65   O     O_2   0.551703 0.885519 0.680838 -0.536216
O66   O     O_2   0.109283 0.557557 0.680956 -0.529807
O67   O     O_2   0.454161 0.121223 0.681142 -0.510801
O68   O     O_2   0.881464 0.442544 0.681326 -0.519773
Zn1   Zn    Zn3+2 0.000000 0.586670 0.021480 1.154768
Zn2   Zn    Zn3+2 0.413330 0.000000 0.021480 1.084891
Zn3   Zn    Zn3+2 0.000000 0.413330 0.021480 1.131109
Zn4   Zn    Zn3+2 0.586670 0.000000 0.021480 1.130767
Zn5   Zn    Zn3+2 0.500000 0.086670 0.521480 1.164564
Zn6   Zn    Zn3+2 0.913330 0.500000 0.521480 1.156969
Zn7   Zn    Zn3+2 0.500000 0.913330 0.521480 1.134405
Zn8   Zn    Zn3+2 0.086670 0.500000 0.521480 1.162155
Zn9   Zn    Zn3+2 0.913520 0.500000 0.977990 1.057669
Zn10  Zn    Zn3+2 0.500000 0.913520 0.977990 1.062875
Zn11  Zn    Zn3+2 0.086480 0.500000 0.977990 1.075902
Zn12  Zn    Zn3+2 0.500000 0.086480 0.977990 1.074258
Zn13  Zn    Zn3+2 0.413520 0.000000 0.477990 1.066228
Zn14  Zn    Zn3+2 0.000000 0.413520 0.477990 1.060126
Zn15  Zn    Zn3+2 0.586480 0.000000 0.477990 1.073665
Zn16  Zn    Zn3+2 0.000000 0.586480 0.477990 1.069993
S1    S     S_3+6 0.090897 0.800401 0.019898 0.145889
O69   O     O_2   0.068387 0.768678 0.045689 -0.158582
O70   O     O_2   0.091656 0.881764 0.021953 -0.174804
O71   O     O_3   0.030082 0.776476 0.996909 -0.566765
H25   H     H_    0.982431 0.792547 0.003835 0.395330
S2    S     S_3+6 0.207438 0.104023 0.030094 0.163200
O72   O     O_2   0.251955 0.086191 0.053857 -0.162091
O73   O     O_2   0.128898 0.109856 0.037882 -0.177568
O74   O     O_3   0.215529 0.036643 0.008090 -0.488032
H26   H     H_    0.185449 0.052173 0.993052 0.346355
S3    S     S_3+6 0.908332 0.199834 0.020437 0.151376
O75   O     O_2   0.930486 0.232093 0.046189 -0.145042
O76   O     O_2   0.907192 0.118528 0.022732 -0.179286
O77   O     O_3   0.969663 0.222940 0.997521 -0.567489
H27   H     H_    0.017095 0.206656 0.004572 0.395451
S4    S     S_3+6 0.792574 0.896591 0.030047 0.167878
O78   O     O_2   0.748105 0.913904 0.053876 -0.142388
O79   O     O_2   0.871175 0.890968 0.037778 -0.179424
O80   O     O_3   0.784086 0.964351 0.008231 -0.496225
H28   H     H_    0.813889 0.949076 0.993084 0.345623
S5    S     S_3+6 0.833099 0.730527 0.052022 0.144919
O81   O     O_2   0.912032 0.750039 0.054522 -0.137225
O82   O     O_2   0.790452 0.772753 0.071930 -0.183250
O83   O     O_3   0.823172 0.641598 0.058438 -0.490215
H29   H     H_    0.770729 0.631821 0.055861 0.351931
S6    S     S_3+6 0.753030 0.149670 0.048552 0.146549
O84   O     O_2   0.777742 0.072198 0.046643 -0.150099
O85   O     O_2   0.800389 0.188897 0.067827 -0.186597
O86   O     O_3   0.667320 0.152160 0.059817 -0.483057
H30   H     H_    0.663115 0.109247 0.071367 0.398708
S7    S     S_3+6 0.167013 0.270209 0.052125 0.122803
O87   O     O_2   0.088137 0.250258 0.054562 -0.186674
O88   O     O_2   0.210163 0.228310 0.071972 -0.197425
O89   O     O_3   0.176986 0.359310 0.058341 -0.527604
H31   H     H_    0.152368 0.367182 0.075314 0.402711
S8    S     S_3+6 0.245202 0.852105 0.048230 0.131600
O90   O     O_2   0.220496 0.929440 0.045852 -0.134926
O91   O     O_2   0.197206 0.813633 0.067480 -0.213352
O92   O     O_3   0.330388 0.850238 0.059948 -0.540737
H32   H     H_    0.333276 0.892003 0.072093 0.389191
S9    S     S_3+6 0.605200 0.291384 0.530783 0.180058
O93   O     O_2   0.586044 0.247652 0.554558 -0.131745
O94   O     O_2   0.610960 0.369946 0.538392 -0.146199
O95   O     O_3   0.538250 0.283558 0.508572 -0.495035
H33   H     H_    0.555068 0.312061 0.493333 0.353386
S10   S     S_3+6 0.701068 0.597067 0.522366 0.165433
O96   O     O_2   0.735198 0.574862 0.547795 -0.107531
O97   O     O_2   0.619986 0.599910 0.525773 -0.174233
O98   O     O_3   0.720643 0.534109 0.499607 -0.517078
H34   H     H_    0.699448 0.553221 0.483210 0.337832
S11   S     S_3+6 0.396782 0.707542 0.530347 0.182472
O99   O     O_2   0.414082 0.751057 0.554357 -0.127657
O100  O     O_2   0.391165 0.628825 0.537763 -0.155014
O101  O     O_3   0.465014 0.716521 0.508712 -0.495731
H35   H     H_    0.449640 0.687822 0.493318 0.348695
S12   S     S_3+6 0.300551 0.405456 0.520418 0.162297
O102  O     O_2   0.268638 0.429520 0.546001 -0.106953
O103  O     O_2   0.381916 0.403256 0.522884 -0.178599
O104  O     O_3   0.278428 0.466485 0.497301 -0.528358
H36   H     H_    0.298546 0.446407 0.480874 0.336246
S13   S     S_3+6 0.349137 0.250501 0.549440 0.161500
O105  O     O_2   0.427562 0.271896 0.547308 -0.089480
O106  O     O_2   0.312196 0.300267 0.568539 -0.191573
O107  O     O_3   0.344197 0.165466 0.561222 -0.479861
H37   H     H_    0.291538 0.154493 0.561946 0.355797
S14   S     S_3+6 0.230103 0.666418 0.552203 0.144596
O108  O     O_2   0.250053 0.587624 0.554616 -0.110135
O109  O     O_2   0.271921 0.708976 0.572227 -0.201072
O110  O     O_3   0.140863 0.675915 0.558487 -0.506904
H38   H     H_    0.130808 0.728284 0.555991 0.348789
S15   S     S_3+6 0.654769 0.754749 0.549978 0.140746
O111  O     O_2   0.576118 0.733265 0.548901 -0.141552
O112  O     O_2   0.693577 0.706992 0.569249 -0.193458
O113  O     O_3   0.661358 0.841135 0.560403 -0.524718
H39   H     H_    0.630968 0.843431 0.576351 0.397619
S16   S     S_3+6 0.770250 0.336081 0.552708 0.120594
O114  O     O_2   0.749694 0.414994 0.553756 -0.148874
O115  O     O_2   0.727776 0.295343 0.573028 -0.222446
O116  O     O_3   0.859243 0.327390 0.559507 -0.542823
H40   H     H_    0.866108 0.353415 0.576258 0.404703
S17   S     S_3+6 0.420257 0.712199 0.949764 0.139534
O117  O     O_2   0.486925 0.744642 0.961795 -0.267230
O118  O     O_2   0.442412 0.645200 0.935076 -0.174754
O119  O     O_3   0.383473 0.773089 0.929189 -0.501385
H41   H     H_    0.422046 0.783054 0.916181 0.387262
S18   S     S_3+6 0.230968 0.359574 0.929604 0.113714
O120  O     O_2   0.184818 0.425348 0.933982 -0.216748
O121  O     O_2   0.283129 0.376683 0.907917 -0.190855
O122  O     O_3   0.176343 0.290445 0.921013 -0.537707
H42   H     H_    0.177570 0.289386 0.901687 0.370100
S19   S     S_3+6 0.580650 0.286940 0.949162 0.138786
O123  O     O_2   0.513780 0.254285 0.960968 -0.264360
O124  O     O_2   0.558576 0.353742 0.934360 -0.174626
O125  O     O_3   0.618245 0.226106 0.928741 -0.504791
H43   H     H_    0.580113 0.216007 0.915577 0.386193
S20   S     S_3+6 0.769652 0.641004 0.929534 0.114767
O126  O     O_2   0.815663 0.575055 0.933748 -0.215525
O127  O     O_2   0.717719 0.624542 0.907707 -0.191507
O128  O     O_3   0.824440 0.710321 0.921275 -0.537681
H44   H     H_    0.823178 0.712128 0.901956 0.370339
S21   S     S_3+6 0.641183 0.766177 0.928694 0.120440
O129  O     O_2   0.606355 0.712966 0.910326 -0.183459
O130  O     O_2   0.587825 0.825958 0.933595 -0.256806
O131  O     O_3   0.715237 0.802914 0.914838 -0.524882
H45   H     H_    0.700515 0.814184 0.896683 0.375233
S22   S     S_3+6 0.724082 0.391384 0.938301 0.132119
O132  O     O_2   0.668912 0.447253 0.930264 -0.184386
O133  O     O_2   0.797777 0.425796 0.937436 -0.247739
O134  O     O_3   0.723658 0.321799 0.917084 -0.480741
H46   H     H_    0.734489 0.343944 0.899901 0.387022
S23   S     S_3+6 0.357907 0.232810 0.928657 0.120333
O135  O     O_2   0.392117 0.285529 0.909975 -0.183957
O136  O     O_2   0.411421 0.173145 0.933500 -0.255755
O137  O     O_3   0.283392 0.195686 0.915250 -0.524208
H47   H     H_    0.297231 0.184674 0.896982 0.374748
S24   S     S_3+6 0.276734 0.608132 0.938551 0.132582
O138  O     O_2   0.331686 0.551784 0.930743 -0.184263
O139  O     O_2   0.202783 0.574308 0.937487 -0.249545
O140  O     O_3   0.278208 0.677507 0.917270 -0.479777
H48   H     H_    0.267464 0.655305 0.900082 0.387084
S25   S     S_3+6 0.831273 0.300735 0.430124 0.093713
O141  O     O_2   0.905020 0.334964 0.430407 -0.240311
O142  O     O_2   0.818913 0.270482 0.403264 -0.232197
O143  O     O_3   0.768666 0.364695 0.436942 -0.539189
H49   H     H_    0.751525 0.382525 0.419777 0.373484
S26   S     S_3+6 0.801815 0.925527 0.451699 0.090648
O144  O     O_2   0.744686 0.980714 0.458192 -0.273440
O145  O     O_2   0.871572 0.965731 0.446902 -0.233017
O146  O     O_3   0.776423 0.881153 0.424538 -0.501524
H50   H     H_    0.788116 0.914543 0.409981 0.380513
S27   S     S_3+6 0.155041 0.721884 0.427580 0.123327
O147  O     O_2   0.111643 0.654771 0.432855 -0.289852
O148  O     O_2   0.114832 0.766902 0.407828 -0.185769
O149  O     O_3   0.236272 0.696655 0.415609 -0.477971
H51   H     H_    0.225132 0.670069 0.399298 0.358573
S28   S     S_3+6 0.187933 0.062656 0.462346 0.116227
O150  O     O_2   0.236389 0.007615 0.474996 -0.283896
O151  O     O_2   0.115086 0.028142 0.457752 -0.233887
O152  O     O_3   0.225027 0.088830 0.433891 -0.475114
H52   H     H_    0.212495 0.049872 0.421347 0.394461
S29   S     S_3+6 0.093635 0.209003 0.445381 0.109856
O153  O     O_2   0.049412 0.143708 0.437990 -0.198284
O154  O     O_2   0.045292 0.274494 0.443838 -0.244720
O155  O     O_3   0.162380 0.219763 0.424086 -0.508715
H53   H     H_    0.138604 0.228288 0.407006 0.385035
S30   S     S_3+6 0.273154 0.858124 0.429755 0.096706
O156  O     O_2   0.225053 0.860879 0.406108 -0.234209
O157  O     O_2   0.305604 0.932009 0.433612 -0.271758
O158  O     O_3   0.340972 0.798315 0.424908 -0.504997
H54   H     H_    0.370351 0.819296 0.410567 0.364626
S31   S     S_3+6 0.909072 0.782794 0.444326 0.118335
O159  O     O_2   0.944569 0.849646 0.433499 -0.184173
O160  O     O_2   0.966832 0.725759 0.447064 -0.230767
O161  O     O_3   0.845750 0.752476 0.423319 -0.514282
H55   H     H_    0.870812 0.749878 0.406225 0.392747
S32   S     S_3+6 0.699368 0.177651 0.428612 0.085727
O162  O     O_2   0.732794 0.156172 0.402989 -0.258479
O163  O     O_2   0.638900 0.125728 0.434484 -0.300974
O164  O     O_3   0.663916 0.261524 0.426452 -0.502541
H56   H     H_    0.631103 0.259778 0.411133 0.373909
S33   S     S_3+6 0.580012 0.793947 0.776683 0.100798
O165  O     O_2   0.521880 0.767133 0.794913 -0.227377
O166  O     O_2   0.592440 0.737491 0.755939 -0.254305
O167  O     O_3   0.658058 0.805917 0.793246 -0.498960
H57   H     H_    0.667072 0.758975 0.802106 0.400046
S34   S     S_3+6 0.193660 0.601940 0.776994 0.095637
O168  O     O_2   0.241974 0.546887 0.789990 -0.197082
O169  O     O_2   0.237005 0.641486 0.756580 -0.267435
O170  O     O_3   0.164413 0.662647 0.799202 -0.524175
H58   H     H_    0.209090 0.680730 0.807805 0.393620
S35   S     S_3+6 0.425382 0.210622 0.777332 0.103624
O171  O     O_2   0.483060 0.236635 0.795902 -0.226231
O172  O     O_2   0.413757 0.267796 0.756798 -0.251182
O173  O     O_3   0.346815 0.198367 0.793542 -0.497766
H59   H     H_    0.337697 0.245039 0.802582 0.400761
S36   S     S_3+6 0.801323 0.395607 0.777765 0.097892
O174  O     O_2   0.753082 0.450188 0.791064 -0.195752
O175  O     O_2   0.757544 0.355926 0.757496 -0.263355
O176  O     O_3   0.831813 0.334925 0.799751 -0.524587
H60   H     H_    0.787576 0.316362 0.808510 0.393065
S37   S     S_3+6 0.097218 0.301850 0.277031 0.106575
O177  O     O_2   0.040670 0.253930 0.289321 -0.220737
O178  O     O_2   0.137696 0.258761 0.256755 -0.237329
O179  O     O_3   0.156722 0.329472 0.299916 -0.503253
H61   H     H_    0.176746 0.284174 0.307466 0.411064
S38   S     S_3+6 0.359437 0.171305 0.276880 0.102622
O180  O     O_2   0.407956 0.231572 0.286185 -0.183513
O181  O     O_2   0.305792 0.202156 0.257705 -0.233580
O182  O     O_3   0.313398 0.137314 0.302465 -0.512029
H62   H     H_    0.285872 0.095663 0.295283 0.347804
S39   S     S_3+6 0.901670 0.698521 0.278288 0.123585
O183  O     O_2   0.957017 0.747644 0.290658 -0.172973
O184  O     O_2   0.859578 0.741426 0.258401 -0.239670
O185  O     O_3   0.843549 0.669101 0.301328 -0.454920
H63   H     H_    0.812859 0.632591 0.292392 0.347702
S40   S     S_3+6 0.614002 0.810708 0.278059 0.114584
O186  O     O_2   0.563443 0.755113 0.289475 -0.182263
O187  O     O_2   0.662723 0.773616 0.258607 -0.242449
O188  O     O_3   0.665909 0.845542 0.301988 -0.478389
H64   H     H_    0.693873 0.885000 0.293540 0.348374
C193  C     C_3   0.881018 0.437136 0.156631 -0.327372
C194  C     C_3   0.881592 0.354184 0.155569 -0.658577
H65   H     H_    0.836277 0.332680 0.167605 0.239805
H66   H     H_    0.874939 0.333638 0.135420 0.310320
H67   H     H_    0.933444 0.332883 0.163538 0.277471
H68   H     H_    0.884649 0.451990 0.177533 0.189865
H69   H     H_    0.827668 0.459830 0.151075 0.263347
C195  C     C_3   0.428330 0.871573 0.151246 -0.321691
C196  C     C_3   0.347727 0.877712 0.144413 -0.712124
H70   H     H_    0.317798 0.830830 0.152755 0.262472
H71   H     H_    0.324947 0.928507 0.152794 0.268191
H72   H     H_    0.339182 0.878453 0.122980 0.287944
H73   H     H_    0.449814 0.817625 0.145592 0.278010
H74   H     H_    0.431571 0.872697 0.172795 0.202595
C197  C     C_3   0.117389 0.577893 0.154447 -0.319062
C198  C     C_3   0.175927 0.528554 0.166109 -0.667204
H75   H     H_    0.225807 0.560704 0.169960 0.253700
H76   H     H_    0.157571 0.505543 0.184958 0.240347
H77   H     H_    0.189759 0.483321 0.152664 0.300578
H78   H     H_    0.143057 0.619629 0.141925 0.270974
H79   H     H_    0.092517 0.610440 0.170310 0.212926
C199  C     C_3   0.561784 0.114273 0.155569 -0.320846
C200  C     C_3   0.643686 0.105715 0.151711 -0.717733
H80   H     H_    0.662180 0.053554 0.160350 0.268673
H81   H     H_    0.658387 0.106130 0.130704 0.291380
H82   H     H_    0.672576 0.150870 0.161625 0.258576
H83   H     H_    0.543947 0.169547 0.149977 0.277920
H84   H     H_    0.552142 0.111308 0.176836 0.199858
C201  C     C_3   0.377474 0.945867 0.656569 -0.340342
C202  C     C_3   0.371633 0.863314 0.654484 -0.638962
H85   H     H_    0.326938 0.843855 0.667252 0.246500
H86   H     H_    0.359898 0.845659 0.634282 0.310131
H87   H     H_    0.423080 0.837517 0.660985 0.277994
H88   H     H_    0.383398 0.958131 0.677615 0.191823
H89   H     H_    0.325742 0.973038 0.651713 0.262224
C203  C     C_3   0.065163 0.381119 0.656469 -0.343319
C204  C     C_3   0.148183 0.383661 0.655496 -0.621863
H90   H     H_    0.170783 0.339215 0.667687 0.243660
H91   H     H_    0.169058 0.376993 0.635391 0.310249
H92   H     H_    0.168105 0.436130 0.663335 0.277521
H93   H     H_    0.050085 0.384200 0.677362 0.190673
H94   H     H_    0.043854 0.327369 0.650826 0.259717
C205  C     C_3   0.624662 0.066891 0.654156 -0.301548
C206  C     C_3   0.678566 0.013075 0.666161 -0.680378
H95   H     H_    0.660065 0.995628 0.685754 0.236325
H96   H     H_    0.685592 0.964387 0.653624 0.297561
H97   H     H_    0.732223 0.039755 0.668625 0.255856
H98   H     H_    0.654278 0.105417 0.641426 0.273545
H99   H     H_    0.602450 0.102176 0.669797 0.214477
C207  C     C_3   0.917997 0.613631 0.654526 -0.306300
C208  C     C_3   0.965420 0.671837 0.667334 -0.661452
H100  H     H_    0.984558 0.653583 0.686756 0.230848
H101  H     H_    0.013268 0.685168 0.655027 0.307375
H102  H     H_    0.932904 0.721962 0.670326 0.251384
H103  H     H_    0.877073 0.639829 0.641776 0.268054
H104  H     H_    0.884335 0.587113 0.669724 0.214300
S41   S     S_3+6 0.864969 0.434869 0.094108 0.058972
O189  O     O_2   0.885632 0.360129 0.084918 -0.240067
O190  O     O_2   0.795254 0.429787 0.109199 -0.260302
O191  O     O_3   0.848531 0.487080 0.067799 -0.554026
H105  H     H_    0.821986 0.455381 0.055425 0.358749
S42   S     S_3+6 0.496520 0.845465 0.095210 0.066016
O192  O     O_2   0.554940 0.804310 0.109411 -0.186309
O193  O     O_2   0.427825 0.801678 0.096751 -0.278284
O194  O     O_3   0.521968 0.852212 0.063721 -0.542763
H106  H     H_    0.476613 0.848101 0.053419 0.351475
S43   S     S_3+6 0.139641 0.559994 0.093785 0.038379
O195  O     O_2   0.208758 0.548154 0.108807 -0.267723
O196  O     O_2   0.146862 0.520678 0.068185 -0.342472
O197  O     O_3   0.129852 0.649240 0.087876 -0.472863
H107  H     H_    0.168315 0.661093 0.075033 0.403453
S44   S     S_3+6 0.510545 0.149835 0.098048 0.059081
O198  O     O_2   0.580698 0.189275 0.102779 -0.231154
O199  O     O_2   0.450633 0.192587 0.110823 -0.239191
O200  O     O_3   0.495377 0.148308 0.065631 -0.554904
H108  H     H_    0.441932 0.151768 0.063607 0.369647
S45   S     S_3+6 0.358481 0.951837 0.594119 0.045228
O201  O     O_2   0.369502 0.875427 0.584647 -0.251756
O202  O     O_2   0.289021 0.955140 0.609427 -0.270364
O203  O     O_3   0.348216 0.006325 0.568006 -0.566538
H109  H     H_    0.317971 0.978377 0.555559 0.359000
S46   S     S_3+6 0.068163 0.365867 0.593921 0.039830
O204  O     O_2   0.142942 0.387849 0.585140 -0.230354
O205  O     O_2   0.073930 0.296036 0.608854 -0.272720
O206  O     O_3   0.017194 0.349099 0.567309 -0.580528
H110  H     H_    0.049670 0.322673 0.555143 0.365922
S47   S     S_3+6 0.645749 0.044425 0.593756 0.036770
O207  O     O_2   0.712325 0.021212 0.608549 -0.276772
O208  O     O_2   0.647534 0.007757 0.567535 -0.335537
O209  O     O_3   0.648704 0.134750 0.589317 -0.477721
H111  H     H_    0.691478 0.143023 0.577957 0.402368
S48   S     S_3+6 0.938009 0.638247 0.594122 0.050070
O210  O     O_2   0.978236 0.646889 0.568765 -0.317816
O211  O     O_2   0.858422 0.628954 0.588417 -0.232551
O212  O     O_3   0.949954 0.715208 0.611237 -0.547587
H112  H     H_    0.923035 0.752893 0.601392 0.398872
C209  C     C_3   0.627808 0.056447 0.844265 -0.425239
C210  C     C_3   0.624747 0.138957 0.841284 -0.729386
H113  H     H_    0.617404 0.166293 0.860409 0.262950
H114  H     H_    0.676063 0.158550 0.832331 0.253033
H115  H     H_    0.579060 0.154625 0.828354 0.304569
H116  H     H_    0.679639 0.039824 0.853561 0.221566
H117  H     H_    0.631216 0.032430 0.824471 0.225397
C211  C     C_3   0.969634 0.634127 0.844077 -0.409044
C212  C     C_3   0.887810 0.646632 0.841581 -0.758179
H118  H     H_    0.860660 0.644765 0.860908 0.266800
H119  H     H_    0.877630 0.700569 0.832630 0.252771
H120  H     H_    0.863266 0.604541 0.828863 0.298418
H121  H     H_    0.996064 0.682041 0.853074 0.221058
H122  H     H_    0.992839 0.632624 0.824149 0.231374
C213  C     C_3   0.375248 0.945708 0.843496 -0.425248
C214  C     C_3   0.378505 0.863362 0.839988 -0.730118
H123  H     H_    0.385533 0.835126 0.858952 0.263347
H124  H     H_    0.327390 0.844127 0.830785 0.253358
H125  H     H_    0.424451 0.848380 0.827069 0.304189
H126  H     H_    0.323158 0.961782 0.852733 0.221548
H127  H     H_    0.372307 0.970705 0.823855 0.225552
C215  C     C_3   0.027023 0.364122 0.844215 -0.408058
C216  C     C_3   0.108659 0.351491 0.841094 -0.759209
H128  H     H_    0.132431 0.393230 0.828053 0.298055
H129  H     H_    0.137014 0.353803 0.860191 0.265658
H130  H     H_    0.118231 0.297323 0.832224 0.253162
H131  H     H_    0.001160 0.316424 0.853555 0.220947
H132  H     H_    0.002540 0.365205 0.824482 0.232352
C217  C     C_3   0.138070 0.513371 0.344446 -0.394241
C218  C     C_3   0.158109 0.593584 0.342461 -0.765732
H133  H     H_    0.159702 0.619270 0.362038 0.262020
H134  H     H_    0.212411 0.599131 0.333224 0.257975
H135  H     H_    0.117777 0.622803 0.330254 0.296139
H136  H     H_    0.183363 0.482484 0.353372 0.225352
H137  H     H_    0.134760 0.491296 0.324395 0.236273
C219  C     C_3   0.356116 0.008634 0.347661 -0.409486
C220  C     C_3   0.313289 0.946242 0.359733 -0.736241
H138  H     H_    0.342700 0.894144 0.356860 0.269333
H139  H     H_    0.305185 0.955420 0.380890 0.291927
H140  H     H_    0.259128 0.942256 0.350277 0.275018
H141  H     H_    0.325442 0.059972 0.350084 0.252350
H142  H     H_    0.358140 0.997501 0.326438 0.220485
C221  C     C_3   0.862977 0.485133 0.344291 -0.412953
C222  C     C_3   0.841994 0.405064 0.342574 -0.749739
H143  H     H_    0.838230 0.380166 0.362250 0.286059
H144  H     H_    0.788456 0.399832 0.332755 0.253872
H145  H     H_    0.882976 0.374760 0.330987 0.292977
H146  H     H_    0.818077 0.517116 0.353013 0.227564
H147  H     H_    0.866810 0.506307 0.324132 0.218750
C223  C     C_3   0.633114 0.990514 0.343078 -0.427292
C224  C     C_3   0.684047 0.048444 0.354086 -0.715726
H148  H     H_    0.701990 0.034602 0.374135 0.276147
H149  H     H_    0.733111 0.052635 0.341552 0.264615
H150  H     H_    0.656316 0.102040 0.354396 0.282793
H151  H     H_    0.660305 0.936839 0.342812 0.256442
H152  H     H_    0.624506 0.005412 0.322350 0.215912
C225  C     C_3   0.629690 0.051212 0.902593 -0.436405
C226  C     C_3   0.677719 0.986629 0.909650 -0.776853
H153  H     H_    0.648811 0.950031 0.923304 0.286975
H154  H     H_    0.693173 0.955942 0.891827 0.267145
H155  H     H_    0.727956 0.006133 0.919392 0.257011
H156  H     H_    0.662850 0.091413 0.891910 0.236616
H157  H     H_    0.614752 0.080391 0.920677 0.245118
C227  C     C_3   0.980315 0.636580 0.902367 -0.404947
C228  C     C_3   0.054385 0.670578 0.907725 -0.776123
H158  H     H_    0.086788 0.634855 0.920637 0.296241
H159  H     H_    0.084540 0.679432 0.889217 0.267139
H160  H     H_    0.047042 0.723659 0.917661 0.265063
H161  H     H_    0.946008 0.676603 0.892073 0.229208
H162  H     H_    0.951903 0.628090 0.921199 0.249854
C229  C     C_3   0.371818 0.948293 0.901845 -0.435689
C230  C     C_3   0.323247 0.012327 0.909090 -0.773203
H163  H     H_    0.351528 0.048474 0.923075 0.286712
H164  H     H_    0.308182 0.043714 0.891391 0.265992
H165  H     H_    0.272814 0.992146 0.918513 0.257472
H166  H     H_    0.339178 0.908358 0.890819 0.235698
H167  H     H_    0.386484 0.918449 0.919812 0.246255
C231  C     C_3   0.019726 0.362948 0.902575 -0.406770
C232  C     C_3   0.946077 0.328770 0.908506 -0.774247
H168  H     H_    0.914452 0.364329 0.921729 0.295780
H169  H     H_    0.914744 0.319945 0.890249 0.267227
H170  H     H_    0.954162 0.275653 0.918331 0.264484
H171  H     H_    0.053674 0.322849 0.892152 0.229421
H172  H     H_    0.049053 0.371950 0.921195 0.250193
C233  C     C_3   0.138681 0.495676 0.402557 -0.404162
C234  C     C_3   0.163122 0.416782 0.405272 -0.783059
H173  H     H_    0.122071 0.385174 0.416346 0.300783
H174  H     H_    0.170713 0.391336 0.385813 0.267668
H175  H     H_    0.215465 0.414490 0.416034 0.252973
H176  H     H_    0.182407 0.528286 0.393470 0.223324
H177  H     H_    0.133581 0.518919 0.422423 0.226468
C235  C     C_3   0.388546 0.088492 0.398304 -0.346258
C236  C     C_3   0.398730 0.162625 0.385359 -0.774519
H178  H     H_    0.455490 0.181644 0.388172 0.263194
H179  H     H_    0.386958 0.160594 0.364146 0.301086
H180  H     H_    0.361314 0.202648 0.394462 0.266462
H181  H     H_    0.331191 0.071057 0.396423 0.240955
H182  H     H_    0.398284 0.098479 0.419246 0.244110
C237  C     C_3   0.862008 0.500746 0.402477 -0.419261
C238  C     C_3   0.837839 0.579122 0.406629 -0.771555
H183  H     H_    0.878961 0.608916 0.418283 0.300128
H184  H     H_    0.830395 0.607091 0.387615 0.274604
H185  H     H_    0.785470 0.580087 0.417401 0.256631
H186  H     H_    0.817964 0.470184 0.392759 0.222830
H187  H     H_    0.867116 0.474268 0.421817 0.239036
C239  C     C_3   0.620038 0.928866 0.398060 -0.331595
C240  C     C_3   0.590440 0.857388 0.408938 -0.740955
H188  H     H_    0.550895 0.866366 0.424926 0.227330
H189  H     H_    0.563495 0.826057 0.393133 0.265060
H190  H     H_    0.635947 0.824389 0.416828 0.283530
H191  H     H_    0.662539 0.913012 0.383945 0.214225
H192  H     H_    0.649838 0.959844 0.413152 0.277993

loop_
_geom_bond_atom_site_label_1
_geom_bond_atom_site_label_2
_ccdc_geom_bond_type
C224  H150  S    
O140  H48   S    
S43   O196  D    
C228  H158  S    
C87   C91   A    
C130  C146  A    
C4    O12   A    
O158  H54   S    
C200  H80   S    
C175  H15   S    
C66   N6    S    
C117  C133  A    
C42   O66   S    
O86   H30   S    
C159  S15   S    
C23   H23   S    
S33   O165  D    
C127  C170  S    
C232  H169  S    
C75   C93   A    
O98   H34   S    
C70   O16   A    
C156  S12   S    
C135  C151  A    
C47   C65   A    
C18   H18   S    
C102  C132  S    
C217  H137  S    
C84   C231  S    
C173  S29   S    
C28   C40   A    
C9    C185  A    
S42   O193  D    
C6    C188  A    
C204  H92   S    
O2    Zn12  S    
O191  H105  S    
C62   C70   S    
C13   S37   S    
C199  C200  S    
S45   O201  D    
C57   S45   S    
C74   C94   A    
C237  H186  S    
S22   O134  S    
C3    O11   A    
C193  H68   S    
C206  H97   S    
C8    C190  A    
S4    O78   D    
S29   O154  D    
C226  H155  S    
C55   S43   S    
C235  C236  S    
C95   N3    S    
C153  S9    S    
C105  O29   A    
C144  C160  A    
C209  H117  S    
C129  C145  A    
C98   C136  S    
S13   O107  S    
O31   Zn15  S    
C138  C154  A    
S42   O194  S    
S25   O142  D    
C212  H119  S    
C155  C158  A    
S22   O133  D    
C114  C130  A    
C76   C84   A    
C182  C192  A    
C142  C158  A    
C222  H145  S    
C183  C189  A    
C79   C87   A    
C136  C152  A    
C178  N2    A    
C215  C216  S    
C231  H171  S    
C126  C142  A    
O1    Zn9   S    
C111  C139  S    
C237  C238  S    
C238  H185  S    
C149  S5    S    
C221  C222  S    
C147  C150  A    
C121  C128  A    
C37   O61   S    
C196  H71   S    
C169  S25   S    
O209  H111  S    
C26   C38   A    
C123  C126  A    
O8    Zn10  S    
C177  O53   S    
C20   C28   A    
C210  H115  S    
C39   O63   S    
S2    O72   D    
C233  H177  S    
C21   C29   A    
C146  S2    S    
O2    Zn4   S    
C165  S21   S    
C3    C92   S    
C23   C31   A    
C15   C19   A    
C225  H156  S    
C24   C32   A    
C113  C120  A    
C197  H78   S    
C1    O7    A    
C234  H174  S    
C198  H77   S    
S36   O175  D    
C16   C20   A    
C216  H130  S    
O95   H33   S    
C137  C153  A    
C127  C143  A    
O167  H57   S    
C210  H114  S    
C69   O15   A    
C71   O17   A    
C217  C218  S    
C140  C156  A    
O32   Zn16  S    
C141  C157  A    
O143  H49   S    
C63   C71   S    
C228  H160  S    
C39   N5    A    
O29   Zn13  S    
S17   O117  D    
S45   O203  S    
C56   C62   A    
C12   S36   S    
C107  C143  S    
O116  H40   S    
O212  H112  S    
C123  C174  S    
S40   O186  D    
C150  S6    S    
C54   S42   S    
S33   O167  S    
C201  H88   S    
S19   O124  D    
C15   C191  A    
C207  C208  S    
C197  H79   S    
C183  N3    A    
C158  S14   S    
O23   Zn11  S    
C4    O10   A    
O24   Zn12  S    
C177  N1    A    
C195  C196  S    
S16   O115  D    
C182  O58   S    
C46   C66   A    
C76   C94   A    
C122  C175  S    
C6    C186  A    
C59   C63   A    
C214  H125  S    
C30   C36   A    
C60   C64   A    
C17   C25   A    
C203  C204  S    
C176  H16   S    
C11   C187  A    
C37   N5    A    
C80   C88   A    
C225  C226  S    
C3    O9    A    
C97   O21   A    
O14   Zn2   S    
S6    O86   S    
C9    C21   A    
S34   O168  D    
O25   Zn11  S    
C8    C192  A    
S4    O80   S    
C11   C23   A    
C169  C176  S    
C20   H20   S    
C46   C195  S    
C106  O48   A    
C229  H167  S    
C170  H10   S    
C77   C217  S    
S18   O120  D    
S32   O162  D    
C98   O40   A    
C184  N4    A    
S47   O209  S    
S48   O210  D    
C99   O37   A    
C233  C234  S    
S11   O99   D    
C240  H189  S    
S21   O129  D    
O11   Zn13  S    
O51   Zn5   S    
C48   C199  S    
S3    O76   D    
C209  C210  S    
O1    Zn11  S    
C181  C191  A    
S23   O135  D    
C97   C133  S    
C180  O56   S    
C219  C220  S    
C113  C168  S    
C234  H173  S    
O35   Zn13  S    
C114  C167  S    
S25   O141  D    
C27   C33   A    
C183  O59   S    
S31   O160  D    
C211  H121  S    
O2    Zn2   S    
C31   C43   A    
C32   C36   A    
O131  H45   S    
C200  H81   S    
C59   S47   S    
C110  O34   A    
S27   O148  D    
S46   O205  D    
C236  H179  S    
O101  H35   S    
C216  H128  S    
C207  H104  S    
C49   C57   A    
S12   O102  D    
C10   S34   S    
C93   N1    S    
C121  C137  A    
C122  C127  A    
C47   C55   A    
S14   O108  D    
C194  H66   S    
C52   C60   A    
C53   C61   A    
C107  O31   A    
C125  C141  A    
C43   O67   S    
S17   O119  S    
C131  C147  A    
S30   O156  D    
O28   Zn12  S    
C203  H94   S    
C114  C119  A    
C118  C134  A    
S40   O188  S    
C2    O8    A    
C4    C91   S    
C50   C203  S    
C206  H96   S    
C227  H162  S    
C128  C169  S    
C179  N1    A    
C86   C235  S    
S5    O82   D    
C68   N8    S    
C84   C90   A    
O9    Zn15  S    
C42   N8    A    
O10   Zn16  S    
S36   O174  D    
C100  C134  S    
C57   C63   A    
C208  H102  S    
S1    O70   D    
C58   C64   A    
C83   C89   A    
S38   O181  D    
C174  S30   S    
C167  S23   S    
C199  H83   S    
C72   O18   A    
C163  S19   S    
O83   H29   S    
C222  H144  S    
C78   C96   A    
C97   O39   A    
S6    O84   D    
S44   O198  D    
S15   O113  S    
C74   C211  S    
S39   O184  D    
O26   Zn10  S    
C45   C193  S    
S28   O150  D    
S14   O110  S    
C238  H184  S    
O44   Zn4   S    
C43   N7    A    
C219  H142  S    
C172  S28   S    
C76   C215  S    
S47   O207  D    
C116  C132  A    
S48   O212  S    
C139  C155  A    
S30   O158  S    
C161  H1    S    
C8    C34   A    
C176  S32   S    
S21   O131  S    
S37   O178  D    
C203  H93   S    
C180  C186  A    
S24   O138  D    
C198  H76   S    
S9    O95   S    
O37   Zn3   S    
S32   O163  D    
C45   C65   A    
O137  H47   S    
C226  H154  S    
O6    Zn12  S    
O113  H39   S    
O48   Zn6   S    
O7    Zn9   S    
O20   Zn8   S    
C87   C237  S    
O125  H43   S    
S41   O191  S    
O21   Zn9   S    
C224  H149  S    
C22   C30   A    
C29   C41   A    
C223  H151  S    
C30   C42   A    
C100  O38   A    
O155  H53   S    
S30   O157  D    
C197  C198  S    
C164  H4    S    
C12   C24   A    
C80   C223  S    
C204  H91   S    
S12   O104  S    
C13   C17   A    
C220  H140  S    
C218  H135  S    
C108  O46   A    
C178  C188  A    
C154  C159  A    
O122  H42   S    
C112  O36   A    
C24   H24   S    
C51   C67   A    
C81   C225  S    
C73   C93   A    
C55   C61   A    
O27   Zn9   S    
C214  H124  S    
O30   Zn14  S    
S11   O101  S    
O38   Zn4   S    
C16   S40   S    
C215  H132  S    
C145  C152  A    
C2    O6    A    
S43   O195  D    
C14   C190  A    
C221  H147  S    
S7    O89   S    
C51   C59   A    
S8    O90   D    
O19   Zn7   S    
S29   O153  D    
C11   S35   S    
O176  H60   S    
S44   O200  S    
C235  H181  S    
C211  H122  S    
C70   O14   A    
C48   C66   A    
O149  H51   S    
C103  C131  S    
C209  H116  S    
C164  S20   S    
S36   O176  S    
O146  H50   S    
C25   C33   A    
S13   O106  D    
C101  C129  S    
O3    Zn15  S    
C1    C90   S    
C161  S17   S    
O4    Zn8   S    
C7    C33   A    
C213  H126  S    
C72   O20   A    
S35   O171  D    
C18   C26   A    
S20   O128  S    
C5    C185  A    
C171  C174  S    
O4    Zn14  S    
C160  S16   S    
C65   N5    S    
S26   O144  D    
C60   S48   S    
S35   O173  S    
O12   Zn14  S    
S15   O111  D    
C231  H172  S    
C10   C22   A    
C182  N4    A    
C38   O62   S    
C202  H85   S    
S9    O93   D    
C151  S7    S    
S28   O152  S    
C19   H19   S    
C155  S11   S    
C164  C165  S    
S23   O136  D    
C112  O50   A    
C98   O22   A    
C17   H17   S    
C193  C194  S    
S25   O143  S    
S2    O73   D    
C233  H176  S    
O41   Zn3   S    
O179  H61   S    
C48   C56   A    
C73   C81   A    
C172  H12   S    
C213  H127  S    
S24   O140  S    
C229  C230  S    
C216  H129  S    
C181  N3    A    
C44   N8    A    
C49   C67   A    
C226  H153  S    
C196  H70   S    
C82   C227  S    
S2    O74   S    
O77   H27   S    
S43   O197  S    
C28   C34   A    
C240  H188  S    
C228  H159  S    
C104  C130  S    
C108  O32   A    
S45   O202  D    
C7    C191  A    
O40   Zn2   S    
C74   C82   A    
C119  C162  S    
C111  O35   A    
O52   Zn8   S    
S40   O187  D    
O206  H110  S    
C170  C175  S    
S33   O166  D    
C117  C164  S    
C221  H146  S    
C232  H170  S    
C101  O25   A    
C118  C163  S    
O152  H52   S    
C50   C58   A    
C163  C166  S    
C122  C138  A    
O92   H32   S    
O161  H55   S    
C103  O41   A    
C174  H14   S    
C54   C62   A    
S42   O192  D    
S41   O189  D    
C45   C53   A    
C119  C135  A    
C40   N6    A    
C120  C136  A    
C2    C89   S    
O4    Zn6   S    
S27   O147  D    
O49   Zn7   S    
C79   C95   A    
O170  H58   S    
C100  O24   A    
C112  C138  S    
C193  H69   S    
S34   O169  D    
S7    O87   D    
S8    O92   S    
C163  H3    S    
S39   O185  S    
S23   O137  S    
O39   Zn1   S    
C99   C135  S    
C115  C166  S    
O33   Zn15  S    
S18   O121  D    
C170  S26   S    
C171  S27   S    
S47   O208  D    
S48   O211  D    
O3    Zn13  S    
C212  H120  S    
C53   S41   S    
S22   O132  D    
O2    Zn10  S    
C31   C35   A    
C116  C165  S    
C168  S24   S    
O3    Zn7   S    
C5    C187  A    
O4    Zn16  S    
S34   O170  S    
C104  O28   A    
O185  H63   S    
C227  C228  S    
C168  H8    S    
O89   H31   S    
C124  C140  A    
C230  H165  S    
S20   O127  D    
O119  H41   S    
S18   O122  S    
C196  H72   S    
O17   Zn5   S    
O203  H109  S    
S4    O79   D    
C143  C159  A    
C179  C185  A    
O107  H37   S    
C51   C205  S    
C177  C187  A    
O42   Zn2   S    
C38   N6    A    
C225  H157  S    
C71   O19   A    
O80   H28   S    
C56   S44   S    
C152  S8    S    
S46   O206  S    
C75   C83   A    
C236  H178  S    
C153  C160  A    
O1    Zn1   S    
C230  H164  S    
C111  O49   A    
S12   O103  D    
C81   C89   A    
C171  H11   S    
C210  H113  S    
S14   O109  D    
C234  H175  S    
C169  H9    S    
S3    O75   D    
C145  S1    S    
C217  H136  S    
C14   S38   S    
O22   Zn10  S    
O173  H59   S    
C239  H191  S    
S17   O118  D    
C223  C224  S    
C7    C189  A    
C173  H13   S    
C106  O30   A    
C50   C68   A    
S19   O123  D    
O36   Zn16  S    
O16   Zn4   S    
C224  H148  S    
C105  O47   A    
S19   O125  S    
C162  C167  S    
C232  H168  S    
C75   C213  S    
C96   N4    S    
C107  O45   A    
C99   O23   A    
S5    O81   D    
C14   C18   A    
C180  N2    A    
O104  H36   S    
C73   C209  S    
C218  H134  S    
C78   C219  S    
S16   O114  D    
C166  H6    S    
O134  H46   S    
C85   C91   A    
O188  H64   S    
C208  H101  S    
C115  C131  A    
S1    O69   D    
O71   H25   S    
S38   O182  S    
C113  C129  A    
C199  H84   S    
C109  C137  S    
C156  C157  A    
C104  O42   A    
S13   O105  D    
C165  H5    S    
O50   Zn6   S    
C105  C141  S    
S6    O85   D    
S15   O112  D    
C121  C176  S    
O15   Zn3   S    
C231  C232  S    
C88   C239  S    
S39   O183  D    
C12   C188  A    
C5    C35   A    
C94   N2    S    
C13   C189  A    
C116  C117  A    
C166  S22   S    
S28   O151  D    
O182  H62   S    
C47   C197  S    
C115  C118  A    
C125  C172  S    
C178  O54   S    
C208  H100  S    
C21   H21   S    
C126  C171  S    
O34   Zn14  S    
C10   C186  A    
C162  S18   S    
C88   C92   A    
C6    C36   A    
C240  H190  S    
C213  C214  S    
C239  C240  S    
O3    Zn5   S    
S21   O130  D    
C16   C192  A    
S37   O177  D    
C215  H131  S    
C52   C68   A    
C184  O60   S    
C205  H99   S    
C25   C37   A    
S29   O155  S    
S24   O139  D    
O197  H107  S    
C101  O43   A    
S3    O77   S    
C179  O55   S    
S9    O94   D    
C102  O44   A    
C46   C54   A    
O74   H26   S    
C108  C142  S    
C26   C34   A    
S41   O190  D    
S31   O161  S    
C214  H123  S    
C132  C148  A    
C223  H152  S    
C200  H82   S    
C133  C149  A    
C148  C149  A    
O47   Zn5   S    
S27   O149  S    
C27   C39   A    
C205  C206  S    
S32   O164  S    
S46   O204  D    
C236  H180  S    
C124  C173  S    
C194  H67   S    
C201  C202  S    
O1    Zn3   S    
C207  H103  S    
C77   C95   A    
C40   O64   S    
C146  C151  A    
C147  S3    S    
O43   Zn1   S    
C67   N7    S    
C181  O57   S    
C194  H65   S    
C103  O27   A    
C52   C207  S    
C128  C144  A    
O164  H56   S    
O128  H44   S    
C162  H2    S    
C204  H90   S    
C32   C44   A    
S11   O100  D    
C82   C90   A    
O110  H38   S    
C41   N7    A    
O13   Zn1   S    
C120  C161  S    
C110  O52   A    
S44   O199  D    
C206  H95   S    
S7    O88   D    
S8    O91   D    
C227  H161  S    
S10   O96   D    
S10   O97   D    
C22   H22   S    
S5    O83   S    
C235  H182  S    
C80   C96   A    
C195  H74   S    
S16   O116  S    
O45   Zn7   S    
C19   C27   A    
C172  C173  S    
O46   Zn8   S    
C220  H138  S    
S1    O71   S    
C61   C69   S    
S20   O126  D    
O18   Zn6   S    
C83   C229  S    
S38   O180  D    
C184  C190  A    
C167  H7    S    
C44   O68   S    
C134  C150  A    
C230  H163  S    
C102  O26   A    
C237  H187  S    
C175  S31   S    
C222  H143  S    
S26   O145  D    
S35   O172  D    
C106  C144  S    
C205  H98   S    
C41   O65   S    
S10   O98   S    
C79   C221  S    
C29   C35   A    
C202  H86   S    
C212  H118  S    
C9    S33   S    
C238  H183  S    
C110  C140  S    
C229  H166  S    
C195  H73   S    
O200  H108  S    
C86   C92   A    
C219  H141  S    
C239  H192  S    
C78   C86   A    
C154  S10   S    
C211  C212  S    
S31   O159  D    
C148  S4    S    
C64   C72   S    
C109  O33   A    
O194  H106  S    
S37   O179  S    
C15   S39   S    
C161  C168  S    
O5    Zn11  S    
C123  C139  A    
C58   S46   S    
C77   C85   A    
C201  H89   S    
C1    O5    A    
C198  H75   S    
C202  H87   S    
C85   C233  S    
C157  S13   S    
S26   O146  S    
C220  H139  S    
C218  H133  S    
C69   O13   A    
C49   C201  S    
C124  C125  A    
C109  O51   A    
