data_mof_unit_18612.cif
_audit_creation_date              2012-10-26T21:03:32-0400
_audit_creation_method            fapswitch 2.2
_symmetry_space_group_name_H-M    P1
_symmetry_Int_Tables_number       1
_space_group_crystal_system       triclinic
_cell_length_a                    15.98128
_cell_length_b                    14.738898
_cell_length_c                    10.729291
_cell_angle_alpha                 90.00002
_cell_angle_beta                  89.797342
_cell_angle_gamma                 90.0
_cell_volume                      2527.23065979

loop_
_atom_site_label
_atom_site_type_symbol
_atom_type_description
_atom_site_fract_x
_atom_site_fract_y
_atom_site_fract_z
_atom_type_partial_charge
C1    C     C_R   0.340833 0.500033 0.499619 0.581900
C2    C     C_R   0.445772 0.951712 0.421047 0.227198
C3    C     C_R   0.500000 0.902774 0.500000 -0.055413
C4    C     C_R   0.445506 0.047989 0.421422 0.236625
C5    C     C_R   0.554494 0.047989 0.578578 0.236625
C6    C     C_R   0.500000 0.097048 0.500000 -0.063504
C7    C     C_1   0.500000 0.802644 0.500000 0.320739
C8    C     C_1   0.500000 0.197315 0.500000 0.300670
C9    C     C_R   0.511524 0.499828 0.261612 0.597807
C10   C     C_R   0.488476 0.499828 0.738388 0.597806
C11   C     C_R   0.556942 0.663768 0.099345 0.272903
C12   C     C_R   0.659167 0.500033 0.500380 0.581900
C13   C     C_R   0.443058 0.663768 0.900655 0.272903
C14   C     C_R   0.530235 0.745516 0.046513 -0.072656
C15   C     C_R   0.469765 0.745516 0.953487 -0.072656
C16   C     C_R   0.479104 0.581077 0.942465 -0.074827
C17   C     C_R   0.520896 0.581077 0.057535 -0.074826
C18   C     C_R   0.524245 0.498732 0.124838 -0.002599
C19   C     C_R   0.475755 0.498732 0.875162 -0.002599
C20   C     C_R   0.516586 0.415445 0.060510 0.203947
C21   C     C_R   0.483413 0.415445 0.939489 0.203947
C22   C     C_R   0.955622 0.593524 0.507517 0.243776
C23   C     C_R   0.956706 0.427662 0.500795 -0.131959
C24   C     C_R   0.044378 0.593524 0.492482 0.243776
C25   C     C_R   0.912780 0.509318 0.505022 -0.003416
C26   C     C_R   0.087220 0.509318 0.494978 -0.003416
C27   C     C_R   0.043294 0.427662 0.499206 -0.131959
C28   C     C_1   0.823217 0.504134 0.503135 0.071748
C29   C     C_1   0.176783 0.504134 0.496865 0.071749
C30   C     C_1   0.251787 0.500830 0.498523 0.103509
C31   C     C_1   0.748213 0.500830 0.501477 0.103508
C32   C     C_R   0.554228 0.951712 0.578953 0.227198
Cl1   Cl    Cl    0.623919 0.107247 0.677159 -0.371154
Cl2   Cl    Cl    0.376081 0.107247 0.322841 -0.371154
Cl3   Cl    Cl    0.622354 0.892100 0.679272 -0.445735
Cl4   Cl    Cl    0.377646 0.892100 0.320727 -0.445735
Cu1   Cu    Cu3+1 0.500000 0.589220 0.500000 1.198161
Cu2   Cu    Cu3+1 0.500000 0.410780 0.500000 1.170387
H1    H     H_    0.555733 0.809471 0.078454 0.200895
H2    H     H_    0.776182 0.730947 0.609067 0.406432
H3    H     H_    0.444267 0.809471 0.921547 0.200895
H4    H     H_    0.923708 0.363390 0.500311 0.168182
H5    H     H_    0.076292 0.363390 0.499692 0.168182
H6    H     H_    0.656540 0.288027 0.263942 0.370260
H7    H     H_    0.343459 0.288028 0.736058 0.370260
H8    H     H_    0.771072 0.729229 0.166382 0.405819
H9    H     H_    0.228929 0.729231 0.833617 0.405818
H10   H     H_    0.223816 0.730947 0.390925 0.406432
N1    N     N_1   0.500000 0.276710 0.500000 -0.138782
N2    N     N_1   0.500000 0.723290 0.500000 -0.116594
O1    O     O_R   0.380310 0.575320 0.500020 -0.452120
O2    O     O_2   0.601797 0.259846 0.017256 -0.156882
O3    O     O_3   0.642235 0.344667 0.219120 -0.497929
O4    O     O_2   0.498884 0.259646 0.810029 -0.199801
O5    O     O_2   0.398203 0.259847 0.982743 -0.156882
O6    O     O_3   0.357765 0.344667 0.780879 -0.497929
O7    O     O_2   0.632115 0.715796 0.310454 -0.260716
O8    O     O_2   0.682830 0.574038 0.215723 -0.269646
O9    O     O_3   0.722014 0.726537 0.110321 -0.455955
O10   O     O_2   0.367886 0.715796 0.689546 -0.260716
O11   O     O_2   0.317170 0.574038 0.784277 -0.269645
O12   O     O_R   0.619690 0.575320 0.499980 -0.452120
O13   O     O_3   0.277986 0.726537 0.889679 -0.455955
O14   O     O_2   0.051135 0.764050 0.396343 -0.143064
O15   O     O_2   0.127042 0.734552 0.590575 -0.216591
O16   O     O_3   0.189421 0.675394 0.382332 -0.506169
O17   O     O_2   0.948865 0.764051 0.603651 -0.143062
O18   O     O_2   0.872958 0.734551 0.409420 -0.216594
O19   O     O_3   0.810578 0.675395 0.617664 -0.506167
O20   O     O_R   0.380310 0.424640 0.499960 -0.500840
O21   O     O_R   0.619690 0.424640 0.500040 -0.500840
O22   O     O_R   0.500000 0.575360 0.319640 -0.488713
O23   O     O_R   0.500000 0.575360 0.680360 -0.488712
O24   O     O_R   0.500000 0.424670 0.319580 -0.453574
O25   O     O_R   0.500000 0.424670 0.680420 -0.453573
O26   O     O_2   0.501115 0.259646 0.189971 -0.199801
S1    S     S_3+6 0.564822 0.315550 0.120970 0.122658
S2    S     S_3+6 0.435177 0.315550 0.879030 0.122658
S3    S     S_3+6 0.649414 0.667462 0.189956 0.062695
S4    S     S_3+6 0.350586 0.667462 0.810045 0.062695
S5    S     S_3+6 0.102372 0.695664 0.466505 0.120160
S6    S     S_3+6 0.897628 0.695665 0.533491 0.120160

loop_
_geom_bond_atom_site_label_1
_geom_bond_atom_site_label_2
_ccdc_geom_bond_type
Cu2   O20   S    
H8    O9    S    
O7    S3    D    
C2    C4    A    
C9    O22   A    
Cu1   O12   S    
Cu2   N1    S    
C25   C28   S    
C26   C27   A    
C29   C30   T    
C23   H4    S    
C20   S1    S    
C22   S6    S    
C19   C21   A    
C24   C26   A    
C3    C7    S    
H9    O13   S    
C5    C6    A    
Cu1   O1    S    
C10   O23   A    
O11   S4    D    
O6    S2    S    
O19   S6    S    
C14   H1    S    
H6    O3    S    
C11   C17   A    
H7    O6    S    
C16   C17   A    
C22   C25   A    
C5    Cl1   S    
C21   S2    S    
C23   C27   A    
Cu2   O25   S    
C5    C32   A    
C13   S4    S    
O13   S4    S    
C4    Cl2   S    
H2    O19   S    
C32   Cl3   S    
O26   S1    D    
C15   H3    S    
C4    C6    A    
O9    S3    S    
O5    S2    D    
C6    C8    S    
O3    S1    S    
C24   S5    S    
Cu1   Cu2   S    
C12   O12   A    
C10   O25   A    
O15   S5    D    
C10   C19   S    
C17   C18   A    
C1    O1    A    
C11   S3    S    
O8    S3    D    
C26   C29   S    
C12   O21   A    
C13   C15   A    
C12   C31   S    
C22   C24   A    
Cu1   O22   S    
C9    O24   A    
O2    S1    D    
Cu2   O24   S    
C2    Cl4   S    
Cu1   O23   S    
Cu2   O21   S    
O10   S4    D    
C28   C31   T    
C7    N2    T    
C1    O20   A    
O18   S6    D    
C2    C3    A    
O16   S5    S    
Cu1   N2    S    
C16   C19   A    
C1    C30   S    
C11   C14   A    
C18   C20   A    
C23   C25   A    
C3    C32   A    
O14   S5    D    
C27   H5    S    
C9    C18   S    
C20   C21   A    
O17   S6    D    
C13   C16   A    
C14   C15   A    
H10   O16   S    
C8    N1    T    
O4    S2    D    
