data_mof_unit_36090.cif
_audit_creation_date              2012-12-10T18:06:04-0500
_audit_creation_method            fapswitch 2.2
_symmetry_space_group_name_H-M    P1
_symmetry_Int_Tables_number       1
_space_group_crystal_system       triclinic
_cell_length_a                    25.873813
_cell_length_b                    25.970907
_cell_length_c                    22.142257
_cell_angle_alpha                 90.349965
_cell_angle_beta                  54.319458
_cell_angle_gamma                 89.956732
_cell_volume                      12085.4227461

loop_
_atom_site_label
_atom_site_type_symbol
_atom_type_description
_atom_site_fract_x
_atom_site_fract_y
_atom_site_fract_z
_atom_type_partial_charge
C1    C     C_R   0.400190 0.250058 0.699407 0.521840
C2    C     C_3   0.229927 0.713269 0.974388 0.203642
C3    C     C_3   0.243426 0.205794 0.975538 0.208282
C4    C     C_3   0.733220 0.287884 0.976019 0.176016
C5    C     C_3   0.253568 0.703818 0.023313 0.206472
C6    C     C_3   0.255573 0.296775 0.024834 0.202263
C7    C     C_3   0.729812 0.716676 0.975362 0.201603
C8    C     C_3   0.691130 0.242187 0.023930 0.211367
C9    C     C_3   0.309235 0.741546 0.975254 0.176309
C10   C     C_3   0.310129 0.257879 0.975366 0.176270
C11   C     C_3   0.692010 0.763643 0.024977 0.209134
C12   C     C_3   0.188656 0.758981 0.024583 0.210129
C13   C     C_3   0.231317 0.289814 0.975876 0.185799
C14   C     C_3   0.811911 0.255930 0.975846 0.178218
C15   C     C_3   0.811308 0.739854 0.975272 0.176471
C16   C     C_3   0.188952 0.244533 0.024885 0.210913
C17   C     C_1   0.639492 0.249146 0.221370 0.113500
C18   C     C_1   0.360661 0.750643 0.778543 0.101385
C19   C     C_1   0.360389 0.250249 0.778628 0.108167
C20   C     C_1   0.640091 0.750488 0.221455 0.115746
C21   C     C_1   0.138713 0.749719 0.221369 0.115528
C22   C     C_1   0.861701 0.249948 0.778531 0.102100
C23   C     C_1   0.861152 0.750777 0.778635 0.106913
C24   C     C_3   0.753097 0.704641 0.023931 0.129227
C25   C     C_1   0.139509 0.250249 0.221447 0.117093
C26   C     C_3   0.612221 0.237051 0.004227 0.052924
C27   C     C_3   0.559096 0.199866 0.024438 -0.310640
C28   C     C_3   0.385835 0.715532 0.992360 0.045962
C29   C     C_3   0.450259 0.733714 0.971007 -0.347783
C30   C     C_3   0.387591 0.279384 0.993246 0.047602
C31   C     C_3   0.451319 0.258251 0.971058 -0.346475
C32   C     C_3   0.617069 0.793200 0.007069 0.061763
C33   C     C_3   0.551594 0.777365 0.029434 -0.328991
C34   C     C_3   0.111844 0.782604 0.006468 0.064717
C35   C     C_3   0.267998 0.787314 0.025351 0.135453
C36   C     C_3   0.048780 0.761234 0.027092 -0.325870
C37   C     C_3   0.891375 0.258676 0.994801 0.036831
C38   C     C_3   0.946664 0.293386 0.974220 -0.340992
C39   C     C_3   0.890549 0.727132 0.993081 0.039015
C40   C     C_3   0.943019 0.688155 0.970073 -0.336967
C41   C     C_3   0.108818 0.240515 0.007104 0.055662
C42   C     C_3   0.053723 0.205097 0.029125 -0.320510
C43   C     C_3   0.627427 0.059793 0.341319 -0.001187
C44   C     C_3   0.662818 0.091342 0.270508 -0.266973
C45   C     C_3   0.483900 0.949840 0.658348 0.019655
C46   C     C_3   0.746090 0.203889 0.974236 0.204531
C47   C     C_3   0.455181 0.916976 0.727449 -0.280362
C48   C     C_3   0.373247 0.059782 0.659771 -0.006376
C49   C     C_3   0.336846 0.088856 0.733406 -0.280799
C50   C     C_3   0.523072 0.947964 0.336907 0.025172
C51   C     C_3   0.555708 0.915705 0.266038 -0.309192
C52   C     C_3   0.125361 0.558851 0.340213 -0.002885
C53   C     C_3   0.160542 0.589574 0.268685 -0.264137
C54   C     C_3   0.986815 0.449785 0.656953 0.024918
C55   C     C_3   0.959757 0.416094 0.725022 -0.295015
C56   C     C_3   0.875552 0.560224 0.663060 -0.000696
C57   C     C_3   0.750161 0.798961 0.976207 0.183795
C58   C     C_3   0.842419 0.592090 0.734263 -0.290847
C59   C     C_3   0.015845 0.448301 0.341458 0.021834
C60   C     C_3   0.046346 0.416762 0.270236 -0.297254
C61   C     C_3   0.267726 0.212671 0.024202 0.132073
C62   C     C_3   0.714515 0.248580 0.073633 -0.058828
C63   C     C_3   0.285765 0.750914 0.926182 -0.069414
C64   C     C_3   0.286076 0.250900 0.926350 -0.067152
C65   C     C_R   0.599827 0.749997 0.300616 0.532975
C66   C     C_3   0.715020 0.751606 0.073830 -0.059499
C67   C     C_3   0.212155 0.749655 0.073619 -0.057322
C68   C     C_3   0.788443 0.249567 0.926167 -0.069875
C69   C     C_3   0.788194 0.751767 0.926361 -0.068510
C70   C     C_3   0.213041 0.251376 0.073818 -0.060899
C71   C     C_1   0.673251 0.248706 0.154684 0.123301
C72   C     C_1   0.326932 0.750899 0.845194 0.115027
C73   C     C_1   0.326879 0.250494 0.845309 0.119959
C74   C     C_1   0.673942 0.751079 0.154819 0.121527
C75   C     C_1   0.171679 0.749616 0.154681 0.127114
C76   C     C_R   0.599642 0.249836 0.300603 0.521934
C77   C     C_1   0.828926 0.249823 0.845178 0.112188
C78   C     C_1   0.828371 0.751270 0.845315 0.115217
C79   C     C_1   0.172665 0.250817 0.154806 0.122717
C80   C     C_R   0.298587 0.213856 0.454045 0.127759
C81   C     C_R   0.701077 0.785676 0.546805 0.205246
C82   C     C_R   0.696734 0.281145 0.552333 0.178291
C83   C     C_R   0.300014 0.713898 0.454173 0.181044
C84   C     C_R   0.798644 0.713958 0.453893 0.127491
C85   C     C_R   0.201061 0.285619 0.546880 0.206465
C86   C     C_R   0.196816 0.781358 0.552125 0.177372
C87   C     C_R   0.400402 0.750124 0.699367 0.519812
C88   C     C_R   0.800192 0.214048 0.453848 0.182721
C89   C     C_R   0.254097 0.226484 0.439858 0.129568
C90   C     C_R   0.745670 0.773016 0.560859 0.211020
C91   C     C_R   0.754322 0.285816 0.545627 0.144786
C92   C     C_R   0.248755 0.718236 0.447961 0.157687
C93   C     C_R   0.754136 0.726596 0.439736 0.130805
C94   C     C_R   0.245652 0.272964 0.560940 0.211091
C95   C     C_R   0.254396 0.785961 0.545473 0.145903
C96   C     C_R   0.748844 0.218326 0.447769 0.157347
C97   C     C_R   0.200926 0.257060 0.492091 -0.057652
C98   C     C_R   0.900294 0.750137 0.699410 0.522371
C99   C     C_R   0.798930 0.742690 0.508366 -0.058820
C100  C     C_R   0.803887 0.249972 0.499730 -0.059744
C101  C     C_R   0.196185 0.749850 0.500039 -0.057032
C102  C     C_R   0.700942 0.757118 0.492026 -0.057642
C103  C     C_R   0.298904 0.242638 0.508452 -0.058730
C104  C     C_R   0.303851 0.749971 0.499793 -0.059439
C105  C     C_R   0.696187 0.249812 0.500044 -0.057297
C106  C     C_R   0.531301 0.026811 0.431996 0.209576
C107  C     C_R   0.473616 0.973667 0.567041 0.207639
C108  C     C_R   0.469694 0.027427 0.567423 0.204914
C109  C     C_R   0.099766 0.249978 0.300617 0.532462
C110  C     C_R   0.528351 0.972934 0.432108 0.203683
C111  C     C_R   0.029416 0.526774 0.432578 0.209762
C112  C     C_R   0.974397 0.473686 0.567266 0.207525
C113  C     C_R   0.970658 0.527489 0.567720 0.204151
C114  C     C_R   0.026045 0.472980 0.432926 0.203106
C115  C     C_R   0.500823 0.946415 0.499646 -0.015294
C116  C     C_R   0.500032 0.053905 0.499797 -0.023079
C117  C     C_R   0.000185 0.446432 0.500108 -0.016156
C118  C     C_R   0.999705 0.553918 0.500156 -0.023726
C119  C     C_R   0.640005 0.250026 0.500072 0.625639
C120  C     C_R   0.099560 0.749895 0.300602 0.520901
C121  C     C_R   0.359973 0.749966 0.499940 0.626321
C122  C     C_R   0.357761 0.246990 0.503941 0.559404
C123  C     C_R   0.642217 0.752956 0.496167 0.565264
C124  C     C_R   0.140015 0.750018 0.500049 0.625845
C125  C     C_R   0.859973 0.249977 0.499943 0.626876
C126  C     C_R   0.857766 0.747003 0.503918 0.559158
C127  C     C_R   0.142216 0.252943 0.496183 0.565624
C128  C     C_R   0.499886 0.109898 0.499987 0.546087
C129  C     C_R   0.500339 0.890229 0.499841 0.601354
C130  C     C_R   0.999795 0.609902 0.500087 0.546094
C131  C     C_R   0.900535 0.250035 0.699365 0.522000
C132  C     C_R   0.000077 0.390236 0.500056 0.600114
C133  C     C_R   0.498868 0.390300 0.496526 0.556965
C134  C     C_R   0.501258 0.609725 0.503506 0.578480
C135  C     C_R   0.998876 0.890310 0.496559 0.557536
C136  C     C_R   0.001261 0.109735 0.503560 0.577747
C137  C     C_R   0.553378 0.473496 0.439350 0.115459
C138  C     C_R   0.447624 0.526493 0.560862 0.186620
C139  C     C_R   0.441603 0.474840 0.547514 0.141116
C140  C     C_R   0.559306 0.525292 0.452566 0.187357
C141  C     C_R   0.053459 0.973532 0.439602 0.116430
C142  C     C_3   0.756895 0.294277 0.025510 0.128746
C143  C     C_R   0.947630 0.026521 0.561034 0.186635
C144  C     C_R   0.941624 0.974863 0.547670 0.141253
C145  C     C_R   0.059345 0.025319 0.452882 0.187106
C146  C     C_R   0.503727 0.553163 0.507590 -0.041814
C147  C     C_R   0.496981 0.446907 0.492536 -0.077455
C148  C     C_R   0.003734 0.053189 0.507779 -0.042140
C149  C     C_R   0.997017 0.946933 0.492675 -0.077195
C150  C     C_3   0.244276 0.796716 0.976483 0.180660
C151  C     C_3   0.769706 0.210202 0.023816 0.206214
C152  C     C_3   0.773401 0.786962 0.025085 0.200897
H1    H     H_    0.656334 0.414157 0.395300 0.356097
H2    H     H_    0.595392 0.276736 0.006005 0.200359
H3    H     H_    0.603880 0.931167 0.223903 0.206584
H4    H     H_    0.149353 0.520708 0.328382 0.182122
H5    H     H_    0.128730 0.580210 0.381614 0.156433
H6    H     H_    0.137899 0.628009 0.278695 0.188227
H7    H     H_    0.210805 0.594858 0.248505 0.179177
H8    H     H_    0.159498 0.568717 0.225484 0.211826
H9    H     H_    0.990189 0.489805 0.672494 0.184613
H10   H     H_    0.035532 0.435407 0.612639 0.180333
H11   H     H_    0.956757 0.375580 0.711137 0.209596
H12   H     H_    0.991086 0.417698 0.744017 0.140889
H13   H     H_    0.515555 0.209541 0.080352 0.191283
H14   H     H_    0.911452 0.429856 0.770763 0.196779
H15   H     H_    0.851707 0.522080 0.676359 0.192649
H16   H     H_    0.870042 0.580681 0.622988 0.137737
H17   H     H_    0.864617 0.630700 0.722591 0.170219
H18   H     H_    0.791321 0.596922 0.757558 0.170763
H19   H     H_    0.846359 0.572450 0.775850 0.208391
H20   H     H_    0.010119 0.488508 0.329093 0.200186
H21   H     H_    0.967941 0.432029 0.383614 0.160243
H22   H     H_    0.052597 0.376193 0.280425 0.195507
H23   H     H_    0.015595 0.417649 0.250430 0.135179
H24   H     H_    0.548176 0.202445 0.982946 0.111964
H25   H     H_    0.093527 0.433050 0.226574 0.215977
H26   H     H_    0.573988 0.159806 0.024665 0.223603
H27   H     H_    0.387036 0.672854 0.989154 0.221585
H28   H     H_    0.349313 0.727848 0.050797 0.196552
H29   H     H_    0.450361 0.776327 0.975227 0.176282
H30   H     H_    0.460158 0.716688 0.009178 0.119789
H31   H     H_    0.488279 0.721531 0.913145 0.199298
H32   H     H_    0.350610 0.267059 0.051192 0.197479
H33   H     H_    0.395772 0.612084 0.718925 0.383868
H34   H     H_    0.390338 0.322036 0.991873 0.219323
H35   H     H_    0.489792 0.270520 0.913774 0.194529
H36   H     H_    0.461826 0.273013 0.009989 0.122726
H37   H     H_    0.449917 0.215544 0.973256 0.180808
H38   H     H_    0.652754 0.779343 0.949176 0.196676
H39   H     H_    0.618433 0.835880 0.008179 0.206311
H40   H     H_    0.514357 0.791666 0.086410 0.183553
H41   H     H_    0.542839 0.793968 0.990051 0.119525
H42   H     H_    0.548811 0.734756 0.028140 0.201842
H43   H     H_    0.149434 0.770640 0.948217 0.195426
H44   H     H_    0.379810 0.431588 0.482614 0.340106
H45   H     H_    0.108438 0.825268 0.009110 0.207817
H46   H     H_    0.009593 0.773703 0.084299 0.187084
H47   H     H_    0.038816 0.775549 0.987658 0.117725
H48   H     H_    0.050833 0.718511 0.024419 0.205778
H49   H     H_    0.906402 0.218234 0.992249 0.214695
H50   H     H_    0.850815 0.268000 0.052954 0.194435
H51   H     H_    0.933106 0.334368 0.977084 0.190857
H52   H     H_    0.959491 0.287401 0.013594 0.116481
H53   H     H_    0.988716 0.284249 0.916977 0.196477
H54   H     H_    0.849464 0.718090 0.050790 0.200871
H55   H     H_    0.704783 0.584973 0.302189 0.409075
H56   H     H_    0.908731 0.765917 0.992612 0.211818
H57   H     H_    0.985705 0.696871 0.913368 0.189307
H58   H     H_    0.956198 0.689820 0.009626 0.128914
H59   H     H_    0.926341 0.648704 0.970437 0.194570
H60   H     H_    0.149185 0.230629 0.949090 0.199984
H61   H     H_    0.093484 0.280712 0.008661 0.199314
H62   H     H_    0.011642 0.214982 0.086016 0.181899
H63   H     H_    0.040835 0.209481 0.989562 0.111097
H64   H     H_    0.067570 0.164417 0.027919 0.217536
H65   H     H_    0.188329 0.928394 0.988900 0.383388
H66   H     H_    0.156300 0.914159 0.395892 0.356695
H67   H     H_    0.864613 0.101519 0.013869 0.380504
H68   H     H_    0.876533 0.885934 0.019944 0.378251
H69   H     H_    0.173823 0.080279 0.989095 0.375084
H70   H     H_    0.637847 0.396417 0.986858 0.385649
H71   H     H_    0.307146 0.571353 0.012106 0.378650
H72   H     H_    0.313368 0.426732 0.017997 0.378119
H73   H     H_    0.614751 0.627792 0.987532 0.375663
H74   H     H_    0.125055 0.614874 0.982668 0.377691
H75   H     H_    0.851872 0.369194 0.958481 0.346736
H76   H     H_    0.840437 0.625366 0.951774 0.348244
H77   H     H_    0.895749 0.111945 0.719314 0.388095
H78   H     H_    0.137204 0.398465 0.983954 0.383176
H79   H     H_    0.679602 0.077885 0.981849 0.378881
H80   H     H_    0.384522 0.838861 0.958769 0.351900
H81   H     H_    0.381914 0.157939 0.953850 0.352952
H82   H     H_    0.703869 0.933615 0.985661 0.385334
H83   H     H_    0.263739 0.106060 0.443952 0.366689
H84   H     H_    0.664160 0.914945 0.631473 0.374254
H85   H     H_    0.586827 0.346868 0.733323 0.382776
H86   H     H_    0.369094 0.590039 0.355626 0.384149
H87   H     H_    0.763977 0.606165 0.443419 0.366523
H88   H     H_    0.879767 0.931679 0.482810 0.339293
H89   H     H_    0.163922 0.414781 0.631903 0.372640
H90   H     H_    0.087392 0.848276 0.732142 0.387358
H91   H     H_    0.869969 0.090601 0.354326 0.382025
H92   H     H_    0.368634 0.246185 0.286836 0.344133
H93   H     H_    0.750045 0.839526 0.704457 0.387395
H94   H     H_    0.741737 0.402107 0.556407 0.357588
H95   H     H_    0.337601 0.711515 0.279670 0.359192
H96   H     H_    0.868600 0.746571 0.286677 0.344449
H97   H     H_    0.249923 0.339501 0.704615 0.393013
H98   H     H_    0.242474 0.902272 0.555536 0.358258
H99   H     H_    0.205084 0.084488 0.302526 0.410890
H100  H     H_    0.837183 0.211939 0.279330 0.357772
H101  H     H_    0.652045 0.021919 0.329087 0.184372
H102  H     H_    0.629558 0.080874 0.383817 0.158173
H103  H     H_    0.639869 0.129708 0.281226 0.181930
H104  H     H_    0.712961 0.096777 0.250750 0.183020
H105  H     H_    0.662172 0.071017 0.226694 0.209522
H106  H     H_    0.487645 0.989988 0.673188 0.187134
H107  H     H_    0.532572 0.934788 0.615166 0.179836
H108  H     H_    0.451300 0.876417 0.714503 0.207375
H109  H     H_    0.485889 0.918318 0.747307 0.148266
H110  H     H_    0.653533 0.228132 0.946323 0.195294
H111  H     H_    0.407091 0.931738 0.772171 0.210621
H112  H     H_    0.350338 0.021540 0.668877 0.188497
H113  H     H_    0.369692 0.082153 0.619517 0.139032
H114  H     H_    0.358114 0.127459 0.726237 0.180952
H115  H     H_    0.286432 0.093702 0.753838 0.164070
H116  H     H_    0.338544 0.066949 0.775128 0.217552
H117  H     H_    0.518728 0.988047 0.322889 0.199493
H118  H     H_    0.474523 0.932169 0.377478 0.160229
H119  H     H_    0.560230 0.875166 0.278000 0.193157
H120  H     H_    0.527279 0.916733 0.243163 0.130915
O1    O     O_3   0.500000 0.250030 0.500000 -0.512221
O2    O     O_R   0.112550 0.219620 0.335580 -0.478815
O3    O     O_2   0.268575 0.649096 0.115096 -0.345317
O4    O     O_2   0.190171 0.617854 0.095218 -0.214727
O5    O     O_3   0.310160 0.604596 0.988579 -0.459448
O6    O     O_2   0.195125 0.383869 0.099163 -0.229744
O7    O     O_2   0.271666 0.348040 0.119007 -0.304901
O8    O     O_3   0.315673 0.393900 0.993516 -0.458557
O9    O     O_2   0.700317 0.693462 0.879972 -0.303957
O10   O     O_2   0.745635 0.624370 0.910756 -0.242724
O11   O     O_3   0.628252 0.651750 0.010800 -0.446679
O12   O     O_2   0.201304 0.686765 0.879115 -0.287744
O13   O     O_R   0.112550 0.780380 0.335580 -0.473477
O14   O     O_2   0.255612 0.622064 0.903752 -0.172353
O15   O     O_3   0.135859 0.640481 0.006956 -0.451615
O16   O     O_2   0.697511 0.380536 0.103129 -0.116948
O17   O     O_2   0.777635 0.344815 0.116685 -0.251989
O18   O     O_3   0.816354 0.392440 0.994160 -0.412882
O19   O     O_2   0.767855 0.646778 0.114051 -0.251087
O20   O     O_2   0.686786 0.619988 0.096566 -0.128557
O21   O     O_3   0.805124 0.602899 0.988741 -0.411834
O22   O     O_2   0.265516 0.379492 0.902301 -0.157507
O23   O     O_2   0.202799 0.320603 0.882359 -0.304850
O24   O     O_R   0.887450 0.219620 0.664420 -0.504637
O25   O     O_3   0.144833 0.370622 0.008294 -0.479729
O26   O     O_2   0.731572 0.154304 0.877561 -0.283951
O27   O     O_2   0.801651 0.114208 0.904532 -0.180750
O28   O     O_3   0.679408 0.110227 0.005919 -0.458772
O29   O     O_2   0.237298 0.875228 0.103790 -0.111692
O30   O     O_2   0.302510 0.813733 0.115503 -0.270282
O31   O     O_3   0.356505 0.866576 0.993655 -0.416561
O32   O     O_2   0.301167 0.181818 0.113528 -0.252317
O33   O     O_2   0.235051 0.123642 0.098559 -0.129258
O34   O     O_3   0.354559 0.130618 0.989254 -0.412505
O35   O     O_R   0.594260 0.219670 0.543090 -0.483916
O36   O     O_2   0.818430 0.883131 0.903288 -0.161420
O37   O     O_2   0.738726 0.856190 0.883334 -0.291715
O38   O     O_3   0.699158 0.900154 0.009591 -0.483732
O39   O     O_2   0.407456 0.164906 0.348523 -0.169184
O40   O     O_2   0.348100 0.129460 0.474022 -0.276650
O41   O     O_3   0.304974 0.113262 0.396021 -0.391527
O42   O     O_2   0.650507 0.870161 0.529017 -0.285676
O43   O     O_2   0.591398 0.832836 0.653817 -0.249047
O44   O     O_3   0.693546 0.885185 0.607335 -0.407612
O45   O     O_2   0.622533 0.365436 0.595011 -0.263706
O46   O     O_R   0.405740 0.780330 0.456910 -0.503436
O47   O     O_2   0.566741 0.284545 0.648919 -0.273826
O48   O     O_3   0.623961 0.324005 0.700759 -0.402961
O49   O     O_2   0.413319 0.686106 0.330572 -0.261051
O50   O     O_2   0.387123 0.648305 0.445775 -0.270066
O51   O     O_3   0.331253 0.611554 0.390751 -0.395852
O52   O     O_2   0.907595 0.665158 0.348259 -0.165573
O53   O     O_2   0.848241 0.629509 0.473640 -0.275564
O54   O     O_3   0.805204 0.613453 0.395524 -0.392449
O55   O     O_2   0.150423 0.370106 0.529212 -0.286951
O56   O     O_2   0.091349 0.332655 0.653941 -0.252580
O57   O     O_R   0.405740 0.219670 0.456910 -0.484456
O58   O     O_3   0.193406 0.385094 0.607591 -0.408035
O59   O     O_2   0.123222 0.865943 0.593874 -0.262491
O60   O     O_2   0.066807 0.785353 0.648293 -0.272000
O61   O     O_3   0.123968 0.824773 0.700231 -0.400039
O62   O     O_2   0.913437 0.186865 0.329677 -0.267182
O63   O     O_2   0.888157 0.148890 0.444374 -0.271575
O64   O     O_3   0.832008 0.111880 0.389827 -0.396306
O65   O     O_2   0.244230 0.165979 0.347377 -0.144351
O66   O     O_2   0.247942 0.258816 0.328473 -0.265913
O67   O     O_3   0.352564 0.212011 0.285062 -0.413697
O68   O     O_R   0.594260 0.780330 0.543090 -0.481259
O69   O     O_2   0.655729 0.786589 0.708569 -0.210981
O70   O     O_2   0.751728 0.739238 0.671347 -0.286566
O71   O     O_3   0.759726 0.838297 0.654089 -0.370419
O72   O     O_2   0.743984 0.315274 0.668894 -0.164347
O73   O     O_2   0.833141 0.351948 0.553484 -0.302778
O74   O     O_3   0.722442 0.388685 0.607085 -0.405377
O75   O     O_2   0.219721 0.631970 0.406103 -0.220183
O76   O     O_2   0.211294 0.711329 0.354667 -0.301870
O77   O     O_3   0.323097 0.676248 0.299067 -0.412114
O78   O     O_2   0.744350 0.666208 0.347093 -0.150109
O79   O     O_R   0.094260 0.719670 0.543090 -0.484747
O80   O     O_2   0.747889 0.759072 0.328477 -0.261722
O81   O     O_3   0.852606 0.712358 0.284903 -0.415303
O82   O     O_2   0.155725 0.286505 0.708671 -0.210141
O83   O     O_2   0.251755 0.239181 0.671392 -0.291204
O84   O     O_3   0.259698 0.338241 0.654202 -0.369341
O85   O     O_2   0.243686 0.815591 0.668898 -0.168493
O86   O     O_2   0.333321 0.851878 0.553526 -0.301129
O87   O     O_3   0.222948 0.888989 0.606334 -0.406556
O88   O     O_2   0.720199 0.131860 0.405884 -0.221129
O89   O     O_2   0.710860 0.211085 0.354957 -0.302174
O90   O     O_R   0.905740 0.280330 0.456910 -0.504111
O91   O     O_3   0.823033 0.176621 0.298698 -0.412048
O92   O     O_3   0.563961 0.052995 0.365315 -0.529478
O93   O     O_3   0.444481 0.947479 0.633555 -0.522493
O94   O     O_3   0.437268 0.054088 0.634290 -0.530781
O95   O     O_3   0.559691 0.945950 0.365418 -0.531739
O96   O     O_3   0.061381 0.552786 0.365778 -0.524684
O97   O     O_3   0.946329 0.447472 0.633635 -0.522020
O98   O     O_3   0.940323 0.554294 0.634374 -0.533606
O99   O     O_3   0.055168 0.446116 0.366366 -0.530102
O100  O     O_R   0.905740 0.719670 0.456910 -0.484612
O101  O     O_3   0.500000 0.749970 0.500000 -0.509665
O102  O     O_R   0.094260 0.280330 0.543090 -0.480881
O103  O     O_R   0.508800 0.134220 0.543090 -0.510437
O104  O     O_R   0.491200 0.865780 0.456910 -0.514480
O105  O     O_R   0.491200 0.134220 0.456910 -0.486093
O106  O     O_R   0.508800 0.865780 0.543090 -0.508421
O107  O     O_R   0.008800 0.634220 0.543090 -0.510209
O108  O     O_R   0.991200 0.365780 0.456910 -0.513177
O109  O     O_R   0.991200 0.634220 0.456910 -0.485023
O110  O     O_R   0.008800 0.365780 0.543090 -0.508212
O111  O     O_R   0.448100 0.365830 0.543110 -0.463029
O112  O     O_3   0.000000 0.750030 0.500000 -0.512281
O113  O     O_R   0.551900 0.634170 0.456890 -0.466253
O114  O     O_R   0.551900 0.365830 0.456890 -0.513915
O115  O     O_R   0.448100 0.634170 0.543110 -0.469336
O116  O     O_R   0.948100 0.865830 0.543110 -0.462706
O117  O     O_R   0.051900 0.134170 0.456890 -0.466534
O118  O     O_R   0.051900 0.865830 0.456890 -0.513252
O119  O     O_R   0.948100 0.134170 0.543110 -0.469760
O120  O     O_R   0.637370 0.280400 0.456880 -0.494784
O121  O     O_R   0.362630 0.719600 0.543120 -0.471676
O122  O     O_R   0.362630 0.280400 0.543120 -0.461675
O123  O     O_3   0.000000 0.249970 0.500000 -0.509631
O124  O     O_R   0.637370 0.719600 0.456880 -0.472238
O125  O     O_R   0.137370 0.780400 0.456880 -0.493275
O126  O     O_R   0.862630 0.219600 0.543120 -0.472319
O127  O     O_R   0.862630 0.780400 0.543120 -0.462003
O128  O     O_R   0.137370 0.219600 0.456880 -0.472042
O129  O     O_R   0.448170 0.219660 0.664410 -0.521913
O130  O     O_R   0.551830 0.780340 0.335590 -0.556076
O131  O     O_R   0.551830 0.219660 0.335590 -0.532829
O132  O     O_R   0.448170 0.780340 0.664410 -0.540958
O133  O     O_R   0.948170 0.719660 0.664410 -0.526225
O134  O     O_R   0.387450 0.280380 0.664420 -0.499118
O135  O     O_R   0.051830 0.280340 0.335590 -0.554094
O136  O     O_R   0.051830 0.719660 0.335590 -0.531979
O137  O     O_R   0.948170 0.280340 0.664410 -0.541917
O138  O     O_2   0.574681 0.410093 0.329890 -0.235949
O139  O     O_2   0.638891 0.487745 0.291233 -0.128961
O140  O     O_3   0.667019 0.412957 0.344486 -0.399182
O141  O     O_2   0.340670 0.582420 0.652929 -0.178837
O142  O     O_2   0.362423 0.512515 0.709158 -0.163738
O143  O     O_3   0.429964 0.595123 0.671838 -0.518038
O144  O     O_2   0.342860 0.419717 0.656486 -0.156015
O145  O     O_R   0.612550 0.719620 0.335580 -0.478213
O146  O     O_2   0.316256 0.491843 0.608717 -0.176948
O147  O     O_3   0.363899 0.410167 0.527036 -0.448437
O148  O     O_2   0.637656 0.585990 0.464941 -0.246491
O149  O     O_2   0.685570 0.509576 0.387149 -0.232656
O150  O     O_3   0.657682 0.585886 0.335337 -0.413385
O151  O     O_2   0.075085 0.910209 0.329916 -0.242019
O152  O     O_2   0.139287 0.987847 0.291556 -0.136175
O153  O     O_3   0.167151 0.913007 0.345000 -0.395597
O154  O     O_2   0.840661 0.082452 0.653076 -0.180310
O155  O     O_2   0.862419 0.012574 0.709338 -0.163429
O156  O     O_R   0.612550 0.280380 0.335580 -0.473991
O157  O     O_3   0.929927 0.095203 0.672006 -0.513794
O158  O     O_2   0.842933 0.919691 0.656618 -0.155569
O159  O     O_2   0.816246 0.991853 0.608991 -0.177210
O160  O     O_3   0.863881 0.910231 0.527201 -0.448792
O161  O     O_2   0.137400 0.086094 0.465675 -0.245678
O162  O     O_2   0.185476 0.009582 0.388143 -0.230573
O163  O     O_3   0.157997 0.085814 0.335777 -0.414993
O164  O     O_3   0.626011 0.233003 0.056969 -0.509549
O165  O     O_3   0.375022 0.735316 0.941464 -0.546434
O166  O     O_3   0.376084 0.262261 0.941542 -0.542206
O167  O     O_R   0.387450 0.719620 0.664420 -0.504756
O168  O     O_3   0.626776 0.773365 0.058885 -0.515303
O169  O     O_3   0.122887 0.765324 0.058317 -0.509919
O170  O     O_3   0.877006 0.265287 0.942886 -0.544458
O171  O     O_3   0.875480 0.725676 0.941297 -0.544167
O172  O     O_3   0.123654 0.235441 0.058802 -0.509689
O173  O     O_2   0.306164 0.883409 0.905175 -0.233242
O174  O     O_2   0.228477 0.851049 0.884922 -0.292267
O175  O     O_3   0.185942 0.895126 0.012021 -0.453421
O176  O     O_2   0.795645 0.176983 0.118677 -0.318565
O177  O     O_2   0.736225 0.118852 0.092576 -0.229190
O178  O     O_R   0.887450 0.780380 0.664420 -0.497969
O179  O     O_3   0.857250 0.130008 0.990144 -0.464147
O180  O     O_2   0.746743 0.875806 0.101073 -0.210534
O181  O     O_2   0.804164 0.809986 0.119344 -0.296128
O182  O     O_3   0.866418 0.860500 0.994784 -0.464786
O183  O     O_2   0.225123 0.155159 0.882948 -0.334731
O184  O     O_2   0.296901 0.115329 0.907651 -0.236194
O185  O     O_3   0.175169 0.112704 0.011914 -0.439784
O186  O     O_2   0.766464 0.378294 0.904231 -0.213598
O187  O     O_2   0.704029 0.319663 0.883531 -0.287503
O188  O     O_3   0.645965 0.368367 0.010480 -0.458693
S1    S     S_3+6 0.608958 0.446090 0.348686 0.152379
S2    S     S_3+6 0.788812 0.157725 0.059535 0.042715
S3    S     S_3+6 0.796914 0.834465 0.063331 0.059715
S4    S     S_3+6 0.236473 0.145740 0.941219 0.047468
S5    S     S_3+6 0.713313 0.339834 0.940327 0.062298
S6    S     S_3+6 0.254322 0.642384 0.058751 0.036136
S7    S     S_3+6 0.258260 0.357048 0.062379 0.053286
S8    S     S_3+6 0.701848 0.670255 0.940918 0.054054
S9    S     S_3+6 0.206587 0.664378 0.937737 0.091426
S10   S     S_3+6 0.761190 0.354148 0.062842 0.132519
S11   S     S_3+6 0.752195 0.642348 0.058709 0.127521
S12   S     S_3+6 0.392096 0.553880 0.651224 0.133252
S13   S     S_3+6 0.211996 0.341369 0.938968 0.074264
S14   S     S_3+6 0.741048 0.144223 0.937252 0.088054
S15   S     S_3+6 0.290514 0.836593 0.062548 0.125247
S16   S     S_3+6 0.289048 0.161239 0.059312 0.122632
S17   S     S_3+6 0.753019 0.861045 0.939878 0.079100
S18   S     S_3+6 0.341999 0.154663 0.417454 0.113684
S19   S     S_3+6 0.656625 0.844270 0.585159 0.086613
S20   S     S_3+6 0.625516 0.314406 0.624550 0.080582
S21   S     S_3+6 0.360207 0.664801 0.404426 0.088468
S22   S     S_3+6 0.842140 0.654812 0.417131 0.114633
S23   S     S_3+6 0.363669 0.449528 0.587863 0.143487
S24   S     S_3+6 0.156557 0.344177 0.585317 0.084648
S25   S     S_3+6 0.125735 0.814981 0.623917 0.083627
S26   S     S_3+6 0.860731 0.165266 0.403533 0.085874
S27   S     S_3+6 0.273372 0.215476 0.349040 0.124078
S28   S     S_3+6 0.726573 0.783389 0.651717 0.117299
S29   S     S_3+6 0.764960 0.335550 0.594423 0.095447
S30   S     S_3+6 0.248967 0.683985 0.376816 0.075993
S31   S     S_3+6 0.773409 0.715712 0.348899 0.120191
S32   S     S_3+6 0.226568 0.283328 0.651799 0.119427
S33   S     S_3+6 0.265081 0.835718 0.594206 0.094711
S34   S     S_3+6 0.637203 0.551510 0.410442 0.120486
S35   S     S_3+6 0.748977 0.184017 0.376703 0.076109
S36   S     S_3+6 0.109219 0.946167 0.348961 0.148035
S37   S     S_3+6 0.892089 0.053930 0.651388 0.135439
S38   S     S_3+6 0.863687 0.949545 0.588046 0.143024
S39   S     S_3+6 0.137196 0.051530 0.411076 0.121748
S40   S     S_3+6 0.242524 0.858023 0.941427 0.054726
Zn1   Zn    Zn3+2 0.574170 0.293410 0.438410 1.075922
Zn2   Zn    Zn3+2 0.487410 0.793350 0.438420 1.025457
Zn3   Zn    Zn3+2 0.487410 0.206650 0.438420 1.044989
Zn4   Zn    Zn3+2 0.512590 0.793350 0.561580 1.037876
Zn5   Zn    Zn3+2 0.012590 0.706650 0.561580 1.038788
Zn6   Zn    Zn3+2 0.987410 0.293350 0.438420 1.025425
Zn7   Zn    Zn3+2 0.987410 0.706650 0.438420 1.046139
Zn8   Zn    Zn3+2 0.012590 0.293350 0.561580 1.037412
Zn9   Zn    Zn3+2 0.425830 0.706590 0.561590 1.100769
Zn10  Zn    Zn3+2 0.425830 0.293410 0.561590 1.087394
Zn11  Zn    Zn3+2 0.574170 0.706590 0.438410 1.107696
Zn12  Zn    Zn3+2 0.074170 0.793410 0.438410 1.077808
Zn13  Zn    Zn3+2 0.925830 0.206590 0.561590 1.100164
Zn14  Zn    Zn3+2 0.925830 0.793410 0.561590 1.087803
Zn15  Zn    Zn3+2 0.074170 0.206590 0.438410 1.107581
Zn16  Zn    Zn3+2 0.512590 0.206650 0.561580 1.041465

loop_
_geom_bond_atom_site_label_1
_geom_bond_atom_site_label_2
_ccdc_geom_bond_type
C34   H43   S    
O88   S35   D    
O35   Zn16  S    
O174  S40   D    
C34   O169  S    
H75   O18   S    
C60   H22   S    
O123  Zn8   S    
C5    C67   S    
O146  S23   D    
C69   C78   S    
C47   H109  S    
C111  C118  A    
C141  S36   S    
C4    C142  S    
O78   S31   D    
O51   S21   S    
C7    C24   S    
C57   C152  S    
C121  O46   A    
O110  Zn8   S    
O13   Zn12  S    
C117  C132  S    
C112  C113  A    
H84   O44   S    
C50   H118  S    
C14   C151  S    
C17   C76   S    
C45   H107  S    
O143  S12   S    
C26   O164  S    
C91   C100  A    
C91   S29   S    
C141  C145  A    
O41   S18   S    
C43   H101  S    
C49   H115  S    
H65   O175  S    
C116  C128  S    
C59   C60   S    
C38   H52   S    
H100  O91   S    
C106  O92   S    
C122  O57   A    
C12   C67   S    
C108  O94   S    
C127  O128  A    
C45   C47   S    
O133  Zn5   S    
C134  C146  S    
C137  C140  A    
C53   H7    S    
O33   S16   D    
C80   S18   S    
O54   S22   S    
C19   C73   T    
C9    O165  S    
C132  O108  A    
C2    S9    S    
O18   S10   S    
H44   O147  S    
C129  O106  A    
C44   H104  S    
C125  O90   A    
O139  S1    D    
C65   O130  A    
O31   S15   S    
C40   H57   S    
C82   C91   A    
C32   H39   S    
O9    S8    D    
C43   C44   S    
O63   S26   D    
C37   C38   S    
C46   S14   S    
C41   H61   S    
C61   S16   S    
C47   H108  S    
O24   Zn13  S    
C84   S22   S    
C53   H6    S    
C93   S31   S    
O140  S1    S    
C28   H28   S    
O43   S19   D    
C27   H13   S    
C3    S4    S    
H66   O153  S    
O151  S36   D    
C33   H42   S    
H92   O67   S    
O187  S5    D    
H87   O54   S    
O148  S34   D    
O181  S3    D    
O123  Zn6   S    
C107  C108  A    
C102  C123  S    
O145  Zn11  S    
C145  C148  A    
C98   O178  A    
O106  Zn4   S    
C68   C77   S    
O141  S12   D    
O177  S2    D    
C70   C79   S    
H77   O157  S    
O47   S20   D    
C76   O131  A    
C129  O104  A    
C27   H24   S    
O17   S10   D    
C143  S37   S    
O62   S26   D    
O180  S3    D    
C150  S40   S    
C58   H19   S    
C136  O117  A    
C55   H11   S    
H91   O64   S    
C107  O93   S    
C30   C31   S    
C48   H113  S    
O34   S16   S    
O120  Zn1   S    
O144  S23   D    
C84   C93   A    
C124  O125  A    
C120  O136  A    
H72   O8    S    
C85   C97   A    
C86   C95   A    
C131  O137  A    
C142  S10   S    
C31   H35   S    
O60   S25   D    
O1    Zn3   S    
C55   H14   S    
O122  Zn10  S    
O136  Zn7   S    
O121  Zn9   S    
C143  C144  A    
C41   O172  S    
C8    C62   S    
C28   O165  S    
C14   C142  S    
C37   O170  S    
C27   H26   S    
C132  O110  A    
C125  O126  A    
O79   Zn5   S    
C140  S34   S    
C45   H106  S    
C3    C64   S    
C66   C152  S    
H98   O87   S    
C13   C64   S    
O75   S30   D    
C51   H3    S    
C119  O35   A    
H99   O163  S    
O107  Zn5   S    
O65   S27   D    
O134  Zn10  S    
O81   S31   S    
C130  O109  A    
O132  Zn4   S    
C135  O118  A    
H93   O71   S    
C113  O98   S    
C4    C8    S    
C42   H63   S    
O123  Zn15  S    
O58   S24   S    
C64   C73   S    
C133  C147  S    
C35   C150  S    
O4    S6    D    
C109  O2    A    
C124  O79   A    
C25   C109  S    
C46   C151  S    
O131  Zn3   S    
C51   H120  S    
O129  Zn16  S    
C86   S25   S    
C94   S32   S    
O69   S28   D    
C62   C142  S    
C92   S30   S    
C133  O114  A    
C99   C126  S    
C143  C148  A    
C101  C124  S    
C29   H30   S    
O49   S21   D    
C58   H17   S    
C16   C70   S    
C59   O99   S    
C138  C139  A    
C39   C40   S    
C4    C68   S    
C13   S13   S    
C90   C99   A    
C134  O115  A    
C98   O133  A    
C63   C150  S    
C5    C9    S    
C128  O105  A    
C35   C67   S    
O87   S33   S    
C138  S12   S    
C39   H56   S    
O173  S40   D    
C32   H38   S    
C137  S1    S    
C122  O122  A    
O2    Zn15  S    
C136  C148  S    
C15   C24   S    
C109  O135  A    
O8    S7    S    
C17   C71   T    
C14   O170  S    
C24   S11   S    
C45   O93   S    
C2    C5    S    
C67   C75   S    
C54   O97   S    
C126  O127  A    
C2    C63   S    
O162  S39   D    
C49   H116  S    
C110  O95   S    
C37   H49   S    
C9    C63   S    
C10   C64   S    
O64   S26   S    
O57   Zn3   S    
C21   C75   T    
H90   O61   S    
C39   O171  S    
O90   Zn6   S    
H78   O25   S    
O102  Zn8   S    
O14   S9    D    
C138  C146  A    
O29   S15   D    
O123  Zn13  S    
O50   S21   D    
O76   S30   D    
C112  O97   S    
O185  S4    S    
C56   C58   S    
C62   C71   S    
C34   C36   S    
C90   S28   S    
C54   H9    S    
C76   O156  A    
C81   S19   S    
C8    C46   S    
C114  C117  A    
O157  S37   S    
O36   S17   D    
C23   C98   S    
O82   S32   D    
C16   O172  S    
C13   C16   S    
H86   O51   S    
C15   O171  S    
C123  O124  A    
O163  S39   S    
C3    C16   S    
C61   C70   S    
C96   C105  A    
C88   C96   A    
C38   H53   S    
C22   C131  S    
O111  Zn10  S    
H69   O185  S    
C41   C42   S    
C8    O164  S    
O66   S27   D    
O167  Zn9   S    
C1    O134  A    
C85   S24   S    
C52   C53   S    
C136  O119  A    
O72   S29   D    
C26   C27   S    
C134  O113  A    
C28   C29   S    
C36   H46   S    
O20   S11   D    
C115  C129  S    
C112  C117  A    
C10   O166  S    
O52   S22   D    
O37   S17   D    
C39   H54   S    
C40   H58   S    
O5    S6    S    
C83   S21   S    
O73   S29   D    
C80   C89   A    
O59   S25   D    
O128  Zn15  S    
O108  Zn6   S    
C54   C55   S    
C41   H60   S    
C32   O168  S    
O153  S36   S    
C35   S15   S    
C36   H47   S    
O11   S8    S    
C119  O120  A    
C11   C66   S    
C24   C66   S    
O16   S10   D    
C33   H41   S    
O184  S4    D    
C127  O102  A    
O127  Zn14  S    
C30   H32   S    
O147  S23   S    
C15   C152  S    
H88   O160  S    
O135  Zn6   S    
C43   O92   S    
C151  S2    S    
C18   C72   T    
C1    C19   S    
O119  Zn13  S    
C62   C151  S    
C20   C65   S    
O28   S14   S    
C140  C146  A    
C56   O98   S    
O38   S17   S    
C80   C103  A    
C49   H114  S    
C128  O103  A    
H96   O81   S    
O74   S29   S    
C106  C116  A    
H76   O21   S    
O126  Zn13  S    
O112  Zn14  S    
C88   S26   S    
C82   C105  A    
C118  C130  S    
C12   C150  S    
C152  S3    S    
C1    O129  A    
C111  O96   S    
C40   H59   S    
C50   H117  S    
H79   O28   S    
C50   C51   S    
O89   S35   D    
C20   C74   T    
C57   S17   S    
H89   O58   S    
C5    S6    S    
C88   C100  A    
C92   C101  A    
O39   S18   D    
H71   O5    S    
O30   S15   D    
C43   H102  S    
C48   C49   S    
O161  S39   D    
C94   C103  A    
C38   H51   S    
O84   S32   S    
C82   S20   S    
C52   O96   S    
O186  S5    D    
C59   H20   S    
C145  S39   S    
O160  S38   S    
C95   S33   S    
C52   H5    S    
C6    C70   S    
C53   H8    S    
C84   C99   A    
C137  C147  A    
C36   H48   S    
C22   C77   T    
O26   S14   D    
C144  S38   S    
C93   C102  A    
C6    C10   S    
O25   S13   S    
O42   S19   D    
O115  Zn9   S    
C44   H103  S    
O15   S9    S    
O100  Zn7   S    
O77   S30   S    
O150  S34   S    
C31   H37   S    
O61   S25   S    
O112  Zn5   S    
C32   C33   S    
C108  C116  A    
C60   H25   S    
O83   S32   D    
C30   O166  S    
C133  O111  A    
O179  S2    S    
O67   S27   S    
O156  Zn1   S    
O80   S31   D    
C111  C114  A    
H73   O11   S    
C23   C78   T    
C126  O100  A    
C28   H27   S    
O138  S1    D    
C42   H64   S    
C87   O132  A    
C63   C72   S    
C9    C35   S    
C60   H23   S    
C14   C68   S    
C105  C119  S    
O10   S8    D    
C11   C57   S    
C103  C122  S    
C110  C115  A    
C66   C74   S    
O159  S38   D    
C51   H119  S    
O3    S6    D    
O55   S24   D    
O154  S37   D    
H81   O34   S    
C97   C127  S    
C2    C12   S    
O53   S22   D    
H33   O143  S    
C141  C149  A    
O152  S36   D    
O101  Zn2   S    
C89   S27   S    
H1    O140  S    
C7    C11   S    
C83   C92   A    
C139  C147  A    
O149  S34   D    
H97   O84   S    
C29   H29   S    
C33   H40   S    
H68   O182  S    
O175  S40   S    
C30   H34   S    
C58   H18   S    
C55   H12   S    
C21   C120  S    
C96   S35   S    
O46   Zn2   S    
H85   O48   S    
O142  S12   D    
O71   S28   S    
O48   S20   S    
H82   O38   S    
C56   H15   S    
C46   C68   S    
O101  Zn9   S    
C11   O168  S    
O113  Zn11  S    
C31   H36   S    
C131  O24   A    
H67   O179  S    
H83   O41   S    
C123  O68   A    
O105  Zn3   S    
O103  Zn16  S    
C44   H105  S    
C130  O107  A    
O155  S37   D    
O22   S13   D    
C135  O116  A    
O104  Zn2   S    
C12   O169  S    
C50   O95   S    
O114  Zn1   S    
C114  O99   S    
H80   O31   S    
C81   C102  A    
C3    C61   S    
C120  O13   A    
C15   C69   S    
O137  Zn8   S    
O1    Zn10  S    
O112  Zn7   S    
H70   O188  S    
C83   C104  A    
O85   S33   D    
C100  C125  S    
O109  Zn7   S    
H74   O15   S    
C65   O145  A    
O23   S13   D    
O116  Zn14  S    
C104  C121  S    
C47   H111  S    
C135  C149  S    
O91   S35   S    
C48   H112  S    
C89   C97   A    
O178  Zn14  S    
O188  S5    S    
C48   O94   S    
H94   O74   S    
C144  C149  A    
C42   H62   S    
C85   C94   A    
O1    Zn1   S    
C37   H50   S    
O6    S7    D    
C56   H16   S    
O124  Zn11  S    
C54   H10   S    
O1    Zn16  S    
C107  C115  A    
C87   O167  A    
C26   H2    S    
O27   S14   D    
C81   C90   A    
O44   S19   S    
H95   O77   S    
C95   C104  A    
C139  S23   S    
O32   S16   D    
O101  Zn4   S    
C121  O121  A    
O12   S9    D    
O86   S33   D    
C29   H31   S    
O182  S3    S    
C25   C79   T    
O125  Zn12  S    
O176  S2    D    
C59   H21   S    
C7    C69   S    
C26   H110  S    
C52   H4    S    
O130  Zn2   S    
C18   C87   S    
O68   Zn4   S    
O70   S28   D    
O45   S20   D    
O118  Zn12  S    
H55   O150  S    
C6    C13   S    
O40   S18   D    
O101  Zn11  S    
C34   H45   S    
C7    S8    S    
O7    S7    D    
O183  S4    D    
O112  Zn12  S    
O158  S38   D    
C113  C118  A    
C10   C61   S    
O117  Zn15  S    
C106  C110  A    
O56   S24   D    
C6    S7    S    
C57   C69   S    
C86   C101  A    
O19   S11   D    
O21   S11   S    
C4    S5    S    
