data_mof_unit_51199.cif
_audit_creation_date              2012-12-10T16:44:38-0500
_audit_creation_method            fapswitch 2.2
_symmetry_space_group_name_H-M    P1
_symmetry_Int_Tables_number       1
_space_group_crystal_system       triclinic
_cell_length_a                    14.96682
_cell_length_b                    8.680244
_cell_length_c                    7.452929
_cell_angle_alpha                 102.770365
_cell_angle_beta                  93.824642
_cell_angle_gamma                 92.211067
_cell_volume                      940.782391915

loop_
_atom_site_label
_atom_site_type_symbol
_atom_type_description
_atom_site_fract_x
_atom_site_fract_y
_atom_site_fract_z
_atom_type_partial_charge
C1    C     C_R   0.497322 0.199868 0.453462 0.879800
C2    C     C_R   0.502678 0.800132 0.546538 0.879800
C3    C     C_R   0.033665 0.232047 0.304217 0.394952
C4    C     C_R   0.966335 0.767953 0.695783 0.394952
C5    C     C_2   0.496008 0.032053 0.427205 -0.355934
C6    C     C_2   0.503991 0.967947 0.572795 -0.355934
C7    C     C_R   0.329116 0.499678 0.503015 0.797966
C8    C     C_R   0.670884 0.500322 0.496985 0.797966
C9    C     C_R   0.818941 0.633281 0.593970 -0.177425
C10   C     C_R   0.181059 0.366719 0.406030 -0.177425
C11   C     C_R   0.767078 0.502528 0.491092 -0.067349
C12   C     C_R   0.232922 0.497472 0.508908 -0.067349
C13   C     C_R   0.806814 0.372177 0.389119 -0.176953
C14   C     C_R   0.193186 0.627822 0.610881 -0.176953
C15   C     C_R   0.899948 0.369488 0.393947 0.055054
C16   C     C_R   0.100052 0.630511 0.606053 0.055054
C17   C     C_R   0.953119 0.501366 0.497616 0.013631
C18   C     C_R   0.046880 0.498634 0.502384 0.013631
C19   C     C_R   0.912457 0.635714 0.596488 0.032591
C20   C     C_R   0.087543 0.364286 0.403512 0.032591
C21   C     C_R   0.940477 0.236020 0.299227 -0.175921
C22   C     C_R   0.059522 0.763980 0.700773 -0.175921
Cu1   Cu    Cu3+1 0.510010 0.517380 0.684380 0.971248
Cu2   Cu    Cu3+1 0.489990 0.482620 0.315620 0.971248
H1    H     H_    0.785365 0.732177 0.671021 0.185116
H2    H     H_    0.214635 0.267823 0.328979 0.185116
H3    H     H_    0.765136 0.271349 0.311156 0.142778
H4    H     H_    0.234864 0.728651 0.688844 0.142778
H5    H     H_    0.899605 0.133930 0.222286 0.210674
H6    H     H_    0.100395 0.866070 0.777714 0.210674
H7    H     H_    0.488455 0.960877 0.286737 0.181921
H8    H     H_    0.511544 0.039123 0.713263 0.181921
H9    H     H_    0.430247 0.378090 0.948955 0.231203
H10   H     H_    0.569753 0.621910 0.051045 0.231203
N1    N     N_2   0.474890 0.456420 0.038520 -0.213415
N2    N     N_2   0.525110 0.543580 0.961480 -0.213414
O1    O     O_R   0.506510 0.286130 0.619770 -0.583855
O2    O     O_R   0.493490 0.713870 0.380230 -0.583854
O3    O     O_R   0.489600 0.256770 0.308360 -0.586574
O4    O     O_R   0.510400 0.743230 0.691640 -0.586574
O5    O     O_R   0.378710 0.514640 0.655720 -0.585729
O6    O     O_R   0.621290 0.485360 0.344280 -0.585729
O7    O     O_R   0.361800 0.485290 0.344300 -0.570527
O8    O     O_R   0.638200 0.514710 0.655700 -0.570527
Cl1   Cl    Cl    0.079857 0.057361 0.187746 -0.603252
Cl2   Cl    Cl    0.920143 0.942639 0.812254 -0.603252

loop_
_geom_bond_atom_site_label_1
_geom_bond_atom_site_label_2
_ccdc_geom_bond_type
C6    H8    S    
Cu1   Cu2   S    
C7    O7    A    
C4    C22   A    
C2    O2    A    
Cu2   O2    S    
N1    N2    D    
Cu1   O5    S    
C1    O1    A    
C9    C11   A    
C14   H4    S    
C10   H2    S    
C7    O5    A    
C17   C18   A    
C9    H1    S    
C3    C20   A    
C4    Cl2   S    
C11   C13   A    
C2    C6    S    
C10   C12   A    
C8    C11   S    
C1    C5    S    
H9    N1    S    
C12   C14   A    
H10   N2    S    
C13   C15   A    
C5    C6    D    
C14   C16   A    
C7    C12   S    
C3    C21   A    
Cu2   N1    S    
C1    O3    A    
C8    O6    A    
Cu1   O4    S    
C2    O4    A    
C15   C21   A    
Cu2   O3    S    
Cu2   O6    S    
C18   C20   A    
C16   C18   A    
Cu1   N2    S    
C15   C17   A    
Cu2   O7    S    
C3    Cl1   S    
C13   H3    S    
C16   C22   A    
C22   H6    S    
C17   C19   A    
Cu1   O1    S    
C4    C19   A    
C21   H5    S    
C9    C19   A    
Cu1   O8    S    
C8    O8    A    
C10   C20   A    
C5    H7    S    
