data_mof_unit_23519.cif
_audit_creation_date              2012-10-26T19:20:13-0400
_audit_creation_method            fapswitch 2.2
_symmetry_space_group_name_H-M    P1
_symmetry_Int_Tables_number       1
_space_group_crystal_system       triclinic
_cell_length_a                    15.869347
_cell_length_b                    10.962722
_cell_length_c                    9.692329
_cell_angle_alpha                 89.459262
_cell_angle_beta                  89.96124
_cell_angle_gamma                 90.104486
_cell_volume                      1686.10818695

loop_
_atom_site_label
_atom_site_type_symbol
_atom_type_description
_atom_site_fract_x
_atom_site_fract_y
_atom_site_fract_z
_atom_type_partial_charge
C1    C     C_R   0.495244 0.265698 0.500583 0.566855
C2    C     C_2   0.513419 0.864628 0.492834 0.009557
C3    C     C_2   0.467869 0.060623 0.400046 0.237536
C4    C     C_R   0.339892 0.499999 0.500000 0.535436
C5    C     C_2   0.477796 0.135939 0.507373 -0.142037
C6    C     C_2   0.442668 0.445429 0.922866 0.018001
C7    C     C_2   0.439040 0.454637 0.077975 0.053297
C8    C     C_R   0.503066 0.733773 0.499080 0.559971
C9    C     C_R   0.660116 0.499373 0.499962 0.538019
C10   C     C_3   0.971659 0.421380 0.598810 -0.138920
C11   C     C_3   0.027538 0.385839 0.474660 -0.003774
C12   C     C_3   0.083171 0.498333 0.499028 -0.000360
C13   C     C_1   0.250290 0.499524 0.499927 0.009765
C14   C     C_1   0.749749 0.498662 0.499752 0.010698
C15   C     C_3   0.028197 0.535295 0.623229 -0.124692
C16   C     C_3   0.061670 0.258187 0.446872 -0.273042
C17   C     C_3   0.990534 0.166561 0.425597 -0.394221
C18   C     C_3   0.363601 0.883531 0.400370 -0.238051
C19   C     C_3   0.296383 0.949787 0.483892 -0.429794
C20   C     C_3   0.599156 0.919293 0.531482 -0.313027
C21   C     C_3   0.668765 0.826177 0.561150 -0.368345
C22   C     C_3   0.972259 0.610130 0.523351 0.298797
C23   C     C_3   0.916833 0.497815 0.499093 -0.014915
C24   C     C_3   0.027697 0.573579 0.400898 0.239247
C25   C     C_3   0.971541 0.460814 0.374459 -0.140802
C26   C     C_1   0.174814 0.498965 0.499593 0.007771
C27   C     C_1   0.825239 0.498075 0.499443 0.010434
C28   C     C_2   0.451366 0.932415 0.433430 0.009941
Cu1   Cu    Cu3+1 0.500020 0.500020 0.638630 0.964787
Cu2   Cu    Cu3+1 0.499980 0.499980 0.361370 1.040867
H1    H     H_    0.469258 0.098852 0.611091 0.073283
H2    H     H_    0.950773 0.194500 0.336546 0.172657
H3    H     H_    0.017595 0.075338 0.404208 0.205864
H4    H     H_    0.101930 0.261493 0.353107 0.171645
H5    H     H_    0.101023 0.228318 0.535658 0.154262
H6    H     H_    0.950337 0.664886 0.150185 0.337175
H7    H     H_    0.991647 0.929492 0.620388 0.357392
H8    H     H_    0.309701 0.940462 0.596009 0.158476
H9    H     H_    0.294456 0.048070 0.455143 0.162768
H10   H     H_    0.233565 0.909518 0.462800 0.212590
H11   H     H_    0.350365 0.896657 0.288776 0.226235
H12   H     H_    0.393547 0.393266 0.872598 0.151165
H13   H     H_    0.356576 0.784680 0.422712 0.160664
H14   H     H_    0.652607 0.768897 0.652473 0.178313
H15   H     H_    0.679114 0.767537 0.469916 0.175024
H16   H     H_    0.728457 0.875069 0.583610 0.205464
H17   H     H_    0.622164 0.978381 0.445501 0.187475
H18   H     H_    0.591699 0.976419 0.624619 0.145068
H19   H     H_    0.477961 0.004613 0.029754 0.367776
H20   H     H_    0.542073 0.554885 0.893540 0.213523
H21   H     H_    0.383073 0.419606 0.128852 0.179719
H22   H     H_    0.554028 0.525100 0.105468 0.214199
H23   H     H_    0.947561 0.358072 0.679788 0.140166
H24   H     H_    0.947724 0.430611 0.272650 0.127837
H25   H     H_    0.052085 0.566782 0.724485 0.167219
H26   H     H_    0.950711 0.159798 0.519644 0.157806
N1    N     N_2   0.499090 0.498660 0.846910 -0.344521
N2    N     N_2   0.499070 0.498630 0.153040 -0.331459
O1    O     O_R   0.500010 0.321960 0.617040 -0.503137
O2    O     O_2   0.119293 0.601439 0.169090 -0.287946
O3    O     O_3   0.984251 0.735075 0.182171 -0.434352
O4    O     O_2   0.883826 0.806022 0.438700 -0.262746
O5    O     O_2   0.879768 0.754478 0.685727 -0.302117
O6    O     O_3   0.016797 0.852698 0.586695 -0.488759
O7    O     O_2   0.407350 0.184123 0.182807 -0.307785
O8    O     O_2   0.561356 0.164041 0.198655 -0.259169
O9    O     O_3   0.474538 0.974629 0.126329 -0.524425
O10   O     O_R   0.499990 0.321920 0.382900 -0.404337
O11   O     O_R   0.379090 0.500010 0.617050 -0.502817
O12   O     O_R   0.379060 0.499970 0.382910 -0.497151
O13   O     O_R   0.500010 0.678080 0.617100 -0.500439
O14   O     O_R   0.499990 0.678040 0.382960 -0.483555
O15   O     O_R   0.620940 0.500030 0.617090 -0.494524
O16   O     O_R   0.620910 0.499990 0.382950 -0.492599
O17   O     O_2   0.117960 0.772051 0.330439 -0.227494
S1    S     S_3+6 0.065787 0.672567 0.267700 0.066834
S2    S     S_3+6 0.934406 0.759520 0.559092 0.034513
S3    S     S_3+6 0.478437 0.100950 0.223325 0.015220

loop_
_geom_bond_atom_site_label_1
_geom_bond_atom_site_label_2
_ccdc_geom_bond_type
O6    S2    S    
O4    S2    D    
O17   S1    D    
C4    O12   A    
C9    O15   A    
C1    C5    S    
C3    C28   S    
C10   C15   S    
C1    O1    A    
C16   H5    S    
Cu2   O16   S    
Cu1   O15   S    
C11   C25   S    
C1    O10   A    
C18   C19   S    
C4    C13   S    
C10   H23   S    
C16   H4    S    
C15   C22   S    
Cu1   O1    S    
C16   C17   S    
H22   N2    S    
C23   C27   S    
C14   C27   T    
C7    N2    D    
C21   H15   S    
C6    N1    D    
O9    S3    S    
C17   H3    S    
C4    O11   A    
Cu2   O12   S    
Cu1   O11   S    
O3    S1    S    
O8    S3    D    
C8    O14   A    
C2    C20   S    
C18   C28   S    
C25   H24   S    
C19   H10   S    
C18   H11   S    
C24   S1    S    
O2    S1    D    
C12   C26   S    
C15   H25   S    
C9    C14   S    
Cu1   Cu2   S    
C19   H8    S    
C21   H14   S    
C11   C16   S    
C12   C15   S    
C24   C25   S    
C17   H26   S    
C20   H18   S    
C19   H9    S    
Cu1   N1    S    
C22   C24   S    
C13   C26   T    
C9    O16   A    
H6    O3    S    
H7    O6    S    
C21   H16   S    
O5    S2    D    
C8    O13   A    
O7    S3    D    
H19   O9    S    
H20   N1    S    
C2    C8    S    
C22   S2    S    
C3    C5    D    
Cu2   O14   S    
C11   C12   S    
C6    C7    S    
C10   C23   S    
C12   C24   S    
C7    H21   S    
C18   H13   S    
Cu2   N2    S    
C23   C25   S    
C20   H17   S    
C10   C11   S    
C20   C21   S    
C6    H12   S    
C17   H2    S    
C22   C23   S    
C2    C28   D    
Cu1   O13   S    
C3    S3    S    
Cu2   O10   S    
C5    H1    S    
