data_mof_unit_13772.cif
_audit_creation_date              2013-03-05T15:49:11-0500
_audit_creation_method            fapswitch 2.2
_symmetry_space_group_name_H-M    P1
_symmetry_Int_Tables_number       1
_space_group_crystal_system       triclinic
_cell_length_a                    17.707295
_cell_length_b                    24.771926
_cell_length_c                    15.225125
_cell_angle_alpha                 90.325183
_cell_angle_beta                  127.458687
_cell_angle_gamma                 89.531388
_cell_volume                      5301.08697491

loop_
_atom_site_label
_atom_site_type_symbol
_atom_site_description
_atom_site_fract_x
_atom_site_fract_y
_atom_site_fract_z
_atom_type_partial_charge
C1    C     C_R   0.313543 0.131007 0.902906 0.367526
C2    C     C_R   0.318057 0.865567 0.903548 0.350901
C3    C     C_R   0.811640 0.628726 0.904418 0.358626
C4    C     C_R   0.816019 0.367676 0.903760 0.370540
N1    N     N_R   0.392450 0.103580 0.942190 -0.092910
N2    N     N_R   0.392450 0.896420 0.942190 -0.091238
N3    N     N_R   0.892450 0.603580 0.942190 -0.101124
N4    N     N_R   0.892450 0.396420 0.942190 -0.099949
C5    C     C_R   0.408564 0.868353 0.089946 -0.032495
C6    C     C_R   0.401292 0.124926 0.088306 -0.029866
C7    C     C_R   0.906900 0.369126 0.089109 -0.039429
C8    C     C_R   0.905645 0.631194 0.088552 -0.029777
H1    H     H_    0.437999 0.862970 0.174935 0.174575
H2    H     H_    0.424944 0.126084 0.171908 0.146929
H3    H     H_    0.932816 0.365859 0.173280 0.178119
H4    H     H_    0.939492 0.641985 0.173010 0.215426
N5    N     N_R   0.450490 0.896000 0.057360 -0.072176
N6    N     N_R   0.450490 0.104000 0.057360 -0.069573
N7    N     N_R   0.950490 0.396000 0.057360 -0.089541
N8    N     N_R   0.950490 0.604000 0.057360 -0.076873
C9    C     C_R   0.559730 0.045132 0.308671 0.195706
C10   C     C_R   0.555747 0.955229 0.307226 0.221969
C11   C     C_R   0.051708 0.545192 0.305515 0.281886
C12   C     C_R   0.058756 0.455221 0.307957 0.253743
N9    N     N_R   0.525490 0.028390 0.207550 -0.119990
N10   N     N_R   0.525490 0.971610 0.207550 -0.120221
N11   N     N_R   0.025490 0.528390 0.207550 -0.111266
N12   N     N_R   0.025490 0.471610 0.207550 -0.113362
C13   C     C_R   0.248429 0.955368 0.689194 -0.049172
C14   C     C_R   0.247069 0.044749 0.689649 -0.017322
C15   C     C_R   0.748060 0.456009 0.687966 -0.018819
C16   C     C_R   0.749408 0.544342 0.687877 0.041548
H5    H     H_    0.238474 0.915069 0.657280 0.214770
H6    H     H_    0.235403 0.085124 0.658142 0.203685
H7    H     H_    0.739332 0.416764 0.653088 0.209559
H8    H     H_    0.742791 0.583497 0.654077 0.207546
N13   N     N_R   0.317450 0.971190 0.792000 -0.072548
N14   N     N_R   0.317450 0.028810 0.792000 -0.080094
N15   N     N_R   0.817450 0.471190 0.792000 -0.076521
N16   N     N_R   0.817450 0.528810 0.792000 -0.080850
C17   C     C_R   0.318771 0.147148 0.995099 -0.102200
C18   C     C_R   0.326976 0.845992 0.995841 -0.117085
C19   C     C_R   0.815366 0.646888 0.993681 -0.140402
C20   C     C_R   0.823777 0.347868 0.994662 -0.098499
C21   C     C_R   0.578364 0.000354 0.373103 -0.115006
C22   C     C_R   0.070657 0.500025 0.369268 -0.131240
C23   C     C_R   0.206467 0.000102 0.624948 0.062466
C24   C     C_R   0.704904 0.500401 0.623916 0.015223
C25   C     C_R   0.483061 0.046325 0.717692 0.028874
C26   C     C_R   0.492652 0.954744 0.724526 0.007987
C27   C     C_R   0.975762 0.545641 0.711420 -0.001955
C28   C     C_R   0.961028 0.455081 0.701058 -0.019253
N17   N     N_R   0.473900 0.028390 0.792280 -0.085569
N18   N     N_R   0.473900 0.971610 0.792280 -0.078812
N19   N     N_R   0.973900 0.528390 0.792280 -0.078121
N20   N     N_R   0.973900 0.471610 0.792280 -0.065711
C29   C     C_R   0.769213 0.953273 0.252437 -0.025185
C30   C     C_R   0.770703 0.043838 0.250812 0.071045
C31   C     C_R   0.268257 0.453894 0.244714 0.052296
C32   C     C_R   0.269243 0.544347 0.244835 -0.010393
H9    H     H_    0.790064 0.911748 0.264221 0.180613
H10   H     H_    0.795582 0.084366 0.262295 0.145520
H11   H     H_    0.289215 0.412545 0.251524 0.183294
H12   H     H_    0.293642 0.585196 0.256488 0.167946
N21   N     N_R   0.682310 0.971180 0.208170 -0.066681
N22   N     N_R   0.682310 0.028820 0.208170 -0.058786
N23   N     N_R   0.182310 0.471180 0.208170 -0.067080
N24   N     N_R   0.182310 0.528820 0.208170 -0.060677
C33   C     C_R   0.641032 0.153058 0.093498 -0.175814
C34   C     C_R   0.640244 0.846611 0.093741 -0.150175
C35   C     C_R   0.148501 0.650798 0.096574 -0.062885
C36   C     C_R   0.143263 0.347550 0.094865 -0.103898
N25   N     N_R   0.606470 0.103570 0.057210 -0.074756
N26   N     N_R   0.606470 0.896430 0.057210 -0.082145
N27   N     N_R   0.106470 0.603570 0.057210 -0.075011
N28   N     N_R   0.106470 0.396430 0.057210 -0.074030
C37   C     C_R   0.547929 0.846170 0.911260 -0.039789
C38   C     C_R   0.551449 0.152725 0.911426 -0.018410
C39   C     C_R   0.054933 0.347045 0.911907 -0.005200
C40   C     C_R   0.053256 0.653118 0.912667 -0.103562
H13   H     H_    0.495854 0.832755 0.827719 0.156100
H14   H     H_    0.497937 0.168025 0.829761 0.171397
H15   H     H_    0.018751 0.333655 0.828163 0.168561
H16   H     H_    0.006759 0.668547 0.829486 0.147645
N29   N     N_R   0.549740 0.896000 0.943240 -0.057153
N30   N     N_R   0.549740 0.104000 0.943240 -0.051394
N31   N     N_R   0.049740 0.396000 0.943240 -0.037321
N32   N     N_R   0.049740 0.604000 0.943240 -0.050437
Ni1   Ni    Ni4+2 0.433780 0.065390 0.868430 0.277948
Ni2   Ni    Ni4+2 0.433780 0.934610 0.868430 0.282312
Ni3   Ni    Ni4+2 0.933780 0.565390 0.868430 0.278042
Ni4   Ni    Ni4+2 0.933780 0.434610 0.868430 0.298346
Ni5   Ni    Ni4+2 0.565800 0.934190 0.131570 0.300971
Ni6   Ni    Ni4+2 0.565800 0.065810 0.131570 0.313871
Ni7   Ni    Ni4+2 0.065800 0.434190 0.131570 0.301912
Ni8   Ni    Ni4+2 0.065800 0.565810 0.131570 0.304998
C41   C     C_R   0.505350 0.000987 0.682004 -0.109257
C42   C     C_R   0.976377 0.499548 0.658788 -0.075473
C43   C     C_R   0.825528 0.997583 0.280781 0.075773
C44   C     C_R   0.323931 0.498394 0.269877 0.064929
C45   C     C_R   0.614114 0.183492 0.003679 -0.019592
C46   C     C_R   0.604099 0.813824 0.003110 0.028157
C47   C     C_R   0.118887 0.682231 0.006389 -0.011122
C48   C     C_R   0.115640 0.316641 0.005232 -0.012310
C49   C     C_3   0.037523 0.986472 0.537575 -0.198535
C50   C     C_3   0.054619 0.048541 0.446822 -0.258702
C51   C     C_3   0.533423 0.475929 0.522582 -0.204048
C52   C     C_3   0.549148 0.551525 0.457558 -0.228543
C53   C     C_3   0.979006 0.033700 0.461711 0.291696
C54   C     C_3   0.472132 0.525468 0.460011 0.281803
H17   H     H_    0.050424 0.977219 0.617082 0.186612
H18   H     H_    0.081944 0.089385 0.450910 0.210015
H19   H     H_    0.543291 0.457676 0.595388 0.227156
H20   H     H_    0.572576 0.594228 0.476437 0.224020
C55   C     C_3   0.928538 0.996215 0.360671 -0.260271
C56   C     C_3   0.427880 0.497219 0.348373 -0.249030
C57   C     C_3   0.990348 0.949211 0.437347 0.302083
C58   C     C_3   0.005448 0.009170 0.347127 0.344010
C59   C     C_3   0.492711 0.448345 0.411892 0.318981
C60   C     C_3   0.506557 0.521599 0.347288 0.333880
C61   C     C_3   0.067111 0.960683 0.422027 -0.282142
C62   C     C_3   0.571584 0.471556 0.408549 -0.246489
C63   C     C_3   0.112964 0.999781 0.521058 0.008706
C64   C     C_3   0.610806 0.500789 0.518246 -0.009186
H21   H     H_    0.105179 0.931142 0.406370 0.196960
H22   H     H_    0.613706 0.449587 0.387767 0.200720
C65   C     C_3   0.328250 0.777867 0.120220 0.210086
C66   C     C_3   0.314137 0.209847 0.126352 0.224737
C67   C     C_3   0.708711 0.327052 0.036382 0.234554
C68   C     C_3   0.737088 0.678237 0.083093 0.265760
H23   H     H_    0.339100 0.811565 0.175638 0.075201
H24   H     H_    0.314927 0.173783 0.170375 0.057831
H25   H     H_    0.643474 0.346735 0.963331 0.114602
H26   H     H_    0.674641 0.650815 0.043238 0.121897
C69   C     C_3   0.674238 0.278226 0.066188 -0.409005
C70   C     C_3   0.705362 0.731305 0.106245 -0.457501
C71   C     C_3   0.265664 0.737809 0.123928 -0.433279
C72   C     C_3   0.250864 0.251940 0.127709 -0.480652
H27   H     H_    0.243866 0.756328 0.172285 0.161539
H28   H     H_    0.218362 0.233055 0.163569 0.191997
H29   H     H_    0.602687 0.287646 0.042884 0.204976
H30   H     H_    0.654834 0.721766 0.124451 0.206020
H31   H     H_    0.723545 0.270648 0.156197 0.267013
H32   H     H_    0.767331 0.752290 0.178719 0.274025
H33   H     H_    0.307247 0.701031 0.169309 0.256993
H34   H     H_    0.294658 0.286390 0.182076 0.220546
C73   C     C_3   0.838073 0.256621 0.077165 -0.383950
C74   C     C_3   0.804783 0.745829 0.014073 -0.379580
C75   C     C_3   0.251068 0.755116 0.915096 -0.348316
C76   C     C_3   0.254707 0.242124 0.928551 -0.333110
C77   C     C_3   0.176106 0.824460 0.968695 -0.320733
C78   C     C_3   0.163524 0.173064 0.958143 -0.351145
C79   C     C_3   0.691815 0.279536 0.879104 -0.309519
C80   C     C_3   0.647321 0.694964 0.878917 -0.320256
C81   C     C_3   0.273198 0.801435 0.998891 0.029501
C82   C     C_3   0.266548 0.192250 0.001397 0.061121
C83   C     C_3   0.768782 0.304332 0.998629 0.023904
C84   C     C_3   0.754364 0.689952 0.992954 0.026869
H35   H     H_    0.193743 0.849244 0.040211 0.138369
H36   H     H_    0.171198 0.149146 0.024993 0.139557
H37   H     H_    0.644151 0.312090 0.823208 0.204817
H38   H     H_    0.616135 0.653766 0.858479 0.188142
C85   C     C_3   0.671919 0.226889 0.005299 0.164333
C86   C     C_3   0.657643 0.768073 0.002818 0.163749
C87   C     C_3   0.175308 0.725110 0.005433 0.192356
C88   C     C_3   0.171527 0.271624 0.008324 0.176504
C89   C     C_3   0.776527 0.206924 0.057082 -0.293682
C90   C     C_3   0.736189 0.791704 0.995143 -0.325595
C91   C     C_3   0.203101 0.707324 0.928563 -0.345561
C92   C     C_3   0.219299 0.291750 0.955228 -0.366939
C93   C     C_3   0.625268 0.243104 0.883471 -0.517389
C94   C     C_3   0.588429 0.730835 0.901007 -0.484642
C95   C     C_3   0.114217 0.777114 0.958213 -0.433673
C96   C     C_3   0.103970 0.223635 0.941510 -0.386879
H39   H     H_    0.085468 0.787349 0.004150 0.205499
H40   H     H_    0.059848 0.214541 0.969109 0.212990
H41   H     H_    0.555926 0.263865 0.847241 0.205038
H42   H     H_    0.547349 0.705143 0.918061 0.206094
H43   H     H_    0.608710 0.207356 0.830346 0.244048
H44   H     H_    0.531809 0.752778 0.825311 0.185305
H45   H     H_    0.051826 0.769463 0.871023 0.221099
H46   H     H_    0.054601 0.235553 0.852977 0.228214
H47   H     H_    0.882508 0.244528 0.051754 0.212565
H48   H     H_    0.816313 0.750478 0.950840 0.216628
H49   H     H_    0.194060 0.771562 0.832209 0.196994
H50   H     H_    0.193090 0.230794 0.843076 0.182468
H51   H     H_    0.770193 0.182852 0.990962 0.156627
H52   H     H_    0.696683 0.805308 0.908126 0.213025
H53   H     H_    0.135627 0.700616 0.844204 0.161992
H54   H     H_    0.164380 0.309862 0.872963 0.135485
C97   C     C_3   0.572341 0.058664 0.604694 -0.302317
C98   C     C_3   0.608300 0.956635 0.634505 -0.342824
C99   C     C_3   0.102322 0.530534 0.638043 -0.344235
C100  C     C_3   0.021656 0.437172 0.561322 -0.308967
H55   H     H_    0.518864 0.090219 0.579416 0.163571
H56   H     H_    0.570529 0.917595 0.606113 0.181263
H57   H     H_    0.086328 0.573244 0.641024 0.200880
H58   H     H_    0.950899 0.417705 0.511012 0.184629
C101  C     C_3   0.582548 0.059380 0.511332 -0.407455
C102  C     C_3   0.640912 0.964833 0.561731 -0.340232
C103  C     C_3   0.128448 0.529303 0.557483 -0.348741
C104  C     C_3   0.052121 0.439221 0.486295 -0.340725
H59   H     H_    0.653039 0.075321 0.542187 0.239285
H60   H     H_    0.712669 0.983524 0.609701 0.213733
H61   H     H_    0.198640 0.510146 0.593629 0.230870
H62   H     H_    0.124641 0.421654 0.528900 0.222840
H63   H     H_    0.527754 0.087254 0.445075 0.193980
H64   H     H_    0.649261 0.924859 0.536472 0.237047
H65   H     H_    0.134314 0.571391 0.538182 0.235315
H66   H     H_    0.001672 0.413836 0.412215 0.212449
H67   H     H_    0.390049 0.025328 0.462527 0.205232
H68   H     H_    0.404427 0.954243 0.487650 0.192704
H69   H     H_    0.912381 0.564858 0.487276 0.200568
H70   H     H_    0.859317 0.500226 0.437831 0.234664
H71   H     H_    0.412315 0.008163 0.333318 0.167605
H72   H     H_    0.454279 0.940945 0.384009 0.203610
H73   H     H_    0.950428 0.565869 0.374136 0.249520
H74   H     H_    0.897413 0.500775 0.320686 0.217306
C105  C     C_3   0.440993 0.991133 0.489994 -0.379675
C106  C     C_3   0.926847 0.522688 0.476518 -0.357412
C107  C     C_3   0.533485 0.002028 0.607494 0.169957
C108  C     C_3   0.008465 0.496765 0.588267 0.175615
C109  C     C_3   0.568123 0.001840 0.462842 0.287156
C110  C     C_3   0.052060 0.498146 0.451832 0.188293
C111  C     C_3   0.464105 0.984105 0.409216 -0.409048
C112  C     C_3   0.952211 0.523287 0.397490 -0.313727
N33   N     N_R   0.257955 0.154336 0.794353 0.186460
O1    O     O_R   0.300763 0.171412 0.754333 -0.423178
O2    O     O_R   0.165909 0.150223 0.728389 -0.384532
N34   N     N_R   0.262059 0.844566 0.793226 0.188777
O3    O     O_R   0.170743 0.852905 0.726315 -0.380781
O4    O     O_R   0.304748 0.827167 0.752804 -0.409047
N35   N     N_R   0.740628 0.639344 0.790745 0.188777
O5    O     O_R   0.762153 0.667326 0.736701 -0.384217
O6    O     O_R   0.659749 0.614073 0.737643 -0.416480
N36   N     N_R   0.746955 0.356208 0.789046 0.188993
O7    O     O_R   0.662619 0.378057 0.734146 -0.426683
O8    O     O_R   0.773620 0.332120 0.735706 -0.355006
N37   N     N_R   0.959756 0.895376 0.440739 0.260263
O9    O     O_R   0.910259 0.889149 0.477091 -0.287384
O10   O     O_R   0.995524 0.853180 0.426687 -0.279826
N38   N     N_R   0.986339 0.020380 0.241573 0.270998
O11   O     O_R   0.020780 0.063406 0.229513 -0.315997
O12   O     O_R   0.939777 0.985635 0.161187 -0.354413
N39   N     N_R   0.465702 0.391711 0.389761 0.257922
O13   O     O_R   0.468589 0.362644 0.462621 -0.278461
O14   O     O_R   0.444711 0.369105 0.300223 -0.365381
N40   N     N_R   0.490938 0.545230 0.250206 0.251960
O15   O     O_R   0.513797 0.595172 0.251860 -0.296682
O16   O     O_R   0.457866 0.515650 0.163068 -0.362700
N41   N     N_R   0.422349 0.753647 0.168681 0.276234
O17   O     O_R   0.429680 0.706674 0.135894 -0.309381
O18   O     O_R   0.495006 0.770520 0.265111 -0.261142
N42   N     N_R   0.412832 0.229161 0.194747 0.270509
O19   O     O_R   0.461761 0.232127 0.157644 -0.280513
O20   O     O_R   0.456018 0.238302 0.299493 -0.282660
N43   N     N_R   0.754407 0.369249 0.122659 0.252290
O21   O     O_R   0.761111 0.364160 0.212277 -0.319020
O22   O     O_R   0.762193 0.417563 0.095867 -0.388541
N44   N     N_R   0.811241 0.649162 0.184570 0.239372
O23   O     O_R   0.855575 0.671909 0.281344 -0.292191
O24   O     O_R   0.811997 0.596658 0.180564 -0.425493
C113  C     C_2   0.913053 0.269228 0.199771 1.114509
O25   O     O_2   0.892594 0.292019 0.254027 -0.560741
O26   O     O_R   0.005893 0.250225 0.252768 -0.711383
H75   H     H_    0.048686 0.257563 0.335299 0.378417
C114  C     C_2   0.905370 0.751893 0.120738 1.105810
O27   O     O_2   0.925120 0.740520 0.210444 -0.525369
O28   O     O_R   0.973938 0.775723 0.115578 -0.775839
H76   H     H_    0.034896 0.784228 0.191385 0.348207
C115  C     C_2   0.329127 0.739220 0.904780 1.152107
O29   O     O_2   0.411297 0.754135 0.972156 -0.608974
O30   O     O_R   0.303865 0.710618 0.811035 -0.700118
H77   H     H_    0.360091 0.703443 0.810599 0.341575
C116  C     C_2   0.328723 0.256788 0.911503 1.211780
O31   O     O_2   0.308982 0.292271 0.844831 -0.602577
O32   O     O_R   0.415837 0.229936 0.965409 -0.736327
H78   H     H_    0.454491 0.243395 0.941329 0.321246
C117  C     C_2   0.826273 0.168099 0.154569 0.977314
O33   O     O_2   0.845391 0.122323 0.142985 -0.591322
O34   O     O_R   0.852801 0.184601 0.257688 -0.769803
H79   H     H_    0.895155 0.157231 0.317704 0.362311
C118  C     C_2   0.787688 0.842655 0.061770 1.040484
O35   O     O_2   0.779776 0.884025 0.013333 -0.594899
O36   O     O_R   0.844537 0.842509 0.177172 -0.742274
H80   H     H_    0.879933 0.877722 0.210092 0.343117
C119  C     C_2   0.254686 0.652933 0.957582 1.155548
O37   O     O_2   0.260219 0.630598 0.889880 -0.586462
O38   O     O_R   0.290095 0.626474 0.056636 -0.782448
H81   H     H_    0.317512 0.589588 0.061661 0.363409
C120  C     C_2   0.291815 0.337050 0.022671 1.075893
O39   O     O_2   0.263565 0.381592 0.026316 -0.628220
O40   O     O_R   0.389140 0.329262 0.077665 -0.710051
H82   H     H_    0.427409 0.363382 0.113979 0.375846
C121  C     C_2   0.120803 0.863186 0.871511 1.141483
O41   O     O_2   0.049039 0.848783 0.781845 -0.548006
O42   O     O_R   0.150987 0.916727 0.886434 -0.794127
H83   H     H_    0.109069 0.939073 0.816590 0.350359
C122  C     C_2   0.109477 0.134738 0.860376 1.151085
O43   O     O_2   0.138355 0.088394 0.871060 -0.633232
O44   O     O_R   0.023614 0.150461 0.760671 -0.713764
H84   H     H_    0.992645 0.119995 0.704823 0.394157
C123  C     C_2   0.726904 0.248953 0.821980 1.159096
O45   O     O_2   0.811436 0.241832 0.866711 -0.637749
O46   O     O_R   0.659576 0.230431 0.713714 -0.712162
H85   H     H_    0.689640 0.210939 0.683129 0.358935
C124  C     C_2   0.625406 0.717693 0.771692 1.208856
O47   O     O_2   0.548846 0.706439 0.683946 -0.532118
O48   O     O_R   0.686214 0.752501 0.770076 -0.774869
H86   H     H_    0.659138 0.765087 0.692749 0.377522
C125  C     C_2   0.662751 0.076519 0.715042 1.136264
O49   O     O_2   0.741099 0.064211 0.741258 -0.614499
O50   O     O_R   0.656371 0.107582 0.787109 -0.775021
H87   H     H_    0.721086 0.115964 0.858622 0.335183
C126  C     C_2   0.693124 0.948926 0.755324 1.155906
O51   O     O_2   0.751845 0.913803 0.779606 -0.557444
O52   O     O_R   0.704140 0.980290 0.839055 -0.776948
H88   H     H_    0.766021 0.972614 0.914605 0.390850
C127  C     C_2   0.186109 0.517084 0.756885 1.227259
O53   O     O_2   0.260741 0.499219 0.779661 -0.582664
O54   O     O_R   0.178209 0.525667 0.841832 -0.767804
H89   H     H_    0.237487 0.514311 0.916971 0.356776
C128  C     C_2   0.086546 0.398368 0.656495 1.017845
O55   O     O_2   0.091574 0.351329 0.635412 -0.550937
O56   O     O_R   0.140010 0.414880 0.766472 -0.792869
H90   H     H_    0.189959 0.387361 0.818472 0.346923
N45   N     N_R   0.617182 0.092541 0.355095 0.241914
O57   O     O_R   0.708492 0.087602 0.430646 -0.280941
O58   O     O_R   0.578443 0.140057 0.335320 -0.367970
N46   N     N_R   0.601009 0.904077 0.350658 0.232632
O59   O     O_R   0.562677 0.868297 0.374444 -0.382363
O60   O     O_R   0.688929 0.897809 0.388133 -0.342283
N47   N     N_R   0.099107 0.595399 0.352278 0.219947
O61   O     O_R   0.186696 0.600507 0.388319 -0.319599
O62   O     O_R   0.061272 0.632598 0.375221 -0.362692
N48   N     N_R   0.123000 0.410317 0.358518 0.228835
O63   O     O_R   0.090682 0.361504 0.341490 -0.425876
O64   O     O_R   0.213303 0.418794 0.434852 -0.327354
C129  C     C_2   0.423100 0.091942 0.645863 0.932234
O65   O     O_2   0.338277 0.084640 0.573171 -0.635293
O66   O     O_R   0.462337 0.142788 0.659226 -0.784036
H91   H     H_    0.413385 0.170233 0.604331 0.358640
C130  C     C_2   0.473428 0.899409 0.680990 0.895286
O67   O     O_2   0.539113 0.868262 0.711807 -0.659370
O68   O     O_R   0.379345 0.881952 0.608386 -0.780772
H92   H     H_    0.374601 0.842851 0.585590 0.360035
C131  C     C_2   0.944225 0.600254 0.664201 0.916894
O69   O     O_2   0.861801 0.613837 0.619269 -0.605367
O70   O     O_R   0.007820 0.636745 0.672170 -0.804666
H93   H     H_    0.976913 0.672767 0.636315 0.364651
C132  C     C_2   0.889086 0.413483 0.629415 0.902071
O71   O     O_2   0.886606 0.371561 0.668947 -0.602468
O72   O     O_R   0.818300 0.424204 0.517218 -0.814333
H94   H     H_    0.771803 0.393336 0.477440 0.363937
C133  C     C_2   0.663329 0.175329 0.197307 1.125712
O73   O     O_2   0.708872 0.148674 0.281807 -0.562067
O74   O     O_R   0.630776 0.226468 0.198985 -0.731940
H95   H     H_    0.652799 0.237401 0.275517 0.391070
C134  C     C_2   0.663729 0.826272 0.198417 1.039999
O75   O     O_2   0.599960 0.810878 0.201161 -0.536734
O76   O     O_R   0.758375 0.821608 0.292205 -0.717580
H96   H     H_    0.764871 0.805145 0.357326 0.394116
C135  C     C_2   0.172603 0.671717 0.201760 0.989311
O77   O     O_2   0.255464 0.674571 0.284168 -0.584105
O78   O     O_R   0.099812 0.687237 0.207209 -0.787066
H97   H     H_    0.124724 0.700858 0.283326 0.376681
C136  C     C_2   0.157115 0.324729 0.193096 0.990277
O79   O     O_2   0.102702 0.290027 0.180539 -0.585437
O80   O     O_R   0.234242 0.340173 0.299485 -0.742888
H98   H     H_    0.239174 0.318649 0.359229 0.389632
N49   N     N_R   0.933988 0.071376 0.490754 0.249223
O81   O     O_R   0.956220 0.122222 0.505150 -0.325665
O82   O     O_R   0.885676 0.052589 0.522296 -0.317971
N50   N     N_R   0.419677 0.553836 0.491894 0.267609
O83   O     O_R   0.432525 0.605196 0.514032 -0.255002
O84   O     O_R   0.362368 0.527361 0.502255 -0.310640

loop_
_geom_bond_atom_site_label_1
_geom_bond_atom_site_label_2
_geom_bond_distance
_ccdc_geom_bond_type
O74   H95   1.014175 S    
C89   C117  1.521814 S    
C52   C60   1.546554 S    
C120  O39   1.222638 D    
C19   C84   1.507216 S    
C39   N31   1.323508 A    
C123  O46   1.399610 S    
N47   O61   1.299938 A    
C77   C121  1.518831 S    
C33   C133  1.480835 S    
C98   C107  1.583282 S    
C80   C84   1.618078 S    
C10   N46   1.426008 S    
C115  O29   1.222624 D    
C13   H5    1.075583 S    
C22   C110  1.481615 S    
C49   C63   1.540515 S    
C5    H1    1.069703 S    
C51   H19   1.110188 S    
N42   O20   1.301789 A    
C7    H3    1.069876 S    
C116  O31   1.224203 D    
C34   N26   1.334589 A    
N38   O12   1.300266 A    
C119  O38   1.396940 S    
N4    Ni4   1.927383 S    
C77   C81   1.586816 S    
H73   C112  1.109117 S    
C100  C108  1.583093 S    
C17   C82   1.484016 S    
N10   Ni5   1.920500 S    
C102  H64   1.101246 S    
C11   C22   1.384425 A    
N39   O13   1.300426 A    
C50   C58   1.550073 S    
C38   C45   1.375084 A    
C20   C83   1.484760 S    
N26   Ni5   1.908929 S    
C68   H26   1.115269 S    
C51   C64   1.544501 S    
C52   C64   1.545639 S    
N40   O16   1.300342 A    
C87   C91   1.580275 S    
C88   C96   1.551888 S    
C97   C125  1.520752 S    
N46   O59   1.299973 A    
C40   C47   1.375408 A    
C128  O55   1.223758 D    
C86   C90   1.581944 S    
C53   N49   1.453939 S    
C92   C120  1.539201 S    
N1    N6    1.392463 A    
O44   H84   1.012738 S    
C79   H37   1.099929 S    
N13   N14   1.427361 A    
C35   C135  1.475878 S    
C38   H14   1.074177 S    
C23   C63   1.434496 S    
N33   O1    1.301824 A    
C55   C58   1.532874 S    
C8    N8    1.325229 A    
C132  O72   1.398176 S    
N24   Ni8   1.873656 S    
N34   O4    1.301329 A    
C73   C89   1.552126 S    
C9    N45   1.431521 S    
C67   H25   1.115048 S    
C1    C17   1.405295 A    
C99   C108  1.587357 S    
C15   C24   1.355061 A    
N17   Ni1   1.915236 S    
C51   C54   1.524868 S    
C73   C113  1.526545 S    
C54   C56   1.538861 S    
C70   C86   1.551893 S    
C113  O26   1.397627 S    
C69   C85   1.555492 S    
C12   N48   1.431029 S    
C99   C127  1.522983 S    
N48   O63   1.297739 A    
C32   C44   1.384473 A    
C68   N44   1.469508 S    
N29   Ni2   1.887785 S    
C29   H9    1.068611 S    
C33   C45   1.370628 A    
C31   H11   1.070450 S    
C32   H12   1.074218 S    
C12   C22   1.378543 A    
C75   C81   1.574923 S    
C36   C136  1.475680 S    
C40   N32   1.320577 A    
H70   C106  1.112142 S    
O78   H97   1.013730 S    
C3    N35   1.413595 S    
C76   C92   1.536484 S    
C6    N6    1.318602 A    
C25   N17   1.320721 A    
C28   C42   1.388210 A    
C27   N19   1.324729 A    
C117  O34   1.396932 S    
C65   H23   1.114946 S    
C61   C63   1.542023 S    
C66   C82   1.601871 S    
C25   C41   1.399665 A    
C10   C21   1.386336 A    
C57   N37   1.456428 S    
O54   H89   1.013820 S    
C134  O75   1.219358 D    
N43   O22   1.301713 A    
H74   C112  1.114080 S    
N1    Ni1   1.915213 S    
C127  O54   1.397837 S    
O70   H93   1.013855 S    
C132  O71   1.217633 D    
C91   H53   1.113086 S    
C96   H46   1.111413 S    
C99   C103  1.552046 S    
C121  O42   1.398873 S    
N17   N18   1.406547 A    
C14   N14   1.331935 A    
N13   Ni2   1.866583 S    
C13   C23   1.360752 A    
C75   C91   1.547947 S    
C16   H8    1.072303 S    
C74   C114  1.521682 S    
C120  O40   1.396233 S    
N18   Ni2   1.927059 S    
C67   N43   1.475892 S    
C105  C107  1.547058 S    
C29   C43   1.369119 A    
N36   O7    1.302049 A    
N43   O21   1.302458 A    
C78   C122  1.516234 S    
C66   C72   1.533561 S    
N50   O83   1.300267 A    
C31   N23   1.330839 A    
C67   C69   1.548125 S    
C78   C82   1.592753 S    
C66   N42   1.470338 S    
N35   O5    1.301944 A    
C97   C107  1.579795 S    
C25   C129  1.477241 S    
N21   Ni5   1.883659 S    
N8    Ni8   1.874836 S    
C37   N29   1.317821 A    
O32   H78   1.012116 S    
N23   Ni7   1.883658 S    
C31   C44   1.373810 A    
C4    N36   1.424303 S    
C93   H43   1.109967 S    
O56   H90   1.009100 S    
C103  H65   1.107489 S    
O38   H81   1.012334 S    
C9    C21   1.383569 A    
C95   H39   1.114243 S    
N4    N7    1.392487 A    
C14   H6    1.074556 S    
C8    H4    1.070255 S    
C6    H2    1.071319 S    
N15   N16   1.427361 A    
N45   O58   1.298556 A    
C98   C102  1.544392 S    
N9    N10   1.406547 A    
N2    Ni2   1.927383 S    
C56   C60   1.532237 S    
C128  O56   1.391969 S    
C77   H35   1.114417 S    
C61   H21   1.110008 S    
O40   H82   1.013702 S    
N35   O6    1.302738 A    
N32   Ni3   1.898225 S    
C102  H60   1.113208 S    
C54   N50   1.458108 S    
C100  C128  1.521978 S    
C106  C112  1.518984 S    
C7    C20   1.393229 A    
N37   O10   1.300371 A    
N28   N31   1.378359 A    
C133  O74   1.394037 S    
C47   C87   1.470310 S    
C130  O68   1.396671 S    
C86   C94   1.564351 S    
N5    Ni5   1.885188 S    
C62   C64   1.542637 S    
N7    Ni7   1.885188 S    
C94   H42   1.113924 S    
N2    N5    1.392487 A    
C9    N9    1.330922 A    
N33   O2    1.298465 A    
C102  C109  1.550594 S    
C80   H38   1.113501 S    
C12   N12   1.325358 A    
N44   O23   1.302141 A    
C76   H50   1.111987 S    
C114  O27   1.220172 D    
C109  C111  1.559506 S    
C90   C118  1.527327 S    
C88   C92   1.568723 S    
H67   C105  1.113016 S    
C72   C88   1.551785 S    
C125  O50   1.395909 S    
C59   N39   1.456039 S    
C100  H58   1.107879 S    
C2    C18   1.403975 A    
C42   C108  1.490313 S    
C45   C85   1.480185 S    
C52   C54   1.534432 S    
N26   N29   1.378359 A    
C97   H55   1.097206 S    
C2    N34   1.431010 S    
N9    Ni6   1.932437 S    
C46   C86   1.473390 S    
C118  O35   1.222422 D    
C103  H61   1.110945 S    
C34   C134  1.471808 S    
C93   H41   1.115990 S    
C60   N40   1.453901 S    
N31   Ni4   1.887785 S    
C58   N38   1.454774 S    
C6    C17   1.387603 A    
C50   C53   1.535378 S    
C30   H10   1.069648 S    
N19   N20   1.406547 A    
C75   H49   1.107747 S    
C90   H52   1.109978 S    
N37   O9    1.300596 A    
C44   C56   1.463184 S    
C40   H16   1.076977 S    
C71   C87   1.550594 S    
O72   H94   1.013843 S    
C37   C46   1.376489 A    
C113  O25   1.219730 D    
C80   C124  1.539157 S    
C71   H27   1.113734 S    
C7    N7    1.318536 A    
C26   N18   1.326059 A    
N46   O60   1.299970 A    
C1    N1    1.320669 A    
C98   H56   1.106169 S    
C71   H33   1.107676 S    
C3    N3    1.324701 A    
C43   C55   1.452060 S    
N49   O81   1.299798 A    
C100  C104  1.532681 S    
C52   H20   1.110147 S    
N19   Ni3   1.915236 S    
C55   C57   1.535230 S    
C135  O77   1.222075 D    
C33   N25   1.332647 A    
C85   C93   1.556754 S    
C36   N28   1.326616 A    
C94   H44   1.105257 S    
C27   C42   1.394973 A    
C49   H17   1.111748 S    
C95   H45   1.111448 S    
C126  O51   1.223180 D    
O28   H76   1.013497 S    
C101  H59   1.107848 S    
C16   C24   1.350079 A    
C49   C57   1.524629 S    
N11   Ni8   1.932437 S    
N25   Ni6   1.920961 S    
C51   C59   1.530982 S    
H69   C106  1.108340 S    
N27   Ni8   1.920961 S    
N47   O62   1.300333 A    
N23   N24   1.427854 A    
C21   C109  1.483803 S    
C104  C110  1.553700 S    
C76   C116  1.529624 S    
N41   O17   1.299910 A    
C65   C81   1.586206 S    
C131  O69   1.221247 D    
C4    C20   1.396583 A    
O66   H91   1.013754 S    
N3    N8    1.392463 A    
C124  O47   1.224450 D    
H71   C111  1.114164 S    
C122  O43   1.223625 D    
O36   H80   1.013307 S    
C79   C123  1.535780 S    
C129  O65   1.222193 D    
C37   H13   1.073359 S    
N3    Ni3   1.915213 S    
N38   O11   1.300267 A    
C136  O80   1.394966 S    
C70   H30   1.113123 S    
N48   O64   1.301495 A    
N39   O14   1.299433 A    
C74   C90   1.550843 S    
C15   H7    1.071336 S    
C101  C109  1.551338 S    
N15   Ni4   1.866583 S    
C121  O41   1.223733 D    
N40   O15   1.300187 A    
C91   C119  1.529941 S    
C30   C43   1.382923 A    
C29   N21   1.322754 A    
N30   Ni1   1.898225 S    
C34   C46   1.376559 A    
H68   C105  1.112129 S    
C36   C48   1.367552 A    
H72   C111  1.112562 S    
C67   C83   1.583918 S    
C68   C84   1.605572 S    
C18   C81   1.482824 S    
C117  O33   1.222970 D    
N45   O57   1.299386 A    
C70   H32   1.105392 S    
C39   H15   1.072935 S    
C114  O28   1.398956 S    
O50   H87   1.012620 S    
C49   C53   1.521906 S    
N36   O8    1.301842 A    
C79   C83   1.590767 S    
N34   O3    1.299340 A    
C96   H40   1.114004 S    
C48   C88   1.466623 S    
C127  O53   1.223641 D    
C32   N24   1.338354 A    
O46   H85   1.013970 S    
C10   N10   1.330109 A    
C13   N13   1.330888 A    
C130  O67   1.222251 D    
C78   H36   1.114765 S    
C77   C95   1.551848 S    
C118  O36   1.396079 S    
O42   H83   1.013919 S    
C136  O79   1.221251 D    
C4    N4    1.314846 A    
C106  C108  1.549863 S    
C50   H18   1.110131 S    
O48   H86   1.014041 S    
C11   N47   1.427726 S    
N14   Ni1   1.876501 S    
C3    C19   1.392202 A    
C5    C18   1.390360 A    
N42   O19   1.293043 A    
C26   C130  1.468702 S    
N12   Ni7   1.920500 S    
C116  O32   1.394631 S    
C97   C101  1.538284 S    
C8    C19   1.407321 A    
N28   Ni7   1.908929 S    
N41   O18   1.299876 A    
C87   C95   1.545423 S    
C57   C61   1.541269 S    
C30   N22   1.334342 A    
C133  O73   1.216718 D    
C41   C107  1.491236 S    
N49   O82   1.299170 A    
C50   C63   1.542250 S    
C11   N11   1.329389 A    
O26   H75   1.013717 S    
N22   Ni6   1.873654 S    
C78   C96   1.550085 S    
C38   N30   1.310524 A    
N16   Ni3   1.876501 S    
C123  O45   1.221674 D    
C76   C82   1.590254 S    
C135  O78   1.392000 S    
C2    N2    1.316884 A    
C104  H66   1.114056 S    
C66   H24   1.114774 S    
C60   C62   1.554342 S    
C126  O52   1.398427 S    
C98   C126  1.521419 S    
C14   C23   1.360025 A    
C75   C115  1.531228 S    
N44   O24   1.302057 A    
C125  O49   1.223874 D    
O34   H79   1.011053 S    
C124  O48   1.396824 S    
C58   C61   1.553985 S    
C62   H22   1.109542 S    
C85   C89   1.584413 S    
C131  O70   1.396134 S    
C69   H29   1.111244 S    
C74   H48   1.105674 S    
C89   H51   1.112893 S    
C79   C93   1.523422 S    
C101  H63   1.114528 S    
O30   H77   1.013911 S    
C80   C94   1.548624 S    
C134  O76   1.396012 S    
C74   C84   1.575557 S    
C105  C111  1.522830 S    
C122  O44   1.399056 S    
C72   H28   1.112488 S    
C5    N5    1.313972 A    
C129  O66   1.396438 S    
C119  O37   1.222149 D    
N6    Ni6   1.874836 S    
C39   C48   1.372120 A    
C73   C83   1.593689 S    
C28   C132  1.480883 S    
O80   H98   1.013612 S    
C59   C62   1.543939 S    
C73   H47   1.106185 S    
C115  O30   1.398703 S    
C26   C41   1.404130 A    
C27   C131  1.472861 S    
C68   C70   1.546466 S    
C110  C112  1.551421 S    
C24   C64   1.450496 S    
O76   H96   1.013742 S    
C92   H54   1.110602 S    
C56   C59   1.535930 S    
C72   H34   1.112133 S    
C35   N27   1.321196 A    
C1    N33   1.434253 S    
C99   H57   1.100830 S    
C69   H31   1.104718 S    
N50   O84   1.300601 A    
C15   N15   1.339212 A    
C65   N41   1.474450 S    
C16   N16   1.337474 A    
O52   H88   1.012855 S    
N25   N30   1.378384 A    
C53   C55   1.533790 S    
N27   N32   1.378384 A    
N20   Ni4   1.927059 S    
N21   N22   1.427854 A    
C104  H62   1.113547 S    
N11   N12   1.406547 A    
C65   C71   1.520105 S    
C103  C110  1.539216 S    
O68   H92   1.013783 S    
C35   C47   1.377048 A    
C28   N20   1.326112 A    
