data_mof_unit_51801.cif
_audit_creation_date              2012-10-26T17:12:25-0400
_audit_creation_method            fapswitch 2.2
_symmetry_space_group_name_H-M    P1
_symmetry_Int_Tables_number       1
_space_group_crystal_system       triclinic
_cell_length_a                    16.71897
_cell_length_b                    16.819685
_cell_length_c                    16.78069
_cell_angle_alpha                 68.301991
_cell_angle_beta                  68.045559
_cell_angle_gamma                 68.184762
_cell_volume                      3914.57409692

loop_
_atom_site_label
_atom_site_type_symbol
_atom_type_description
_atom_site_fract_x
_atom_site_fract_y
_atom_site_fract_z
_atom_type_partial_charge
C1    C     C_R   0.015720 0.830830 0.569330 0.606637
C2    C     C_R   0.028643 0.564274 0.827998 0.594064
C3    C     C_R   0.171990 0.968914 0.436432 0.584873
C4    C     C_R   0.828043 0.032562 0.563069 0.622945
C5    C     C_R   0.525497 0.927151 0.729580 0.253090
C6    C     C_R   0.476013 0.074595 0.268015 0.245157
C7    C     C_R   0.922120 0.739686 0.518930 0.249528
C8    C     C_R   0.932223 0.293411 0.547982 0.252304
C9    C     C_R   0.701044 0.451160 0.081461 0.251253
C10   C     C_R   0.295525 0.545398 0.941684 0.249512
C11   C     C_R   0.312224 0.908201 0.542710 0.250053
C12   C     C_R   0.976214 0.170959 0.433988 0.595541
C13   C     C_R   0.688849 0.095811 0.455306 0.259886
C14   C     C_R   0.546704 0.292068 0.948297 0.280025
C15   C     C_R   0.450868 0.703268 0.073598 0.270780
C16   C     C_R   0.903564 0.549209 0.304471 0.251441
C17   C     C_R   0.064122 0.458064 0.695870 0.252973
C18   C     C_R   0.551205 0.009281 0.545770 0.042602
C19   C     C_R   0.449624 0.994477 0.451976 0.034778
C20   C     C_R   0.980597 0.554998 0.557948 0.038472
C21   C     C_R   0.952413 0.463122 0.464200 0.037171
C22   C     C_R   0.539122 0.538976 0.037608 0.039688
C23   C     C_R   0.828785 0.565476 0.025261 0.602920
C24   C     C_R   0.452164 0.451124 0.994671 0.040518
C25   C     C_R   0.568382 0.047509 0.452335 -0.007335
C26   C     C_R   0.432569 0.956355 0.545353 -0.012005
C27   C     C_R   0.996442 0.461916 0.588081 -0.013616
C28   C     C_R   0.936478 0.556243 0.432558 -0.009905
C29   C     C_R   0.451596 0.581164 0.028380 -0.005012
C30   C     C_R   0.538753 0.407725 0.007354 -0.002996
C31   C     C_R   0.515972 0.041494 0.405475 -0.008624
C32   C     C_R   0.485301 0.961753 0.592047 -0.006940
C33   C     C_R   0.409870 0.539055 0.002252 -0.011841
C34   C     C_R   0.172305 0.436018 0.969813 0.591631
C35   C     C_R   0.580265 0.450180 0.033633 -0.013182
C36   C     C_R   0.972080 0.418202 0.546984 -0.012549
C37   C     C_R   0.944164 0.603186 0.484062 -0.006964
C38   C     C_R   0.478607 0.916311 0.682814 -0.074553
C39   C     C_R   0.523357 0.085658 0.314353 -0.079399
C40   C     C_R   0.911496 0.695908 0.468748 -0.074653
C41   C     C_R   0.956333 0.334366 0.590676 -0.092400
C42   C     C_R   0.658147 0.405208 0.063023 -0.089550
C43   C     C_R   0.333630 0.586467 0.971076 -0.090785
C44   C     C_R   0.363219 0.913500 0.588907 -0.080193
C45   C     C_R   0.569420 0.017001 0.830211 0.605356
C46   C     C_R   0.637656 0.090667 0.409000 -0.071545
C47   C     C_R   0.586301 0.329507 0.980183 -0.062239
C48   C     C_R   0.406086 0.660848 0.053460 -0.069655
C49   C     C_R   0.907813 0.598385 0.354025 -0.082702
C50   C     C_R   0.040907 0.414351 0.655024 -0.091016
C51   C     C_R   0.578424 0.987562 0.687816 -0.007290
C52   C     C_R   0.422063 0.015048 0.310434 -0.014434
C53   C     C_R   0.977509 0.693948 0.577469 -0.012619
C54   C     C_R   0.946737 0.323704 0.454342 -0.013118
C55   C     C_R   0.674424 0.545501 0.057497 -0.012674
C56   C     C_R   0.430509 0.983558 0.169510 0.602718
C57   C     C_R   0.323229 0.451800 0.956741 -0.019701
C58   C     C_R   0.325811 0.949190 0.450775 -0.020520
C59   C     C_R   0.674327 0.055058 0.547664 0.009597
C60   C     C_R   0.452890 0.321327 0.959159 0.015000
C61   C     C_R   0.545379 0.675374 0.054209 0.009595
C62   C     C_R   0.936187 0.455032 0.327688 -0.009063
C63   C     C_R   0.034210 0.551756 0.678006 -0.017295
C64   C     C_R   0.612278 0.017691 0.734671 0.007704
C65   C     C_R   0.387657 0.984237 0.264445 0.008984
C66   C     C_R   0.011877 0.736868 0.611912 0.006023
C67   C     C_R   0.436207 0.172110 0.969787 0.605221
C68   C     C_R   0.964345 0.268673 0.398833 0.019588
C69   C     C_R   0.730692 0.600803 0.037837 0.016258
C70   C     C_R   0.272667 0.402738 0.951015 0.020178
C71   C     C_R   0.271412 0.951653 0.401639 0.020047
C72   C     C_R   0.728520 0.051635 0.597446 0.039856
C73   C     C_R   0.403524 0.271689 0.951903 0.021941
C74   C     C_R   0.600782 0.730911 0.036815 0.031071
C75   C     C_R   0.960266 0.399540 0.269933 0.022014
C76   C     C_R   0.040683 0.599448 0.729181 0.022157
C77   C     C_R   0.688312 0.050616 0.687338 0.198972
C78   C     C_R   0.565545 0.828712 0.025218 0.617406
C79   C     C_R   0.311379 0.951662 0.312241 0.201459
C80   C     C_R   0.044108 0.687789 0.687986 0.205591
C81   C     C_R   0.984377 0.306167 0.305748 0.193165
C82   C     C_R   0.694316 0.693969 0.015602 0.191271
C83   C     C_R   0.316646 0.315873 0.940316 0.198545
C84   C     C_R   0.600819 0.018004 0.593601 -0.023807
C85   C     C_R   0.399532 0.985789 0.404515 -0.041240
C86   C     C_R   0.998271 0.600203 0.603965 -0.036680
C87   C     C_R   0.946649 0.413739 0.414617 -0.034205
C88   C     C_R   0.586627 0.586850 0.048984 -0.027633
C89   C     C_R   0.973861 0.434797 0.171472 0.605114
C90   C     C_R   0.408585 0.407252 0.971890 -0.029788
Cl1   Cl    Cl    0.534498 0.845823 0.830744 -0.584579
Cl2   Cl    Cl    0.384752 0.766085 0.150303 -0.480178
Cl3   Cl    Cl    0.834397 0.607725 0.231708 -0.529126
Cl4   Cl    Cl    0.148739 0.393934 0.750351 -0.472154
Cl5   Cl    Cl    0.731026 0.097913 0.735729 -0.372035
Cl6   Cl    Cl    0.267560 0.903050 0.266041 -0.426881
Cl7   Cl    Cl    0.096152 0.732224 0.729947 -0.369500
Cl8   Cl    Cl    0.058132 0.236278 0.234625 -0.505383
Cl9   Cl    Cl    0.765264 0.763927 0.941571 -0.491438
Cl10  Cl    Cl    0.267989 0.266832 0.899345 -0.433663
Cl11  Cl    Cl    0.467290 0.155253 0.166602 -0.619694
Cl12  Cl    Cl    0.841822 0.841451 0.527312 -0.595489
Cl13  Cl    Cl    0.853120 0.233460 0.616760 -0.438077
Cl14  Cl    Cl    0.766965 0.387709 0.156813 -0.484141
Cl15  Cl    Cl    0.238933 0.616191 0.860035 -0.446792
Cl16  Cl    Cl    0.247715 0.831720 0.599432 -0.450472
Cl17  Cl    Cl    0.757361 0.169441 0.396961 -0.493594
Cl18  Cl    Cl    0.621262 0.235675 0.867255 -0.452687
Cu1   Cu    Cu3+1 0.995180 0.995180 0.424630 1.225919
Cu2   Cu    Cu3+1 0.004820 0.004820 0.575370 1.210452
Cu3   Cu    Cu3+1 0.995180 0.424630 0.995180 1.215479
Cu4   Cu    Cu3+1 0.004820 0.575370 0.004820 1.208444
Cu5   Cu    Cu3+1 0.424630 0.995180 0.995180 1.226196
Cu6   Cu    Cu3+1 0.575370 0.004820 0.004820 1.223675
H1    H     H_    0.441100 0.867685 0.718591 0.153862
H2    H     H_    0.334043 0.685956 0.066040 0.147600
H3    H     H_    0.886580 0.669810 0.330260 0.147989
H4    H     H_    0.064388 0.342507 0.671018 0.151833
H5    H     H_    0.561858 0.133378 0.277898 0.149707
H6    H     H_    0.869972 0.734947 0.423976 0.151237
H7    H     H_    0.950339 0.306536 0.661410 0.153419
H8    H     H_    0.682091 0.333449 0.078566 0.152454
H9    H     H_    0.309329 0.657943 0.959404 0.153646
H10   H     H_    0.346806 0.882298 0.659495 0.156971
H11   H     H_    0.654094 0.121835 0.338402 0.151051
H12   H     H_    0.657714 0.303498 0.972329 0.146703
O1    O     O_R   0.124540 0.978640 0.385460 -0.450672
O2    O     O_R   0.124540 0.385460 0.978640 -0.427503
O3    O     O_R   0.021360 0.875460 0.614540 -0.435012
O4    O     O_R   0.978640 0.124540 0.385460 -0.427660
O5    O     O_R   0.013780 0.867370 0.487190 -0.487878
O6    O     O_R   0.986220 0.132630 0.512810 -0.503710
O7    O     O_R   0.867370 0.487190 0.013780 -0.502135
O8    O     O_R   0.132630 0.512810 0.986220 -0.498562
O9    O     O_R   0.487190 0.013780 0.867370 -0.492426
O10   O     O_R   0.512810 0.986220 0.132630 -0.497221
O11   O     O_R   0.512810 0.132630 0.986220 -0.449038
O12   O     O_R   0.875460 0.021360 0.614540 -0.445116
O13   O     O_R   0.487190 0.867370 0.013780 -0.450587
O14   O     O_R   0.986220 0.512810 0.132630 -0.501166
O15   O     O_R   0.013780 0.487190 0.867370 -0.497231
O16   O     O_R   0.132630 0.986220 0.512810 -0.498807
O17   O     O_R   0.867370 0.013780 0.487190 -0.453761
O18   O     O_R   0.978640 0.385460 0.124540 -0.420657
O19   O     O_R   0.021360 0.614540 0.875460 -0.428866
O20   O     O_R   0.385460 0.124540 0.978640 -0.462857
O21   O     O_R   0.614540 0.875460 0.021360 -0.464383
O22   O     O_R   0.614540 0.021360 0.875460 -0.428707
O23   O     O_R   0.385460 0.978640 0.124540 -0.433145
O24   O     O_R   0.875460 0.614540 0.021360 -0.426604

loop_
_geom_bond_atom_site_label_1
_geom_bond_atom_site_label_2
_ccdc_geom_bond_type
C25   C31   A    
C21   C87   A    
C26   C32   A    
C65   C79   A    
C22   C29   A    
C80   Cl7   S    
C45   O22   A    
C64   C77   A    
C23   C69   S    
C46   H11   S    
Cu3   Cu4   S    
C3    O16   A    
C13   Cl17  S    
C19   C31   A    
C78   O13   A    
Cu3   O2    S    
C4    O17   A    
C71   C79   A    
C26   C44   A    
C66   C80   A    
C21   C36   A    
C63   C76   A    
C2    O19   A    
C22   C35   A    
C12   C68   S    
C16   Cl3   S    
C12   O4    A    
C30   C35   A    
C68   C81   A    
C52   C85   A    
Cu6   O21   S    
C37   C40   A    
C1    O3    A    
C54   C87   A    
C3    O1    A    
C58   C71   A    
C6    Cl11  S    
C54   C68   A    
C81   Cl8   S    
C34   O8    A    
C56   C65   S    
C29   C33   A    
C60   C73   A    
Cu4   O19   S    
Cu2   O3    S    
C82   Cl9   S    
Cu6   O11   S    
C41   H7    S    
C55   C88   A    
Cu2   O16   S    
C19   C26   A    
Cu4   O14   S    
C69   C82   A    
C15   Cl2   S    
C77   Cl5   S    
Cu1   O1    S    
C49   H3    S    
C7    Cl12  S    
C20   C86   A    
Cu1   O5    S    
C18   C84   A    
C7    C40   A    
Cu5   O13   S    
Cu2   O6    S    
C53   C86   A    
C67   C73   S    
C22   C88   A    
C57   C70   A    
C11   C58   A    
C34   C70   S    
C38   H1    S    
C27   C50   A    
C59   C72   A    
C48   H2    S    
C14   Cl18  S    
C5    C38   A    
C36   C41   A    
C18   C25   A    
C16   C62   A    
C15   C48   A    
C74   C82   A    
C56   O10   A    
C24   C33   A    
C15   C61   A    
C45   O9    A    
C57   C90   A    
C23   O7    A    
C29   C48   A    
C33   C43   A    
Cu5   O23   S    
C30   C47   A    
Cu2   O12   S    
C10   C57   A    
C8    C41   A    
C8    C54   A    
Cu3   O15   S    
Cu3   O7    S    
C1    O5    A    
C44   H10   S    
Cu5   O20   S    
C3    C71   S    
C72   C77   A    
C70   C83   A    
C61   C88   A    
C28   C49   A    
C89   O14   A    
C67   O20   A    
C1    C66   S    
C9    C42   A    
C11   C44   A    
Cu1   O17   S    
C5    Cl1   S    
C16   C49   A    
C53   C66   A    
C55   C69   A    
Cu3   O18   S    
C9    C55   A    
C78   O21   A    
C40   H6    S    
C21   C28   A    
C32   C38   A    
C83   Cl10  S    
C63   C86   A    
C74   C78   S    
C61   C74   A    
Cu4   O24   S    
C62   C75   A    
C18   C32   A    
C7    C53   A    
C58   C85   A    
C43   H9    S    
C4    C72   S    
C2    C76   S    
C42   H8    S    
C47   H12   S    
Cu5   Cu6   S    
C12   O6    A    
C10   C43   A    
C50   H4    S    
C23   O24   A    
C75   C81   A    
C51   C64   A    
C76   C80   A    
Cu4   O8    S    
C19   C85   A    
C24   C90   A    
C17   C50   A    
C14   C47   A    
C13   C59   A    
C20   C27   A    
C60   C90   A    
C27   C36   A    
C89   O18   A    
C14   C60   A    
C62   C87   A    
C45   C64   S    
C59   C84   A    
Cu6   O22   S    
C79   Cl6   S    
Cu1   Cu2   S    
C17   C63   A    
C20   C37   A    
C13   C46   A    
C11   Cl16  S    
C28   C37   A    
C9    Cl14  S    
C39   H5    S    
C51   C84   A    
C35   C42   A    
C31   C39   A    
C67   O11   A    
C8    Cl13  S    
C24   C30   A    
C75   C89   S    
C4    O12   A    
C34   O2    A    
Cu5   O9    S    
Cu1   O4    S    
C2    O15   A    
Cu6   O10   S    
C6    C39   A    
C5    C51   A    
C10   Cl15  S    
C17   Cl4   S    
C6    C52   A    
C56   O23   A    
C25   C46   A    
C73   C83   A    
C52   C65   A    
