data_mof_unit_59625.cif
_audit_creation_date              2012-12-10T19:04:12-0500
_audit_creation_method            fapswitch 2.2
_symmetry_space_group_name_H-M    P1
_symmetry_Int_Tables_number       1
_space_group_crystal_system       triclinic
_cell_length_a                    10.646011
_cell_length_b                    10.813906
_cell_length_c                    9.562959
_cell_angle_alpha                 90.132327
_cell_angle_beta                  89.589825
_cell_angle_gamma                 90.18183
_cell_volume                      1100.8986598

loop_
_atom_site_label
_atom_site_type_symbol
_atom_type_description
_atom_site_fract_x
_atom_site_fract_y
_atom_site_fract_z
_atom_type_partial_charge
C1    C     C_R   0.501563 0.262457 0.499909 0.786535
C2    C     C_3   0.960062 0.493428 0.366121 -0.176510
C3    C     C_3   0.041929 0.394727 0.439806 -0.283636
C4    C     C_3   0.122866 0.499359 0.501820 -0.020005
C5    C     C_R   0.487038 0.064139 0.623652 0.124600
C6    C     C_R   0.511230 0.129325 0.500665 -0.097622
C7    C     C_R   0.549446 0.064408 0.380377 -0.210675
C8    C     C_R   0.549064 0.935445 0.380546 -0.213590
C9    C     C_R   0.510366 0.870938 0.500922 -0.095380
C10   C     C_R   0.486299 0.936758 0.623797 0.183208
C11   C     C_3   0.373703 0.931354 0.718003 -0.444439
C12   C     C_R   0.259488 0.500065 0.500576 0.837157
C13   C     C_3   0.375276 0.071577 0.718501 -0.479377
C14   C     C_R   0.607908 0.523506 0.073002 0.177418
C15   C     C_R   0.397087 0.463460 0.074888 -0.053465
C16   C     C_R   0.397167 0.463288 0.926362 -0.066047
C17   C     C_R   0.607805 0.523900 0.925833 0.157559
C18   C     C_3   0.687863 0.638263 0.922012 0.206719
C19   C     C_3   0.688217 0.636476 0.081441 -0.543051
C20   C     C_R   0.501151 0.737619 0.500106 0.821446
C21   C     C_R   0.740461 0.499858 0.499517 0.821750
C22   C     C_3   0.037428 0.505463 0.630504 0.418495
C23   C     C_3   0.955936 0.400255 0.571770 -0.212958
C24   C     C_3   0.876906 0.499836 0.498692 -0.095749
C25   C     C_3   0.956609 0.605402 0.561292 -0.302721
C26   C     C_3   0.041424 0.595942 0.430777 0.394573
Cu1   Cu    Cu3+1 0.499990 0.499980 0.640670 0.979502
Cu2   Cu    Cu3+1 0.500010 0.500020 0.359330 0.957747
H1    H     H_    0.918074 0.320423 0.631655 0.145717
H2    H     H_    0.395198 0.891269 0.821817 0.206580
H3    H     H_    0.292113 0.113188 0.667122 0.197517
H4    H     H_    0.399267 0.111897 0.822009 0.206226
H5    H     H_    0.313006 0.435063 0.130153 0.152144
H6    H     H_    0.313372 0.434529 0.872062 0.186881
H7    H     H_    0.781709 0.622343 0.873702 0.128014
H8    H     H_    0.782290 0.616336 0.125048 0.164572
H9    H     H_    0.639087 0.715642 0.131607 0.212553
H10   H     H_    0.920248 0.691234 0.610746 0.155723
H11   H     H_    0.926921 0.489336 0.256504 0.143660
H12   H     H_    0.079279 0.309174 0.390669 0.156611
H13   H     H_    0.575146 0.112758 0.285263 0.168350
H14   H     H_    0.574604 0.886832 0.285530 0.160527
H15   H     H_    0.289894 0.891173 0.665740 0.205164
N1    N     N_R   0.500800 0.500930 0.147930 -0.175585
N2    N     N_R   0.500800 0.500890 0.852020 -0.184089
O1    O     O_R   0.500000 0.319640 0.618810 -0.583581
O2    O     O_R   0.500010 0.319680 0.381230 -0.589105
O3    O     O_R   0.316850 0.499950 0.618770 -0.564063
O4    O     O_R   0.316860 0.499990 0.381190 -0.577722
O5    O     O_R   0.499990 0.680320 0.618770 -0.537887
O6    O     O_R   0.500000 0.680360 0.381190 -0.581736
O7    O     O_R   0.683140 0.500010 0.618810 -0.586408
O8    O     O_R   0.683150 0.500050 0.381230 -0.586409
O9    O     O_3   0.626747 0.742101 0.866361 -0.689093
H16   H     H_    0.543149 0.749695 0.912260 0.331220
O10   O     O_3   0.080721 0.511143 0.768030 -0.738687
H17   H     H_    0.004135 0.512736 0.827548 0.309265
O11   O     O_3   0.090096 0.697048 0.357193 -0.727532
H18   H     H_    0.015845 0.742023 0.321876 0.319690

loop_
_geom_bond_atom_site_label_1
_geom_bond_atom_site_label_2
_ccdc_geom_bond_type
Cu1   O3    S    
C15   N1    A    
C4    C26   S    
C23   C24   S    
Cu2   O2    S    
C11   H15   S    
C6    C7    A    
C25   H10   S    
C4    C12   S    
C4    C22   S    
Cu2   O4    S    
C9    C20   S    
C5    C13   S    
Cu1   O5    S    
C12   O3    A    
Cu1   N2    S    
C12   O4    A    
C25   C26   S    
C5    C10   A    
C2    C26   S    
C24   C25   S    
Cu2   O8    S    
C21   O8    A    
C11   C13   S    
C14   C17   A    
C20   O5    A    
C15   C16   A    
C23   H1    S    
Cu1   O1    S    
C14   C19   S    
C17   N2    A    
C3    H12   S    
C17   C18   S    
C20   O6    A    
C2    C3    S    
C19   H8    S    
C7    H13   S    
C2    C24   S    
C5    C6    A    
Cu2   O6    S    
C1    O1    A    
C10   C11   S    
C18   O9    S    
C16   N2    A    
C8    H14   S    
C1    C6    S    
C9    C10   A    
C7    C8    A    
O10   H17   S    
Cu1   O7    S    
C14   N1    A    
C18   C19   S    
C18   H7    S    
C21   C24   S    
C26   O11   S    
Cu1   Cu2   S    
C13   H3    S    
C22   C23   S    
C1    O2    A    
C22   O10   S    
C19   H9    S    
C16   H6    S    
O11   H18   S    
O9    H16   S    
C13   H4    S    
C3    C23   S    
C2    H11   S    
Cu2   N1    S    
C21   O7    A    
C3    C4    S    
C11   H2    S    
C15   H5    S    
C8    C9    A    
C22   C25   S    
