data_mof_unit_64579.cif
_audit_creation_date              2013-03-05T15:56:39-0500
_audit_creation_method            fapswitch 2.2
_symmetry_space_group_name_H-M    P1
_symmetry_Int_Tables_number       1
_space_group_crystal_system       triclinic
_cell_length_a                    38.524699
_cell_length_b                    21.689857
_cell_length_c                    21.728488
_cell_angle_alpha                 89.999891
_cell_angle_beta                  56.10798
_cell_angle_gamma                 90.000604
_cell_volume                      15071.2963511

loop_
_atom_site_label
_atom_site_type_symbol
_atom_site_description
_atom_site_fract_x
_atom_site_fract_y
_atom_site_fract_z
_atom_type_partial_charge
O1    O     O_R   0.000010 0.447810 0.409820 -0.596959
O2    O     O_R   0.999990 0.447810 0.590180 -0.597053
O3    O     O_R   0.500010 0.947810 0.409820 -0.596952
O4    O     O_R   0.499990 0.947810 0.590180 -0.597001
O5    O     O_R   0.000010 0.552200 0.409870 -0.545628
O6    O     O_R   0.999990 0.552200 0.590130 -0.545505
O7    O     O_R   0.500010 0.052200 0.409870 -0.545584
O8    O     O_R   0.499990 0.052200 0.590130 -0.545587
C1    C     C_R   0.000731 0.500058 0.380454 0.857970
C2    C     C_R   0.999268 0.500058 0.619548 0.858172
C3    C     C_R   0.500732 0.000058 0.380452 0.858032
C4    C     C_R   0.499270 0.000057 0.619546 0.858074
O9    O     O_R   0.939540 0.447810 0.560460 -0.592321
O10   O     O_R   0.060460 0.447810 0.439540 -0.592800
O11   O     O_R   0.439540 0.947810 0.560460 -0.592490
O12   O     O_R   0.560460 0.947810 0.439540 -0.592543
O13   O     O_R   0.939550 0.552200 0.560510 -0.552074
O14   O     O_R   0.060450 0.552200 0.439490 -0.551788
O15   O     O_R   0.439550 0.052200 0.560510 -0.551965
O16   O     O_R   0.560450 0.052200 0.439490 -0.551949
C5    C     C_R   0.919849 0.500005 0.580117 0.844095
C6    C     C_R   0.080151 0.500006 0.419884 0.844288
C7    C     C_R   0.419849 0.000005 0.580116 0.844209
C8    C     C_R   0.580151 0.000006 0.419884 0.844147
Cu1   Cu    Cu3+1 0.000000 0.438200 0.500000 0.984052
Cu2   Cu    Cu3+1 0.500000 0.938200 0.500000 0.984184
Cu3   Cu    Cu3+1 0.000000 0.561810 0.500000 1.089282
Cu4   Cu    Cu3+1 0.500000 0.061810 0.500000 1.089230
C9    C     C_3   0.736402 0.464500 0.719048 0.390856
C10   C     C_3   0.263623 0.469966 0.284696 0.390350
C11   C     C_3   0.236389 0.967006 0.717218 0.390588
C12   C     C_3   0.763609 0.966708 0.282573 0.390677
C13   C     C_3   0.763911 0.521719 0.682033 -0.205068
C14   C     C_3   0.236070 0.527888 0.315145 -0.203970
C15   C     C_3   0.263919 0.024649 0.683267 -0.204668
C16   C     C_3   0.736083 0.024309 0.316885 -0.204543
H1    H     H_    0.775297 0.539087 0.625733 0.165047
H2    H     H_    0.224669 0.550296 0.369176 0.165657
H3    H     H_    0.275312 0.044411 0.627958 0.165215
H4    H     H_    0.724691 0.043792 0.372317 0.165371
H5    H     H_    0.724089 0.605132 0.761600 0.160621
H6    H     H_    0.275829 0.606202 0.226350 0.160283
H7    H     H_    0.224129 0.105807 0.767230 0.160436
H8    H     H_    0.775878 0.105746 0.233432 0.160478
C17   C     C_1   0.874954 0.499992 0.625180 -0.116726
C18   C     C_1   0.125046 0.500001 0.374828 -0.116711
C19   C     C_1   0.374954 0.999995 0.625175 -0.116683
C20   C     C_1   0.625046 0.999997 0.374823 -0.116743
C21   C     C_1   0.625043 0.499939 0.875632 -0.131380
C22   C     C_1   0.374957 0.499953 0.124372 -0.131311
C23   C     C_1   0.125043 0.999945 0.875631 -0.131370
C24   C     C_1   0.874957 0.999945 0.124369 -0.131341
C25   C     C_3   0.764356 0.441474 0.744113 -0.209601
C26   C     C_3   0.235690 0.440989 0.262600 -0.210618
C27   C     C_3   0.264334 0.941148 0.740976 -0.209964
C28   C     C_3   0.735662 0.941181 0.258654 -0.210113
C29   C     C_3   0.791384 0.499677 0.708832 0.122794
C30   C     C_3   0.208615 0.499744 0.291211 0.122791
C31   C     C_3   0.291384 0.999706 0.708811 0.122821
C32   C     C_3   0.708616 0.999706 0.291186 0.122771
C33   C     C_3   0.736434 0.477560 0.817968 -0.214636
C34   C     C_3   0.263584 0.471571 0.184943 -0.215042
C35   C     C_3   0.236426 0.974711 0.816690 -0.214851
C36   C     C_3   0.763572 0.975046 0.183151 -0.214808
C37   C     C_3   0.708649 0.499529 0.791720 0.078146
C38   C     C_3   0.291351 0.499616 0.208334 0.078130
C39   C     C_3   0.208649 0.999569 0.791694 0.078158
C40   C     C_3   0.791351 0.999566 0.208302 0.078140
C41   C     C_3   0.764288 0.535601 0.781992 -0.114544
C42   C     C_3   0.235684 0.530150 0.214267 -0.114388
C43   C     C_3   0.264302 0.033100 0.783821 -0.114489
C44   C     C_3   0.735700 0.033403 0.216386 -0.114469
C45   C     C_3   0.735998 0.557477 0.756133 -0.209920
C46   C     C_3   0.263957 0.558116 0.237279 -0.209327
C47   C     C_3   0.236020 0.057870 0.759210 -0.209677
C48   C     C_3   0.763984 0.057835 0.241152 -0.209663
C49   C     C_1   0.837245 0.499904 0.662998 -0.011421
C50   C     C_1   0.162755 0.499931 0.337022 -0.011445
C51   C     C_1   0.337245 0.999915 0.662987 -0.011428
C52   C     C_1   0.662755 0.999916 0.337011 -0.011436
C53   C     C_1   0.662755 0.499805 0.837955 0.022152
C54   C     C_1   0.337245 0.499845 0.162065 0.021922
C55   C     C_1   0.162755 0.999824 0.837946 0.022007
C56   C     C_1   0.837245 0.999823 0.162052 0.022072
H9    H     H_    0.776393 0.565199 0.807702 0.156661
H10   H     H_    0.223556 0.555205 0.185442 0.156080
H11   H     H_    0.276419 0.060615 0.811054 0.156393
H12   H     H_    0.723585 0.061168 0.189327 0.156477
H13   H     H_    0.724887 0.459674 0.874132 0.160191
H14   H     H_    0.275146 0.448683 0.131104 0.160094
H15   H     H_    0.224873 0.954448 0.871836 0.160147
H16   H     H_    0.775124 0.955060 0.127879 0.160162
H17   H     H_    0.776105 0.393658 0.738234 0.163089
H18   H     H_    0.223979 0.392808 0.273955 0.163046
H19   H     H_    0.276064 0.893082 0.732537 0.163154
H20   H     H_    0.723928 0.893137 0.266792 0.163022
C57   C     C_R   0.029744 0.540080 0.252921 0.243190
C58   C     C_R   0.970269 0.540101 0.747068 0.243287
C59   C     C_R   0.529729 0.040106 0.252933 0.243239
C60   C     C_R   0.470253 0.040073 0.747081 0.243252
C61   C     C_R   0.030029 0.539053 0.187927 0.351914
C62   C     C_R   0.969985 0.539075 0.812061 0.351933
C63   C     C_R   0.530013 0.039080 0.187941 0.351945
C64   C     C_R   0.469966 0.039044 0.812076 0.351868
C65   C     C_R   0.001095 0.501592 0.184971 -0.161053
C66   C     C_R   0.998906 0.501592 0.815030 -0.161159
C67   C     C_R   0.501094 0.001593 0.184970 -0.161160
C68   C     C_R   0.498905 0.001591 0.815029 -0.161078
C69   C     C_R   0.973759 0.463236 0.244381 -0.237764
C70   C     C_R   0.026228 0.463217 0.755633 -0.237211
C71   C     C_R   0.473774 0.963212 0.244364 -0.237542
C72   C     C_R   0.526245 0.963242 0.755615 -0.237484
H21   H     H_    0.951934 0.433671 0.241779 0.175800
H22   H     H_    0.048042 0.433637 0.758245 0.175962
H23   H     H_    0.451962 0.933628 0.241750 0.175942
H24   H     H_    0.548073 0.933684 0.758214 0.175844
C73   C     C_R   0.974981 0.461681 0.306914 -0.221923
C74   C     C_R   0.025005 0.461663 0.693101 -0.221389
C75   C     C_R   0.474998 0.961658 0.306896 -0.221625
C76   C     C_R   0.525023 0.961687 0.693081 -0.221719
H25   H     H_    0.953674 0.431497 0.352405 0.174205
H26   H     H_    0.046301 0.431463 0.647620 0.174252
H27   H     H_    0.453704 0.931455 0.352375 0.174320
H28   H     H_    0.546333 0.931508 0.647587 0.174185
C77   C     C_R   0.002380 0.500263 0.311966 -0.176827
C78   C     C_R   0.997618 0.500263 0.688036 -0.176927
C79   C     C_R   0.502382 0.000264 0.311963 -0.176931
C80   C     C_R   0.497620 0.000262 0.688033 -0.176833
O17   O     O_R   0.500010 0.409700 0.947870 -0.577681
O18   O     O_R   0.499990 0.409700 0.052130 -0.577398
O19   O     O_R   0.000010 0.909700 0.947870 -0.577505
O20   O     O_R   0.999990 0.909700 0.052130 -0.577526
C81   C     C_R   0.500001 0.380964 0.999999 0.782515
C82   C     C_R   0.000000 0.880964 0.000000 0.782636
O21   O     O_R   0.560470 0.499890 0.887380 -0.561415
O22   O     O_R   0.439530 0.499890 0.112620 -0.559829
O23   O     O_R   0.060470 0.999890 0.887380 -0.560673
O24   O     O_R   0.939530 0.999890 0.112620 -0.560719
O25   O     O_R   0.560460 0.499990 0.991770 -0.584155
O26   O     O_R   0.439540 0.499990 0.008230 -0.584636
O27   O     O_R   0.060460 0.999990 0.991770 -0.584403
O28   O     O_R   0.939540 0.999990 0.008230 -0.584367
C83   C     C_R   0.580144 0.499986 0.920106 0.811733
C84   C     C_R   0.419856 0.499985 0.079894 0.811077
C85   C     C_R   0.080144 0.999986 0.920106 0.811437
C86   C     C_R   0.919856 0.999986 0.079894 0.811467
Cu5   Cu    Cu3+1 0.500010 0.499870 0.938220 0.997142
Cu6   Cu    Cu3+1 0.499990 0.499870 0.061780 0.999062
Cu7   Cu    Cu3+1 0.000010 0.999870 0.938220 0.998053
Cu8   Cu    Cu3+1 0.999990 0.999870 0.061780 0.997992
O29   O     O_R   0.500010 0.590060 0.947790 -0.584399
O30   O     O_R   0.499990 0.590060 0.052210 -0.583939
O31   O     O_R   0.000010 0.090060 0.947790 -0.584205
O32   O     O_R   0.999990 0.090060 0.052210 -0.584199
C87   C     C_R   0.500000 0.618771 0.000000 0.767527
C88   C     C_R   1.000000 0.118771 0.000000 0.767492
O33   O     O_R   0.034970 0.409720 0.965020 -0.590473
O34   O     O_R   0.965030 0.409720 0.034980 -0.590594
O35   O     O_R   0.534970 0.909720 0.965020 -0.590569
O36   O     O_R   0.465030 0.909720 0.034980 -0.590485
C89   C     C_R   1.000000 0.380763 0.000000 0.775141
C90   C     C_R   0.500000 0.880763 0.000000 0.775170
O37   O     O_R   0.034990 0.499890 0.055220 -0.578562
O38   O     O_R   0.965010 0.499890 0.944780 -0.578651
O39   O     O_R   0.534990 0.999890 0.055220 -0.578595
O40   O     O_R   0.465010 0.999890 0.944780 -0.578594
O41   O     O_R   0.965000 0.499930 0.125200 -0.588500
O42   O     O_R   0.035000 0.499930 0.874800 -0.588147
O43   O     O_R   0.465000 0.999930 0.125200 -0.588423
O44   O     O_R   0.535000 0.999930 0.874800 -0.588280
C91   C     C_R   0.000226 0.500734 0.118913 0.863365
C92   C     C_R   0.999774 0.500733 0.881087 0.863456
C93   C     C_R   0.500226 0.000734 0.118913 0.863459
C94   C     C_R   0.499774 0.000733 0.881086 0.863380
Cu9   Cu    Cu3+1 0.041440 0.499890 0.958590 0.962458
Cu10  Cu    Cu3+1 0.958560 0.499890 0.041410 0.961722
Cu11  Cu    Cu3+1 0.541440 0.999890 0.958590 0.962279
Cu12  Cu    Cu3+1 0.458560 0.999890 0.041410 0.961785
O45   O     O_R   0.035030 0.590070 0.965060 -0.586002
O46   O     O_R   0.964970 0.590070 0.034940 -0.586148
O47   O     O_R   0.535030 0.090070 0.965060 -0.585917
O48   O     O_R   0.464970 0.090070 0.034940 -0.586268
C95   C     C_R   0.000000 0.618995 1.000000 0.821787
C96   C     C_R   0.500000 0.118995 0.999999 0.821775
C97   C     C_R   0.473316 0.282012 0.066180 -0.153152
C98   C     C_R   0.526688 0.282013 0.933817 -0.151525
C99   C     C_R   0.973313 0.782012 0.066181 -0.152247
C100  C     C_R   0.026688 0.782013 0.933819 -0.152265
H29   H     H_    0.452473 0.306561 0.117528 0.157255
H30   H     H_    0.547532 0.306563 0.882469 0.158466
H31   H     H_    0.952468 0.806561 0.117528 0.157955
H32   H     H_    0.047532 0.806563 0.882471 0.157967
C101  C     C_R   0.972798 0.717919 0.065926 -0.149818
C102  C     C_R   0.027203 0.717920 0.934073 -0.149680
C103  C     C_R   0.472801 0.217919 0.065926 -0.150116
C104  C     C_R   0.527203 0.217920 0.934072 -0.149498
H33   H     H_    0.951787 0.693364 0.117188 0.151772
H34   H     H_    0.048213 0.693366 0.882811 0.151938
H35   H     H_    0.451791 0.193364 0.117189 0.151502
H36   H     H_    0.548212 0.193365 0.882809 0.152088
C105  C     C_R   0.000001 0.685847 1.000000 -0.016482
C106  C     C_R   0.500001 0.185846 0.999999 -0.016417
C107  C     C_R   0.500002 0.314093 0.999999 -0.022545
C108  C     C_R   0.000000 0.814093 1.000000 -0.022636
C109  C     C_R   0.526886 0.717723 0.012921 -0.168543
C110  C     C_R   0.473112 0.717722 0.987081 -0.168411
C111  C     C_R   0.026887 0.217723 0.012919 -0.168524
C112  C     C_R   0.973112 0.217723 0.987082 -0.168539
H37   H     H_    0.547882 0.693170 0.022674 0.141101
H38   H     H_    0.452117 0.693168 0.977328 0.141110
H39   H     H_    0.047883 0.193170 0.022672 0.141084
H40   H     H_    0.952116 0.193168 0.977329 0.141110
C113  C     C_R   0.027402 0.281821 0.011637 -0.172118
C114  C     C_R   0.972597 0.281820 0.988365 -0.172178
C115  C     C_R   0.527401 0.781821 0.011638 -0.172105
C116  C     C_R   0.472597 0.781820 0.988364 -0.172136
H41   H     H_    0.048570 0.306377 0.020961 0.139467
H42   H     H_    0.951429 0.306376 0.979040 0.139476
H43   H     H_    0.548569 0.806377 0.020963 0.139493
H44   H     H_    0.451430 0.806376 0.979039 0.139461
C117  C     C_R   0.999999 0.313898 0.000001 -0.007882
C118  C     C_R   0.499999 0.813898 0.000001 -0.007894
C119  C     C_R   0.500000 0.685643 0.000000 -0.005691
C120  C     C_R   1.000000 0.185643 0.000000 -0.005691
N1    N     N_R   0.722062 0.425150 0.683138 0.124186
O49   O     O_R   0.749226 0.397944 0.620999 -0.342463
O50   O     O_R   0.682343 0.416894 0.712623 -0.345927
N2    N     N_R   0.277990 0.436657 0.324755 0.124267
O51   O     O_R   0.250844 0.413634 0.389757 -0.342325
O52   O     O_R   0.317715 0.429659 0.296149 -0.344277
N3    N     N_R   0.222035 0.930427 0.679280 0.124227
O53   O     O_R   0.249190 0.905139 0.615740 -0.342219
O54   O     O_R   0.182312 0.922746 0.708336 -0.345095
N4    N     N_R   0.777961 0.929795 0.320280 0.124208
O55   O     O_R   0.750805 0.904277 0.383660 -0.342558
O56   O     O_R   0.817683 0.922047 0.291175 -0.345270
N5    N     N_R   0.057549 0.580650 0.258007 0.122052
O57   O     O_R   0.061342 0.637945 0.237406 -0.304080
O58   O     O_R   0.082055 0.559066 0.276446 -0.397326
N6    N     N_R   0.942475 0.580688 0.741971 0.122048
O59   O     O_R   0.938705 0.637988 0.762545 -0.304123
O60   O     O_R   0.917959 0.559119 0.723548 -0.397175
N7    N     N_R   0.557520 0.080698 0.258033 0.122054
O61   O     O_R   0.561286 0.137999 0.237464 -0.304064
O62   O     O_R   0.582039 0.059133 0.276452 -0.397203
N8    N     N_R   0.442444 0.080636 0.741998 0.122040
O63   O     O_R   0.438644 0.137930 0.762608 -0.304199
O64   O     O_R   0.417942 0.059048 0.723552 -0.397294
O65   O     O_3   0.056363 0.577713 0.129133 -0.545604
C121  C     C_3   0.096972 0.551919 0.087765 0.117885
H45   H     H_    0.096479 0.502444 0.074288 0.126143
H46   H     H_    0.112195 0.555758 0.118532 0.180150
C122  C     C_3   0.123455 0.587087 0.015245 -0.722686
H47   H     H_    0.125390 0.636443 0.026658 0.259888
H48   H     H_    0.155514 0.567460 0.982234 0.186809
H49   H     H_    0.109351 0.583500 0.982609 0.254711
O66   O     O_3   0.943667 0.577756 0.870841 -0.545613
C123  C     C_3   0.903048 0.551995 0.912222 0.118097
H50   H     H_    0.903522 0.502513 0.925692 0.126125
H51   H     H_    0.887819 0.555872 0.881468 0.180335
C124  C     C_3   0.876587 0.587162 0.984748 -0.723015
H52   H     H_    0.874674 0.636528 0.973344 0.259909
H53   H     H_    0.844519 0.567566 0.017765 0.186770
H54   H     H_    0.890694 0.583532 0.017375 0.254678
O67   O     O_3   0.556327 0.077767 0.129163 -0.545619
C125  C     C_3   0.596949 0.052016 0.087780 0.117701
H55   H     H_    0.596478 0.002532 0.074312 0.126150
H56   H     H_    0.612178 0.055901 0.118532 0.180318
C126  C     C_3   0.623404 0.087184 0.015252 -0.722085
H57   H     H_    0.625312 0.136552 0.026655 0.260023
H58   H     H_    0.655475 0.067597 0.982236 0.186833
H59   H     H_    0.609297 0.083543 0.982627 0.254726
O68   O     O_3   0.443628 0.077696 0.870874 -0.545614
C127  C     C_3   0.403022 0.051890 0.912238 0.118395
H60   H     H_    0.403521 0.002421 0.925727 0.126142
H61   H     H_    0.387803 0.055707 0.881462 0.180157
C128  C     C_3   0.376530 0.087066 0.984749 -0.723827
H62   H     H_    0.374586 0.136415 0.973322 0.259756
H63   H     H_    0.344474 0.067425 0.017760 0.186731
H64   H     H_    0.390630 0.083505 0.017391 0.254646

loop_
_geom_bond_atom_site_label_1
_geom_bond_atom_site_label_2
_geom_bond_distance
_ccdc_geom_bond_type
C81   C107  1.450433 S    
O42   Cu9   1.969776 S    
C59   C63   1.406310 A    
C115  C118  1.400038 A    
C39   C55   1.467767 S    
C27   C31   1.541215 S    
C127  C128  1.520782 S    
O20   Cu8   1.966982 S    
O28   C86   1.297246 A    
O25   C83   1.297246 A    
Cu5   Cu6   2.684340 S    
O3    C3    1.293225 A    
C19   C51   1.205935 T    
O2    C2    1.293222 A    
C44   C48   1.552941 S    
O19   C82   1.292677 A    
O37   Cu9   1.971877 S    
C70   C74   1.385977 A    
N2    O52   1.300249 A    
C123  H51   1.111317 S    
C40   C56   1.467767 S    
C101  C105  1.399978 A    
C103  C106  1.399977 A    
C12   N4    1.457121 S    
O24   Cu8   1.943169 S    
O7    C3    1.291746 A    
Cu10  O46   1.966702 S    
C10   C26   1.536153 S    
C15   C47   1.555429 S    
O65   C121  1.414271 S    
C17   C49   1.205940 T    
C57   N5    1.437354 S    
O12   Cu2   1.944702 S    
C36   C40   1.542401 S    
O28   Cu7   1.946490 S    
C98   C104  1.390371 A    
C97   C103  1.390364 A    
C124  H53   1.110461 S    
O66   C123  1.414271 S    
C75   C79   1.398480 A    
C66   C70   1.396926 A    
C122  H47   1.110708 S    
C101  H33   1.083507 S    
C72   H24   1.083650 S    
C58   N6    1.437356 S    
C23   C85   1.435828 S    
O39   C93   1.281490 A    
N7    O61   1.301213 A    
C38   C46   1.542432 S    
C9    C13   1.536106 S    
C111  C113  1.390466 A    
O39   Cu11  1.971877 S    
C34   C42   1.553011 S    
C71   C75   1.385976 A    
C127  H60   1.115277 S    
C74   H26   1.083763 S    
C102  H34   1.083507 S    
C21   C53   1.206028 T    
H8    C48   1.110066 S    
Cu7   O31   1.967229 S    
N6    O59   1.301212 A    
C73   H25   1.083764 S    
C97   H29   1.083502 S    
C16   C48   1.555428 S    
O34   C89   1.282640 A    
O5    Cu3   1.969239 S    
C25   C33   1.555573 S    
C60   C64   1.406306 A    
C32   C52   1.466622 S    
O16   C8    1.295603 A    
C22   C84   1.435831 S    
N7    O62   1.301079 A    
C89   C117  1.450288 S    
C42   C46   1.552950 S    
C24   C86   1.435828 S    
C128  H63   1.110463 S    
C28   C36   1.555567 S    
C90   C118  1.450288 S    
C41   C45   1.552930 S    
O40   Cu12  1.971883 S    
C9    N1    1.457123 S    
O4    C4    1.293214 A    
O37   C91   1.281489 A    
O67   C125  1.414268 S    
C70   H22   1.083653 S    
O45   C95   1.283954 A    
O46   C95   1.283953 A    
C69   H21   1.083650 S    
C12   C40   1.526747 S    
O11   C7    1.295466 A    
C121  C122  1.520784 S    
O21   C83   1.296607 A    
C23   C55   1.206028 T    
C100  C102  1.390369 A    
C111  C120  1.400055 A    
O12   C8    1.295464 A    
O14   C6    1.295597 A    
C126  H57   1.110708 S    
C99   C101  1.390368 A    
O1    Cu1   1.970316 S    
C111  H39   1.083499 S    
O9    Cu1   1.944711 S    
O20   C82   1.292673 A    
C27   C35   1.555565 S    
N4    O56   1.300256 A    
O35   Cu11  1.966686 S    
C5    C17   1.435774 S    
O26   Cu5   1.946490 S    
C110  C116  1.390467 A    
N2    O51   1.300219 A    
C44   H12   1.110074 S    
C33   H13   1.110058 S    
O27   Cu8   1.946492 S    
N1    O49   1.300224 A    
C103  H35   1.083506 S    
H7    C47   1.110064 S    
C127  H61   1.111316 S    
C15   C31   1.541174 S    
N8    O64   1.301077 A    
O25   Cu6   1.946492 S    
O40   C94   1.281489 A    
C61   C65   1.409499 A    
H6    C46   1.110066 S    
C87   C119  1.450438 S    
C34   C38   1.542400 S    
O44   Cu11  1.969776 S    
C25   H17   1.110113 S    
O13   Cu3   1.944398 S    
C29   C49   1.466622 S    
C116  C118  1.400039 A    
C16   H4    1.110122 S    
O1    C1    1.293215 A    
C27   H19   1.110111 S    
C57   C77   1.412361 A    
C114  H42   1.083521 S    
C37   C45   1.542431 S    
C31   C51   1.466622 S    
C104  H36   1.083507 S    
C122  H48   1.110460 S    
C126  H58   1.110463 S    
C113  H41   1.083518 S    
O15   C7    1.295604 A    
C30   C42   1.540507 S    
O11   Cu2   1.944711 S    
C59   C79   1.412371 A    
C26   C34   1.555556 S    
C121  H45   1.115279 S    
C58   C62   1.406306 A    
C102  C105  1.399980 A    
O18   Cu6   1.966980 S    
C99   C108  1.400075 A    
C109  C119  1.400053 A    
C1    C77   1.453657 S    
O7    Cu4   1.969239 S    
C68   C72   1.396931 A    
C68   C94   1.454385 S    
C96   C106  1.450008 S    
O36   C90   1.282640 A    
O32   C88   1.293942 A    
C98   H30   1.083502 S    
C18   C50   1.205934 T    
Cu5   O29   1.967232 S    
C35   C39   1.542403 S    
O5    C1    1.291743 A    
C114  C117  1.400037 A    
C115  H43   1.083516 S    
C124  H54   1.110773 S    
C116  H44   1.083519 S    
C110  H38   1.083500 S    
C8    C20   1.435770 S    
C37   C53   1.467768 S    
O6    Cu3   1.969234 S    
N3    O53   1.300229 A    
O30   C87   1.293942 A    
C109  H37   1.083502 S    
C110  C119  1.400060 A    
O8    C4    1.291742 A    
N6    O60   1.301076 A    
O68   C127  1.414272 S    
O35   C90   1.282636 A    
O9    C5    1.295460 A    
C13   C29   1.541173 S    
N3    O54   1.300257 A    
Cu12  O48   1.966700 S    
C40   C48   1.542432 S    
C29   C41   1.540499 S    
O31   C88   1.293944 A    
C11   N3    1.457113 S    
O15   Cu4   1.944398 S    
O36   Cu12  1.966691 S    
O22   Cu6   1.943169 S    
C125  H56   1.111315 S    
C99   H31   1.083504 S    
C14   C46   1.555437 S    
C26   H18   1.110115 S    
C43   H11   1.110079 S    
C3    C79   1.453672 S    
C10   C38   1.526750 S    
C58   C78   1.412371 A    
C13   C45   1.555422 S    
O23   Cu7   1.943173 S    
O33   Cu9   1.966686 S    
O17   C81   1.292678 A    
O21   Cu5   1.943173 S    
N5    O58   1.301080 A    
C126  H59   1.110774 S    
Cu9   O45   1.966708 S    
Cu1   Cu3   2.681083 S    
O8    Cu4   1.969234 S    
C128  H62   1.110710 S    
C9    C37   1.526746 S    
O19   Cu7   1.966982 S    
O18   C81   1.292674 A    
C39   C47   1.542435 S    
N4    O55   1.300221 A    
C36   H16   1.110059 S    
C104  C106  1.399982 A    
C42   H10   1.110076 S    
O16   Cu4   1.944401 S    
O33   C89   1.282636 A    
O43   Cu12  1.969771 S    
C64   C68   1.409502 A    
C41   H9    1.110074 S    
C22   C54   1.206029 T    
C72   C76   1.385976 A    
C26   C30   1.541208 S    
O47   C96   1.283951 A    
O34   Cu10  1.966691 S    
C28   H20   1.110115 S    
O38   C92   1.281489 A    
C65   C69   1.396930 A    
N8    O63   1.301215 A    
C10   C14   1.536102 S    
C20   C52   1.205939 T    
C112  C114  1.390467 A    
C65   C91   1.454378 S    
C6    C18   1.435766 S    
C60   C80   1.412356 A    
C67   C71   1.396924 A    
O3    Cu2   1.970316 S    
C61   O65   1.385255 S    
O14   Cu3   1.944401 S    
O26   C84   1.297251 A    
C95   C105  1.450008 S    
C30   C50   1.466619 S    
C16   C32   1.541173 S    
C125  C126  1.520788 S    
C25   C29   1.541217 S    
O6    C2    1.291743 A    
C122  H49   1.110776 S    
O4    Cu2   1.970315 S    
C69   C73   1.385976 A    
C12   C16   1.536105 S    
C82   C108  1.450435 S    
C4    C80   1.453648 S    
O44   C94   1.286017 A    
C75   H27   1.083763 S    
C112  C120  1.400059 A    
C67   C93   1.454361 S    
C64   O68   1.385255 S    
O38   Cu10  1.971883 S    
Cu2   Cu4   2.681083 S    
O29   C87   1.293944 A    
C62   O66   1.385258 S    
O41   C91   1.286018 A    
C100  H32   1.083503 S    
C63   C67   1.409484 A    
C113  C117  1.400039 A    
O10   C6    1.295470 A    
C7    C19   1.435770 S    
C24   C56   1.206031 T    
C123  H50   1.115281 S    
O23   C85   1.296607 A    
Cu9   Cu10  2.650485 S    
Cu6   O30   1.967231 S    
Cu7   Cu8   2.684340 S    
C2    C78   1.453672 S    
O43   C93   1.286008 A    
C97   C107  1.400077 A    
C76   C80   1.398473 A    
C124  H52   1.110707 S    
C9    C25   1.536178 S    
O24   C86   1.296613 A    
Cu11  O47   1.966708 S    
C15   H3    1.110122 S    
C34   H14   1.110061 S    
C112  H40   1.083498 S    
O27   C85   1.297246 A    
N1    O50   1.300259 A    
C10   N2    1.457126 S    
C100  C108  1.400075 A    
C13   H1    1.110118 S    
C62   C66   1.409487 A    
O2    Cu1   1.970315 S    
C11   C15   1.536108 S    
C33   C41   1.553003 S    
C63   O67   1.385258 S    
O10   Cu1   1.944702 S    
C59   N7    1.437351 S    
C76   H28   1.083763 S    
O48   C96   1.283956 A    
O17   Cu5   1.966979 S    
C98   C107  1.400078 A    
C60   N8    1.437357 S    
C125  H55   1.115283 S    
C11   C39   1.526747 S    
H5    C45   1.110067 S    
C21   C83   1.435831 S    
C123  C124  1.520788 S    
C33   C37   1.542400 S    
O42   C92   1.286006 A    
C28   C32   1.541215 S    
C109  C115  1.390467 A    
O22   C84   1.296610 A    
Cu11  Cu12  2.650485 S    
Cu8   O32   1.967228 S    
C128  H64   1.110775 S    
C35   H15   1.110061 S    
C66   C92   1.454365 S    
C14   C30   1.541171 S    
C32   C44   1.540503 S    
C88   C120  1.450438 S    
C71   H23   1.083651 S    
C74   C78   1.398477 A    
C11   C27   1.536172 S    
C14   H2    1.110119 S    
N5    O57   1.301212 A    
C73   C77   1.398474 A    
C121  H46   1.111317 S    
C35   C43   1.553015 S    
C12   C28   1.536170 S    
C57   C61   1.406305 A    
C38   C54   1.467773 S    
C36   C44   1.553010 S    
C31   C43   1.540509 S    
O41   Cu10  1.969771 S    
C43   C47   1.552945 S    
O13   C5    1.295606 A    
