data_mof_unit_23251.cif
_audit_creation_date              2012-12-11T15:52:15-0500
_audit_creation_method            fapswitch 2.2
_symmetry_space_group_name_H-M    P1
_symmetry_Int_Tables_number       1
_space_group_crystal_system       triclinic
_cell_length_a                    11.065387
_cell_length_b                    11.054043
_cell_length_c                    18.80886
_cell_angle_alpha                 90.104473
_cell_angle_beta                  90.22837
_cell_angle_gamma                 119.530317
_cell_volume                      2001.74774193

loop_
_atom_site_label
_atom_site_type_symbol
_atom_type_description
_atom_site_fract_x
_atom_site_fract_y
_atom_site_fract_z
_atom_type_partial_charge
C1    C     C_R   0.517295 0.456925 0.148043 0.540307
C2    C     C_R   0.576298 0.121203 0.139871 0.549072
C3    C     C_R   0.937884 0.480574 0.147338 0.541751
C4    C     C_R   0.423677 0.545546 0.860080 0.560118
C5    C     C_R   0.074672 0.550497 0.855615 0.561687
C6    C     C_R   0.480082 0.936701 0.852623 0.536165
C7    C     C_3   0.716477 0.966819 0.541691 -0.266809
C8    C     C_3   0.036911 0.749794 0.540477 -0.268092
C9    C     C_3   0.251942 0.283304 0.532125 -0.266627
C10   C     C_3   0.022871 0.739928 0.460585 -0.276887
C11   C     C_3   0.719678 0.977729 0.461645 -0.275831
C12   C     C_3   0.256881 0.281046 0.451942 -0.266425
C13   C     C_R   0.519496 0.457561 0.353500 0.552455
C14   C     C_R   0.546192 0.067482 0.355451 0.553624
C15   C     C_R   0.930136 0.477113 0.356202 0.546754
C16   C     C_R   0.454676 0.520171 0.645260 0.556238
C17   C     C_R   0.059160 0.542036 0.647212 0.550911
C18   C     C_R   0.481709 0.939684 0.646898 0.546453
C19   C     C_R   0.508222 0.000458 0.922152 0.050044
C20   C     C_R   0.045188 0.532244 0.930639 0.057922
C21   C     C_R   0.443802 0.538678 0.936877 0.036486
C22   C     C_R   0.006824 0.510231 0.078397 0.043499
C23   C     C_R   0.550596 0.081908 0.065230 0.032107
C24   C     C_R   0.479653 0.501192 0.082500 0.030707
C25   C     C_R   0.435950 0.061660 0.951944 0.064188
C26   C     C_R   0.050653 0.426327 0.967767 -0.056055
C27   C     C_R   0.558148 0.641682 0.975510 -0.027805
C28   C     C_R   0.030111 0.413948 0.041126 -0.007018
C29   C     C_R   0.458211 0.104216 0.023284 -0.000990
C30   C     C_R   0.576268 0.615190 0.045379 0.026609
C31   C     C_R   0.621055 0.020506 0.034045 -0.121408
C32   C     C_R   0.016596 0.624166 0.040909 -0.105323
C33   C     C_R   0.352732 0.414576 0.048352 -0.135899
C34   C     C_R   0.030669 0.632680 0.968296 -0.122540
C35   C     C_R   0.602541 0.983379 0.964143 -0.119661
C36   C     C_R   0.337613 0.429811 0.975780 -0.122606
C37   C     C_3   0.282422 0.995428 0.958380 -0.081611
C38   C     C_3   0.959618 0.274939 0.954491 -0.080502
C39   C     C_3   0.714747 0.712631 0.966097 -0.090027
C40   C     C_3   0.933536 0.261863 0.034501 -0.071967
C41   C     C_3   0.305737 0.044302 0.035436 -0.085174
C42   C     C_3   0.728191 0.678170 0.043833 -0.087058
C43   C     C_R   0.510492 0.010956 0.579038 0.022012
C44   C     C_R   0.984491 0.499051 0.580037 0.020421
C45   C     C_R   0.478196 0.507776 0.570702 0.020682
C46   C     C_R   0.957784 0.484494 0.431855 0.019921
C47   C     C_R   0.523532 0.034476 0.430464 0.018234
C48   C     C_R   0.497915 0.502606 0.422309 0.019132
C49   C     C_R   0.631898 0.039400 0.542523 0.030422
C50   C     C_R   0.958762 0.593727 0.542692 0.023586
C51   C     C_R   0.360614 0.432683 0.528127 0.039601
C52   C     C_R   0.946752 0.586301 0.470232 0.033053
C53   C     C_R   0.636949 0.049950 0.469998 0.037391
C54   C     C_R   0.368844 0.430611 0.455504 0.022491
C55   C     C_R   0.410690 0.029670 0.467159 -0.167639
C56   C     C_R   0.955169 0.373378 0.469632 -0.154104
C57   C     C_R   0.614100 0.595234 0.463499 -0.165724
C58   C     C_R   0.966828 0.379931 0.544041 -0.154348
C59   C     C_R   0.405761 0.021212 0.541609 -0.169364
C60   C     C_R   0.604550 0.596904 0.537620 -0.172872
Cr1   Cr    Cr6+3 0.769160 0.541570 0.250690 1.047150
Cr2   Cr    Cr6+3 0.458430 0.227590 0.250690 1.061038
Cr3   Cr    Cr6+3 0.772410 0.230840 0.250690 1.082589
Cr4   Cr    Cr6+3 0.541570 0.769160 0.749310 1.056435
Cr5   Cr    Cr6+3 0.227590 0.458430 0.749310 1.058778
Cr6   Cr    Cr6+3 0.230840 0.772410 0.749310 1.041593
H1    H     H_    0.697491 0.007526 0.062442 0.206047
H2    H     H_    0.001582 0.702528 0.066325 0.205530
H3    H     H_    0.270959 0.326344 0.075410 0.172619
H4    H     H_    0.024614 0.715868 0.941590 0.179896
H5    H     H_    0.663214 0.940656 0.942936 0.153176
H6    H     H_    0.246127 0.351112 0.949320 0.162381
H7    H     H_    0.235734 0.882436 0.950651 0.119152
H8    H     H_    0.019075 0.226328 0.933603 0.160621
H9    H     H_    0.766416 0.825872 0.956898 0.150561
H10   H     H_    0.830547 0.242068 0.051304 0.118151
H11   H     H_    0.280812 0.127572 0.047396 0.125174
H12   H     H_    0.759781 0.597887 0.050554 0.134798
H13   H     H_    0.324742 0.026895 0.438384 0.119380
H14   H     H_    0.949034 0.285030 0.441799 0.125553
H15   H     H_    0.714754 0.656544 0.439400 0.138547
H16   H     H_    0.972818 0.298374 0.572560 0.121091
H17   H     H_    0.315548 0.010949 0.568988 0.119543
H18   H     H_    0.696035 0.663833 0.568865 0.125454
H19   H     H_    0.657793 0.857698 0.559807 0.171403
H20   H     H_    0.146077 0.793262 0.557898 0.168323
H21   H     H_    0.152218 0.267812 0.552972 0.139718
H22   H     H_    0.956210 0.780591 0.439283 0.136943
H23   H     H_    0.825297 0.046047 0.440413 0.135461
H24   H     H_    0.292229 0.209529 0.432315 0.163873
H25   H     H_    0.820244 0.030155 0.566918 0.130346
H26   H     H_    0.978715 0.796558 0.565676 0.133078
H27   H     H_    0.290752 0.218647 0.558002 0.141784
H28   H     H_    0.123466 0.777219 0.432730 0.141845
H29   H     H_    0.660334 0.875581 0.434237 0.147563
H30   H     H_    0.160790 0.268139 0.426074 0.133783
O1    O     O_R   0.911480 0.572650 0.170990 -0.500490
O2    O     O_R   0.427350 0.338830 0.170990 -0.514035
O3    O     O_R   0.661170 0.088520 0.170990 -0.472677
O4    O     O_R   0.572650 0.911480 0.829010 -0.510531
O5    O     O_R   0.338830 0.427350 0.829010 -0.460156
O6    O     O_R   0.088520 0.661170 0.829010 -0.522644
O7    O     O_R   0.640340 0.528970 0.175680 -0.488148
O8    O     O_R   0.471030 0.111370 0.175680 -0.459158
O9    O     O_R   0.888630 0.359660 0.175680 -0.488762
O10   O     O_R   0.528970 0.640340 0.824320 -0.472212
O11   O     O_R   0.111370 0.471030 0.824320 -0.506678
O12   O     O_R   0.359660 0.888630 0.824320 -0.502760
O13   O     O_R   0.909980 0.572450 0.331530 -0.518850
O14   O     O_R   0.427550 0.337530 0.331530 -0.519035
O15   O     O_R   0.662470 0.090020 0.331530 -0.507869
O16   O     O_R   0.572450 0.909980 0.668470 -0.520536
O17   O     O_R   0.337530 0.427550 0.668470 -0.507506
O18   O     O_R   0.090020 0.662470 0.668470 -0.523496
O19   O     O_R   0.638950 0.528780 0.324500 -0.505051
O20   O     O_R   0.471220 0.110170 0.324500 -0.503319
O21   O     O_R   0.889830 0.361050 0.324500 -0.502634
O22   O     O_R   0.528780 0.638950 0.675500 -0.503258
O23   O     O_R   0.110170 0.471220 0.675500 -0.499993
O24   O     O_R   0.361050 0.889830 0.675500 -0.504430
O25   O     O_3   0.666667 0.333333 0.250560 -0.301377
O26   O     O_3   0.333333 0.666667 0.749440 -0.300522
C61   C     C_2   0.218216 0.058926 0.911464 0.570707
O27   O     O_2   0.290794 0.160428 0.874918 -0.477389
O28   O     O_R   0.073702 0.995986 0.907405 -0.659887
H31   H     H_    0.041355 0.043466 0.872170 0.354033
C62   C     C_2   0.838299 0.246562 0.907047 0.557548
O29   O     O_2   0.756772 0.286000 0.924039 -0.481917
O30   O     O_R   0.825881 0.183546 0.840956 -0.681014
H32   H     H_    0.748319 0.180808 0.810909 0.349794
C63   C     C_2   0.755336 0.639866 0.911265 0.580106
O31   O     O_2   0.715794 0.515625 0.916320 -0.464668
O32   O     O_R   0.833290 0.714547 0.852618 -0.658748
H33   H     H_    0.847334 0.653566 0.817119 0.352690
C64   C     C_2   0.985371 0.177040 0.072834 0.539080
O33   O     O_2   0.003844 0.189210 0.137168 -0.482040
O34   O     O_R   0.009602 0.082511 0.035108 -0.708208
H34   H     H_    0.049246 0.036175 0.066179 0.373523
C65   C     C_2   0.251995 0.929552 0.089986 0.574528
O35   O     O_2   0.277667 0.834134 0.084640 -0.522446
O36   O     O_R   0.186868 0.941520 0.150790 -0.670058
H35   H     H_    0.163104 0.863195 0.185683 0.353128
C66   C     C_2   0.789217 0.792445 0.099543 0.592447
O37   O     O_2   0.721788 0.843816 0.122858 -0.502909
O38   O     O_R   0.912356 0.822058 0.133671 -0.685948
H36   H     H_    0.935152 0.889535 0.174800 0.360723

loop_
_geom_bond_atom_site_label_1
_geom_bond_atom_site_label_2
_ccdc_geom_bond_type
C49   C53   A    
C45   C60   A    
C55   C59   A    
C60   H18   S    
Cr6   O6    S    
C9    C51   S    
Cr5   O5    S    
Cr1   O13   S    
C16   O17   A    
C38   C62   S    
C61   O27   D    
C5    C20   S    
C7    H19   S    
C3    O9    A    
C31   H1    S    
C6    C19   S    
C10   H22   S    
C22   C32   A    
C23   C29   A    
C12   H24   S    
Cr1   O7    S    
C18   O16   A    
C10   H28   S    
C58   H16   S    
C41   H11   S    
Cr3   O21   S    
C14   O20   A    
Cr4   O16   S    
C28   C40   S    
C11   H29   S    
C66   O37   D    
C46   C52   A    
C33   C36   A    
Cr4   O22   S    
Cr1   O25   S    
C37   C61   S    
C3    O1    A    
Cr3   O3    S    
C25   C37   S    
Cr2   O2    S    
C18   O24   A    
C66   O38   S    
C36   H6    S    
C44   C58   A    
Cr1   O19   S    
C50   C52   A    
Cr6   O26   S    
C8    H26   S    
C39   H9    S    
Cr3   O9    S    
C1    O7    A    
C11   C53   S    
C43   C59   A    
C47   C53   A    
C20   C34   A    
C21   C27   A    
C35   H5    S    
C22   C28   A    
C27   C30   A    
C37   C41   S    
Cr3   O25   S    
C17   O18   A    
O38   H36   S    
C39   C42   S    
Cr2   O8    S    
C56   C58   A    
C25   C29   A    
C14   O15   A    
C40   C64   S    
Cr1   O1    S    
C64   O33   D    
C7    C49   S    
C27   C39   S    
C21   C36   A    
C34   H4    S    
C43   C49   A    
C57   C60   A    
C4    O10   A    
C40   H10   S    
C32   C34   A    
C1    O2    A    
C48   C54   A    
C62   O30   S    
Cr2   O20   S    
C13   O14   A    
C59   H17   S    
C16   O22   A    
C55   H13   S    
C10   C52   S    
C11   H23   S    
C7    C11   S    
Cr2   O14   S    
C2    O8    A    
C7    H25   S    
C4    O5    A    
Cr5   O23   S    
Cr5   O26   S    
C13   O19   A    
C12   H30   S    
C2    O3    A    
C42   H12   S    
C15   O13   A    
O32   H33   S    
C31   C35   A    
C62   O29   D    
C9    H27   S    
C42   C66   S    
C47   C55   A    
O30   H32   S    
C5    O11   A    
C44   C50   A    
C64   O34   S    
C37   H7    S    
C5    O6    A    
C6    O12   A    
Cr6   O18   S    
C29   C41   S    
Cr5   O17   S    
C26   C38   S    
Cr6   O12   S    
C63   O32   S    
C16   C45   S    
C13   C48   S    
C65   O35   D    
Cr4   O10   S    
C14   C47   S    
C6    O4    A    
C33   H3    S    
O34   H34   S    
C26   C28   A    
C24   C33   A    
C56   H14   S    
C32   H2    S    
C51   C54   A    
C17   C44   S    
C19   C35   A    
C18   C43   S    
C9    H21   S    
C38   C40   S    
C4    C21   S    
C65   O36   S    
O28   H31   S    
C20   C26   A    
Cr4   O26   S    
C38   H8    S    
C8    C50   S    
C8    H20   S    
Cr3   O15   S    
C19   C25   A    
C57   H15   S    
C24   C30   A    
C39   C63   S    
C41   C65   S    
C61   O28   S    
C9    C12   S    
C17   O23   A    
C15   O21   A    
Cr4   O4    S    
C48   C57   A    
C1    C24   S    
C8    C10   S    
C46   C56   A    
C2    C23   S    
C45   C51   A    
C30   C42   S    
C3    C22   S    
Cr6   O24   S    
C15   C46   S    
O36   H35   S    
Cr5   O11   S    
Cr2   O25   S    
C12   C54   S    
C63   O31   D    
C23   C31   A    
