data_mof_unit_25529.cif
_audit_creation_date              2013-03-05T15:41:04-0500
_audit_creation_method            fapswitch 2.2
_symmetry_space_group_name_H-M    P1
_symmetry_Int_Tables_number       1
_space_group_crystal_system       triclinic
_cell_length_a                    11.010169
_cell_length_b                    10.916578
_cell_length_c                    18.751272
_cell_angle_alpha                 89.896157
_cell_angle_beta                  89.407828
_cell_angle_gamma                 60.249171
_cell_volume                      1956.59290113

loop_
_atom_site_label
_atom_site_type_symbol
_atom_site_description
_atom_site_fract_x
_atom_site_fract_y
_atom_site_fract_z
_atom_type_partial_charge
O1    O     O_R   0.507110 0.256280 0.580300 -0.469696
O2    O     O_R   0.280830 0.527190 0.577940 -0.421615
C1    C     C_R   0.241181 0.641499 0.610513 0.605479
O3    O     O_R   0.261360 0.738990 0.584270 -0.476235
O4    O     O_R   0.532590 0.694780 0.574370 -0.525819
C2    C     C_R   0.656978 0.627671 0.598171 0.559907
O5    O     O_R   0.744470 0.503750 0.577000 -0.430736
O6    O     O_R   0.698520 0.277230 0.571620 -0.448086
C3    C     C_R   0.629687 0.223976 0.600692 0.586950
O7    O     O_R   0.498530 0.256920 0.419280 -0.529699
O8    O     O_R   0.272880 0.527780 0.428680 -0.476320
C4    C     C_R   0.302131 0.614069 0.395385 0.574659
O9    O     O_R   0.252780 0.739630 0.423250 -0.449986
O10   O     O_R   0.524640 0.695370 0.425100 -0.518813
C5    C     C_R   0.646594 0.628098 0.397042 0.542607
O11   O     O_R   0.735890 0.504390 0.415980 -0.498866
O12   O     O_R   0.690560 0.277820 0.422350 -0.486779
C6    C     C_R   0.619942 0.223936 0.397239 0.535761
Cr1   Cr    Cr6+3 0.393010 0.398050 0.501480 1.138447
Cr2   Cr    Cr6+3 0.398820 0.707980 0.501630 1.091800
Cr3   Cr    Cr6+3 0.708140 0.393940 0.496850 1.143847
O13   O     O_3   0.499990 0.499990 0.499980 -0.339339
C7    C     C_3   0.610471 0.831328 0.773629 -0.165119
H1    H     H_    0.673455 0.885546 0.773748 0.081407
C8    C     C_3   0.576881 0.813295 0.694992 -0.276792
H2    H     H_    0.465935 0.838980 0.689296 0.182483
H3    H     H_    0.591870 0.886858 0.659614 0.132647
H4    H     H_    0.914746 0.644865 0.788917 0.061016
H5    H     H_    0.828354 0.728517 0.681269 0.083105
C9    C     C_3   0.850848 0.597704 0.770678 0.081291
C10   C     C_3   0.618045 0.602466 0.797291 -0.210099
C11   C     C_3   0.701107 0.679285 0.810041 -0.027484
H6    H     H_    0.649643 0.509090 0.831430 0.233855
H7    H     H_    0.505552 0.672234 0.810947 0.134972
C12   C     C_3   0.675341 0.658068 0.672373 -0.024494
C13   C     C_3   0.826707 0.627951 0.689494 0.077254
C14   C     C_3   0.632816 0.564352 0.717828 -0.199491
H8    H     H_    0.530682 0.578695 0.699379 0.155150
H9    H     H_    0.713121 0.451284 0.710712 0.227241
C15   C     C_2   0.681430 0.144500 0.667696 -0.066044
C16   C     C_2   0.696466 0.169234 0.827930 0.176755
C17   C     C_2   0.806967 0.114334 0.780357 -0.094264
C18   C     C_2   0.793993 0.134058 0.701190 0.153874
H10   H     H_    0.611068 0.119814 0.696953 0.136663
C19   C     C_2   0.193538 0.647192 0.684978 -0.113745
C20   C     C_2   0.201283 0.657471 0.840993 -0.143798
C21   C     C_2   0.217223 0.542464 0.806125 -0.026409
C22   C     C_2   0.233306 0.528874 0.726519 0.185073
H11   H     H_    0.225948 0.730826 0.814619 0.118995
H12   H     H_    0.141599 0.751521 0.708817 0.080711
C23   C     C_2   0.679849 0.686786 0.335180 -0.109691
C24   C     C_2   0.715595 0.711978 0.181016 -0.124668
C25   C     C_2   0.821724 0.624306 0.224366 -0.045867
C26   C     C_2   0.799176 0.606195 0.299623 -0.130032
H13   H     H_    0.879913 0.509875 0.324095 0.179042
H14   H     H_    0.611088 0.778854 0.201669 0.104076
H15   H     H_    0.602252 0.788648 0.315612 0.119300
C27   C     C_2   0.667799 0.142066 0.332574 -0.062053
C28   C     C_2   0.698567 0.046791 0.186451 -0.106536
C29   C     C_2   0.593971 0.058611 0.228705 -0.066902
C30   C     C_2   0.594286 0.085300 0.305115 -0.141407
H16   H     H_    0.514020 0.080447 0.337331 0.169306
H17   H     H_    0.790046 0.042429 0.208643 0.182947
H18   H     H_    0.747641 0.151928 0.303363 0.154518
C31   C     C_2   0.294858 0.605506 0.319238 -0.133224
C32   C     C_2   0.194018 0.651692 0.169700 -0.039173
C33   C     C_2   0.187975 0.743735 0.219898 0.183127
C34   C     C_2   0.290348 0.703862 0.275402 -0.057773
H19   H     H_    0.264491 0.530393 0.300229 0.120433
O14   O     O_R   0.089190 0.825870 0.932320 -0.482468
O15   O     O_R   0.819070 0.053960 0.931440 -0.501566
C35   C     C_R   0.707003 0.097747 0.896251 0.560662
O16   O     O_R   0.607070 0.076440 0.916460 -0.467581
O17   O     O_R   0.647110 0.806550 0.917690 -0.507809
C36   C     C_R   0.724364 0.689060 0.887538 0.554380
O18   O     O_R   0.837080 0.593860 0.915300 -0.452072
O19   O     O_R   0.064770 0.636080 0.932550 -0.510624
C37   C     C_R   0.121450 0.704842 0.908229 0.538844
O20   O     O_R   0.068250 0.829200 0.092940 -0.470709
O21   O     O_R   0.799650 0.057040 0.080330 -0.457803
C38   C     C_R   0.704275 0.034824 0.109807 0.542202
O22   O     O_R   0.586130 0.079760 0.077080 -0.463307
O23   O     O_R   0.627700 0.809630 0.066580 -0.492996
C39   C     C_R   0.734967 0.718827 0.104324 0.536232
O24   O     O_R   0.816140 0.597180 0.075920 -0.467461
O25   O     O_R   0.045360 0.639170 0.081440 -0.508806
C40   C     C_R   0.095051 0.708875 0.112370 0.543969
Cr4   Cr    Cr6+3 0.937950 0.938450 0.008940 1.113186
Cr5   Cr    Cr6+3 0.626180 0.937030 0.994750 1.094289
Cr6   Cr    Cr6+3 0.937790 0.625760 0.001410 1.096720
O26   O     O_3   0.833980 0.833750 0.001700 -0.350236
N1    N     N_R   0.931780 0.443953 0.786063 0.113009
O27   O     O_R   0.059705 0.370178 0.763125 -0.227226
O28   O     O_R   0.887563 0.381751 0.829811 -0.316399
N2    N     N_R   0.937688 0.527178 0.641597 0.115428
O29   O     O_R   0.981990 0.576560 0.590516 -0.320932
O30   O     O_R   0.970327 0.395368 0.638671 -0.163137
C41   C     C_1   0.948711 0.046362 0.806427 0.291104
N3    N     N_1   0.062858 0.997864 0.825458 -0.198669
N4    N     N_R   0.911667 0.120050 0.659579 0.092047
O31   O     O_R   0.996687 0.157970 0.686010 -0.215675
O32   O     O_R   0.947726 0.046890 0.600652 -0.310998
N5    N     N_R   0.572378 0.303453 0.818010 0.076861
O33   O     O_R   0.547282 0.370042 0.757961 -0.414601
O34   O     O_R   0.502900 0.373990 0.874270 -0.348785
C42   C     C_1   0.226369 0.425525 0.847815 0.437016
N6    N     N_1   0.234769 0.332850 0.881685 -0.146072
N7    N     N_R   0.287404 0.388263 0.696071 0.136596
O35   O     O_R   0.372195 0.277521 0.732373 -0.306562
O36   O     O_R   0.225535 0.367106 0.642881 -0.193470
C43   C     C_1   0.475967 0.927098 0.809980 0.275610
N8    N     N_1   0.370682 0.001923 0.838160 -0.165528
C44   C     C_1   0.959159 0.520302 0.198157 0.263309
N9    N     N_1   0.068602 0.434044 0.178566 -0.229413
C45   C     C_1   0.470514 0.060385 0.201301 0.259682
N10   N     N_1   0.371682 0.062243 0.179435 -0.199103
N11   N     N_R   0.062314 0.876427 0.231374 0.068459
O37   O     O_R   0.982334 0.886444 0.285205 -0.370189
O38   O     O_R   0.054957 0.991037 0.206139 -0.295446
C46   C     C_1   0.321915 0.812205 0.297421 0.309446
N12   N     N_1   0.342311 0.901968 0.314822 -0.266149
C47   C     C_1   0.312982 0.510920 0.161259 0.180989
N13   N     N_1   0.408042 0.398616 0.154475 -0.235894

loop_
_geom_bond_atom_site_label_1
_geom_bond_atom_site_label_2
_geom_bond_distance
_ccdc_geom_bond_type
O11   Cr3   2.048434 S    
O14   C37   1.268434 A    
C16   C17   1.375132 D    
N2    O29   1.302096 A    
O14   Cr4   2.067197 S    
C11   C36   1.491319 S    
O20   C40   1.249401 A    
C38   O22   1.300553 A    
O4    Cr2   1.969917 S    
O19   C37   1.272272 A    
C2    C12   1.470039 S    
C20   H11   1.082212 S    
O8    Cr1   1.946747 S    
O22   Cr5   2.078041 S    
O23   C39   1.315749 A    
O17   Cr5   1.960807 S    
C12   C14   1.567267 S    
N11   O38   1.301498 A    
O4    C2    1.275622 A    
C42   N6    1.158216 T    
C5    O11   1.266589 A    
N7    O35   1.298641 A    
C24   C39   1.458852 S    
N1    O27   1.296289 A    
C20   C21   1.347753 D    
C6    C27   1.438763 S    
C15   C18   1.348719 D    
C12   C13   1.566990 S    
O6    C3    1.279476 A    
C7    H1    1.112923 S    
C32   C47   1.449546 S    
C23   H15   1.078516 S    
C5    C23   1.453075 S    
Cr5   O26   1.992047 S    
O9    Cr2   2.088189 S    
C21   C42   1.456482 S    
C27   C30   1.346037 D    
C32   C33   1.354924 D    
C28   C29   1.343382 D    
Cr3   O13   1.990027 S    
N4    O32   1.302233 A    
O20   Cr4   2.074441 S    
C25   C44   1.449785 S    
O6    Cr3   1.929911 S    
C27   H18   1.080804 S    
O23   Cr5   1.928539 S    
O19   Cr6   1.937269 S    
O1    Cr1   2.063566 S    
O17   C36   1.264184 A    
C33   C34   1.441812 S    
O10   Cr2   1.941055 S    
Cr1   O13   1.981580 S    
O1    C3    1.276645 A    
C18   N4    1.446966 S    
C9    N1    1.487827 S    
O25   Cr6   1.971230 S    
C32   C40   1.441998 S    
C20   C37   1.468986 S    
O25   C40   1.279084 A    
C35   O16   1.285842 A    
C8    H2    1.115722 S    
O5    Cr3   2.085807 S    
C1    C19   1.476998 S    
C3    C15   1.475180 S    
O12   Cr3   1.962501 S    
C10   C14   1.532930 S    
C29   C30   1.463015 S    
C36   O18   1.273798 A    
C14   H8    1.114367 S    
C21   C22   1.500265 S    
H5    C13   1.117340 S    
Cr4   O26   1.984313 S    
O7    Cr1   2.072277 S    
O24   Cr6   2.053733 S    
C31   C34   1.332546 D    
N1    O28   1.299549 A    
O12   C6    1.278571 A    
C10   H7    1.112482 S    
N5    O34   1.301041 A    
C39   O24   1.288706 A    
C33   N11   1.436920 S    
C8    C12   1.548069 S    
C16   C35   1.474213 S    
Cr2   O13   1.971431 S    
C17   C18   1.497703 S    
C1    O3    1.286347 A    
C24   C25   1.359797 D    
C44   N9    1.157430 T    
C19   C22   1.381632 D    
C26   H13   1.088774 S    
C10   H6    1.104615 S    
C43   N8    1.157302 T    
O2    Cr1   1.952217 S    
O10   C5    1.275626 A    
C10   C11   1.537256 S    
C28   C38   1.441218 S    
O21   C38   1.306638 A    
O8    C4    1.294464 A    
N2    O30   1.299738 A    
C25   C26   1.460312 S    
C2    O5    1.271344 A    
C8    H3    1.113337 S    
C7    C43   1.481859 S    
C4    C31   1.436731 S    
C28   H17   1.072794 S    
C9    C13   1.554505 S    
C23   C26   1.334740 D    
C7    C11   1.607188 S    
C17   C41   1.445786 S    
O2    C1    1.255949 A    
O16   Cr5   2.048415 S    
O15   C35   1.271476 A    
O21   Cr4   1.947903 S    
N11   O37   1.301059 A    
C34   C46   1.450122 S    
C9    C11   1.605021 S    
C13   N2    1.468587 S    
Cr6   O26   1.971316 S    
C22   N7    1.457978 S    
C19   H12   1.083587 S    
O7    C6    1.264448 A    
C31   H19   1.089415 S    
H4    C9    1.114474 S    
N4    O31   1.299297 A    
N7    O36   1.297357 A    
C7    C8    1.560251 S    
C30   H16   1.088128 S    
O15   Cr4   1.951858 S    
O3    Cr2   2.061887 S    
C16   N5    1.437214 S    
C15   H10   1.082426 S    
C4    O9    1.305609 A    
C14   H9    1.112717 S    
C41   N3    1.155574 T    
N5    O33   1.294881 A    
C46   N12   1.156794 T    
C29   C45   1.449261 S    
C45   N10   1.157527 T    
C47   N13   1.157137 T    
C24   H14   1.079377 S    
O18   Cr6   2.092898 S    
