data_mof_unit_46718.cif
_audit_creation_date              2012-12-11T16:31:32-0500
_audit_creation_method            fapswitch 2.2
_symmetry_space_group_name_H-M    P1
_symmetry_Int_Tables_number       1
_space_group_crystal_system       triclinic
_cell_length_a                    7.009984
_cell_length_b                    18.684362
_cell_length_c                    19.793903
_cell_angle_alpha                 68.387007
_cell_angle_beta                  88.018213
_cell_angle_gamma                 88.728206
_cell_volume                      2408.70685515

loop_
_atom_site_label
_atom_site_type_symbol
_atom_type_description
_atom_site_fract_x
_atom_site_fract_y
_atom_site_fract_z
_atom_type_partial_charge
O1    O     O_R   0.488990 0.443920 0.942160 -0.532000
O2    O     O_R   0.823840 0.406530 0.087600 -0.534425
O3    O     O_R   0.999650 0.556080 0.057840 -0.537486
C1    C     C_R   0.653885 0.383640 0.114941 0.689831
O4    O     O_R   0.818390 0.434590 0.944530 -0.533011
O5    O     O_R   0.994160 0.584350 0.913750 -0.537579
C2    C     C_R   0.655317 0.424684 0.920559 0.705220
O6    O     O_R   0.494480 0.415650 0.086250 -0.539023
O7    O     O_3   0.662600 0.549100 0.990070 -0.368291
V1    V     V_3+5 0.935320 0.490890 0.001840 1.502202
O8    O     O_R   0.324240 0.593470 0.912400 -0.539394
C3    C     C_R   0.157529 0.610991 0.881843 0.678816
O9    O     O_R   0.329690 0.565410 0.055470 -0.525322
C4    C     C_R   0.158294 0.579639 0.075445 0.705892
V2    V     V_3+5 0.435990 0.509110 0.998160 1.493951
O10   O     O_3   0.158840 0.450900 0.009930 -0.365797
C5    C     C_3   0.012011 0.675233 0.270985 -0.455680
C6    C     C_3   0.348600 0.712499 0.234420 0.138693
C7    C     C_3   0.351838 0.767049 0.279170 0.457772
C8    C     C_1   0.123117 0.875515 0.378421 -0.097543
C9    C     C_3   0.146556 0.712698 0.203522 -0.084655
C10   C     C_3   0.006371 0.722181 0.321517 0.106856
C11   C     C_3   0.141426 0.793630 0.290703 -0.103844
C12   C     C_3   0.056685 0.842387 0.214733 0.099655
C13   C     C_3   0.075547 0.797317 0.161852 0.170496
C14   C     C_1   0.132586 0.838399 0.339402 0.165150
C15   C     C_1   0.143219 0.665673 0.156884 0.136510
C16   C     C_1   0.145600 0.626606 0.119581 -0.104297
H1    H     H_    0.901985 0.848464 0.223972 0.153173
C17   C     C_R   0.088080 0.758703 0.886220 -0.188267
C18   C     C_R   0.075626 0.829790 0.892030 -0.112074
C19   C     C_R   0.088427 0.895644 0.830246 0.376913
C20   C     C_R   0.097155 0.891845 0.760932 -0.200632
C21   C     C_R   0.107202 0.819666 0.753205 0.006207
C22   C     C_R   0.112332 0.752137 0.817597 0.076506
C23   C     C_R   0.120048 0.813611 0.683621 -0.144450
C24   C     C_R   0.153973 0.739939 0.679593 0.066273
C25   C     C_R   0.169231 0.673096 0.744494 0.041335
C26   C     C_R   0.146743 0.679510 0.813390 -0.144091
C27   C     C_R   0.177096 0.731381 0.611715 -0.132331
C28   C     C_R   0.216151 0.659457 0.607861 -0.046778
C29   C     C_R   0.230614 0.594487 0.671079 -0.041309
C30   C     C_R   0.206801 0.600869 0.738820 -0.151675
H2    H     H_    0.084779 0.709317 0.936600 0.128511
H3    H     H_    0.103737 0.945126 0.714093 0.142277
H4    H     H_    0.219305 0.548828 0.786605 0.126124
C31   C     C_R   0.565584 0.231829 0.116960 -0.187413
C32   C     C_R   0.523160 0.159479 0.116279 0.347933
C33   C     C_R   0.520827 0.095381 0.180628 -0.068480
C34   C     C_R   0.556102 0.103255 0.246306 -0.203196
C35   C     C_R   0.593779 0.176189 0.249035 0.055243
C36   C     C_R   0.600980 0.241693 0.182935 0.024751
C37   C     C_R   0.623088 0.184471 0.316262 -0.135681
C38   C     C_R   0.655483 0.258480 0.317602 0.069391
C39   C     C_R   0.663079 0.324015 0.251547 0.017426
C40   C     C_R   0.640584 0.315389 0.183990 -0.131737
C41   C     C_R   0.676055 0.268923 0.384196 -0.191583
C42   C     C_R   0.698093 0.342099 0.385923 -0.116542
C43   C     C_R   0.701675 0.406308 0.321619 0.334057
C44   C     C_R   0.687095 0.397588 0.254950 -0.195535
H5    H     H_    0.490066 0.039193 0.179927 0.220887
H6    H     H_    0.551636 0.051650 0.294875 0.136217
H7    H     H_    0.709992 0.348881 0.437637 0.161579
O11   O     O_R   0.770890 0.084490 0.414040 -0.538788
O12   O     O_R   0.445980 0.065450 0.555510 -0.535084
O13   O     O_R   0.270670 0.915620 0.586180 -0.534401
C45   C     C_R   0.609747 0.082122 0.574185 0.707394
O14   O     O_R   0.441480 0.093500 0.412450 -0.538968
O15   O     O_R   0.266140 0.943870 0.442100 -0.536473
C46   C     C_R   0.611280 0.116241 0.385184 0.678754
O16   O     O_R   0.775410 0.056240 0.558120 -0.525517
O17   O     O_3   0.602660 0.950990 0.510100 -0.367656
V3    V     V_3+5 0.329740 0.009100 0.498130 1.496085
O18   O     O_R   0.936120 0.934420 0.444240 -0.532985
C47   C     C_R   0.107884 0.920693 0.424053 0.700260
O19   O     O_R   0.940610 0.906370 0.587310 -0.535300
C48   C     C_R   0.108850 0.883962 0.615515 0.685676
V4    V     V_3+5 0.829110 0.990690 0.501470 1.498129
O20   O     O_3   0.106080 0.049010 0.489880 -0.366917
C49   C     C_3   0.800264 0.269272 0.672355 0.043375
C50   C     C_3   0.456239 0.297273 0.674050 -0.410247
C51   C     C_3   0.489144 0.344700 0.723628 0.101916
C52   C     C_1   0.666884 0.388584 0.866794 -0.081917
C53   C     C_3   0.602526 0.228803 0.691731 -0.054707
C54   C     C_3   0.840307 0.317026 0.720763 0.088679
C55   C     C_3   0.665249 0.313836 0.772706 -0.077489
C56   C     C_3   0.637606 0.227796 0.822078 0.051908
C57   C     C_3   0.579493 0.179781 0.775937 0.492304
C58   C     C_1   0.679651 0.357927 0.822099 0.167781
C59   C     C_1   0.586958 0.178964 0.646890 0.150744
C60   C     C_1   0.599209 0.135122 0.613559 -0.083787
Br1   Br    Br    0.034441 0.655361 0.423146 -0.397115
H8    H     H_    0.865668 0.671150 0.253519 0.246278
H9    H     H_    0.858367 0.744142 0.322132 0.193973
Br2   Br    Br    0.118073 0.952486 0.173301 -0.344162
H10   H     H_    0.260936 0.538854 0.667613 0.185956
H11   H     H_    0.063775 0.833511 0.945222 0.196939
Br3   Br    Br    0.114642 0.988619 0.844306 -0.237554
H12   H     H_    0.167145 0.780132 0.561021 0.107653
H13   H     H_    0.236322 0.654146 0.555499 0.200604
H14   H     H_    0.060168 0.615146 0.301547 0.252022
Br4   Br    Br    0.719670 0.506614 0.325096 -0.503474
H15   H     H_    0.567541 0.280043 0.065583 0.127071
Br5   Br    Br    0.463029 0.148212 0.027425 -0.324056
H16   H     H_    0.671942 0.220913 0.435691 0.109004
H17   H     H_    0.690335 0.449105 0.206285 0.133526
Br6   Br    Br    0.907557 0.423034 0.659632 -0.492644
Br7   Br    Br    0.557364 0.724836 0.162555 -0.478411
H18   H     H_    0.797308 0.309574 0.614665 0.173850
H19   H     H_    0.307878 0.278077 0.680325 0.272818
H20   H     H_    0.472692 0.335686 0.615911 0.178829
H21   H     H_    0.514425 0.405427 0.687350 0.188123
Br8   Br    Br    0.266062 0.352177 0.782451 -0.535657
Br9   Br    Br    0.699170 0.078450 0.803698 -0.271396
Br10  Br    Br    0.315901 0.152370 0.803949 -0.279257
Br11  Br    Br    0.855820 0.186084 0.885419 -0.261235
Br12  Br    Br    0.007193 0.198953 0.669199 -0.486390
H22   H     H_    0.964499 0.290525 0.753219 0.248492
H23   H     H_    0.376268 0.652666 0.272703 0.172014
H24   H     H_    0.522157 0.225462 0.862731 0.209649
Br13  Br    Br    0.475642 0.712638 0.371508 -0.446652
Br14  Br    Br    0.514792 0.856582 0.233657 -0.446029
H25   H     H_    0.930972 0.794359 0.141858 0.162972
Br15  Br    Br    0.223651 0.851159 0.072388 -0.284237

loop_
_geom_bond_atom_site_label_1
_geom_bond_atom_site_label_2
_ccdc_geom_bond_type
C41   H16   S    
C56   C57   S    
C7    Br14  S    
C6    C9    S    
C20   H3    S    
C28   C29   A    
C2    C52   S    
C1    O6    A    
C27   H12   S    
C50   C51   S    
C41   C42   A    
C54   C55   S    
C49   C54   S    
C17   C22   A    
C29   H10   S    
C23   C24   A    
O19   V4    S    
C6    C7    S    
C24   C27   A    
C23   C48   S    
O5    C3    A    
C17   C18   A    
V2    O10   S    
C32   Br5   S    
O12   V3    S    
C21   C22   A    
C11   C14   S    
C5    H14   S    
C12   H1    S    
O17   V4    S    
C38   C39   A    
O8    V2    S    
C7    Br13  S    
C18   C19   A    
O12   C45   A    
C49   H18   S    
C11   C12   S    
O15   V3    S    
O1    V2    S    
O11   C46   A    
O7    V1    S    
C45   O16   A    
C49   C53   S    
C9    C15   S    
C43   C44   A    
O1    C2    A    
C39   C44   A    
C1    C40   S    
C57   Br9   S    
C10   H9    S    
C17   H2    S    
C53   C59   S    
C37   C46   S    
C30   H4    S    
C34   C35   A    
C52   C58   T    
C31   H15   S    
O18   C47   A    
C35   C36   A    
C50   H20   S    
C33   H5    S    
O19   C48   A    
C12   Br2   S    
O4    C2    A    
V4    O20   S    
C42   C43   A    
C51   C55   S    
O13   V3    S    
C5    C9    S    
C8    C47   S    
C35   C37   A    
C51   H21   S    
O2    C1    A    
C24   C25   A    
C31   C32   A    
C39   C40   A    
C45   C60   S    
C20   C21   A    
V3    O20   S    
C28   H13   S    
C12   C13   S    
C13   H25   S    
C56   Br11  S    
O3    C4    A    
C56   H24   S    
C27   C28   A    
O6    V2    S    
O9    V2    S    
C34   H6    S    
C5    H8    S    
C29   C30   A    
O2    V1    S    
C50   C53   S    
C44   H17   S    
C7    C11   S    
C42   H7    S    
O13   C48   A    
C9    C13   S    
C49   Br12  S    
C32   C33   A    
C55   C56   S    
C43   Br4   S    
O11   V4    S    
C53   C57   S    
C51   Br8   S    
O17   V3    S    
C55   C58   S    
O5    V1    S    
O8    C3    A    
C37   C38   A    
C31   C36   A    
C5    C10   S    
C19   C20   A    
C54   Br6   S    
C57   Br10  S    
O14   V3    S    
C25   C30   A    
O3    V1    S    
V1    O10   S    
C59   C60   T    
C25   C26   A    
C8    C14   T    
C3    C26   S    
C22   C26   A    
C19   Br3   S    
O15   C47   A    
C21   C23   A    
C18   H11   S    
O7    V2    S    
C54   H22   S    
C13   Br15  S    
C6    Br7   S    
O4    V1    S    
C50   H19   S    
O14   C46   A    
C33   C34   A    
O18   V4    S    
C15   C16   T    
C10   Br1   S    
C10   C11   S    
C4    C16   S    
O9    C4    A    
C6    H23   S    
O16   V4    S    
C36   C40   A    
C38   C41   A    
