data_mof_unit_45643.cif
_audit_creation_date              2012-12-10T20:31:54-0500
_audit_creation_method            fapswitch 2.2
_symmetry_space_group_name_H-M    P1
_symmetry_Int_Tables_number       1
_space_group_crystal_system       triclinic
_cell_length_a                    9.89351
_cell_length_b                    10.749876
_cell_length_c                    15.608513
_cell_angle_alpha                 91.392275
_cell_angle_beta                  69.673289
_cell_angle_gamma                 89.804397
_cell_volume                      1556.06913394

loop_
_atom_site_label
_atom_site_type_symbol
_atom_type_description
_atom_site_fract_x
_atom_site_fract_y
_atom_site_fract_z
_atom_type_partial_charge
C1    C     C_R   0.502099 0.739238 0.496038 0.935238
C2    C     C_R   0.408190 0.478228 0.913054 0.073332
C3    C     C_R   0.259225 0.480571 0.964520 0.148694
C4    C     C_R   0.507793 0.508872 0.956111 0.024051
C5    C     C_R   0.463394 0.507067 0.051897 0.076476
C6    C     C_R   0.314588 0.496063 0.103156 -0.220642
C7    C     C_R   0.213437 0.487248 0.059684 -0.237147
C8    C     C_R   0.645125 0.554689 0.906177 -0.331340
C9    C     C_R   0.740678 0.592662 0.949572 0.188669
C10   C     C_R   0.705864 0.571425 0.043041 0.140855
C11   C     C_R   0.568570 0.523127 0.093222 0.045887
C12   C     C_R   0.411109 0.491625 0.674682 0.874404
C13   C     C_R   0.805009 0.596429 0.087666 -0.222227
C14   C     C_R   0.770892 0.569337 0.179496 -0.224593
C15   C     C_R   0.540568 0.490153 0.183157 -0.254281
C16   C     C_R   0.378307 0.937002 0.539929 0.082779
C17   C     C_R   0.505157 0.871013 0.494499 -0.197188
C18   C     C_R   0.637919 0.932470 0.458442 0.124758
C19   C     C_R   0.640039 0.061663 0.469952 0.142486
C20   C     C_R   0.506521 0.127775 0.503207 -0.195607
C21   C     C_R   0.378648 0.063985 0.541625 0.084016
C22   C     C_3   0.238032 0.073881 0.526494 -0.465382
C23   C     C_R   0.501409 0.260056 0.499924 0.898231
C24   C     C_3   0.236882 0.932943 0.524817 -0.455801
C25   C     C_R   0.903287 0.589601 0.547728 0.197070
C26   C     C_R   0.958869 0.426321 0.440542 -0.166219
C27   C     C_R   0.104952 0.426616 0.438191 0.240389
C28   C     C_R   0.044791 0.588936 0.548206 0.185961
C29   C     C_3   0.996539 0.615519 0.647912 -0.522449
C30   C     C_3   0.843396 0.619295 0.647365 -0.515760
C31   C     C_R   0.588734 0.501444 0.325228 0.861178
C32   C     C_R   0.356799 0.474954 0.773696 -0.077348
C33   C     C_R   0.638161 0.516055 0.227058 -0.039614
C34   C     C_R   0.159640 0.478884 0.919117 -0.204983
C35   C     C_R   0.208740 0.485718 0.824178 -0.225930
C36   C     C_R   0.452118 0.446408 0.819612 0.095964
H1    H     H_    0.099691 0.486684 0.100453 0.145974
H2    H     H_    0.908276 0.637951 0.052397 0.169628
H3    H     H_    0.151784 0.116483 0.586472 0.203437
H4    H     H_    0.248381 0.113496 0.459431 0.208757
H5    H     H_    0.149845 0.894307 0.583912 0.195006
H6    H     H_    0.245802 0.891359 0.457069 0.208057
H7    H     H_    0.924985 0.366180 0.395615 0.185423
H8    H     H_    0.018028 0.535087 0.684751 0.201184
H9    H     H_    0.442588 0.442437 0.220104 0.177262
H10   H     H_    0.034181 0.706996 0.664815 0.201736
H11   H     H_    0.777016 0.543478 0.685501 0.203874
H12   H     H_    0.792625 0.713457 0.662634 0.198173
H13   H     H_    0.846339 0.592473 0.213614 0.158542
H14   H     H_    0.045094 0.479050 0.956665 0.158043
H15   H     H_    0.131251 0.496175 0.790314 0.156718
H16   H     H_    0.273036 0.504769 0.176808 0.163557
H17   H     H_    0.674193 0.570296 0.834221 0.162813
N1    N     N_R   0.856900 0.500860 0.500610 -0.127437
N2    N     N_R   0.142540 0.500820 0.500610 -0.144954
O1    O     O_R   0.385310 0.683210 0.499990 -0.618919
O2    O     O_R   0.614650 0.683240 0.500000 -0.585977
O3    O     O_R   0.319830 0.499970 0.632240 -0.619534
O4    O     O_R   0.549170 0.500000 0.632250 -0.622567
O5    O     O_R   0.385350 0.316760 0.500000 -0.651288
O6    O     O_R   0.614690 0.316790 0.500010 -0.587546
O7    O     O_R   0.450830 0.500000 0.367750 -0.625083
O8    O     O_R   0.680170 0.500030 0.367760 -0.619691
Zn1   Zn    Zn3+2 0.346870 0.499980 0.499990 0.931737
Zn2   Zn    Zn3+2 0.653130 0.500020 0.500010 0.942897
N3    N     N_2   0.762058 0.867025 0.398560 -0.291847
H18   H     H_    0.800016 0.898902 0.332753 0.205597
C37   C     C_3   0.874942 0.837349 0.434121 -0.717608
H19   H     H_    0.959531 0.909432 0.415498 0.213406
H20   H     H_    0.926173 0.747453 0.402913 0.234621
H21   H     H_    0.831169 0.828957 0.509568 0.242039
N4    N     N_2   0.774675 0.124112 0.445852 -0.276878
H22   H     H_    0.851451 0.094001 0.385249 0.214834
C38   C     C_3   0.830156 0.136825 0.520331 -0.748238
H23   H     H_    0.938204 0.179615 0.495729 0.223928
H24   H     H_    0.840370 0.045031 0.548510 0.226501
H25   H     H_    0.757567 0.196844 0.576382 0.263454
N5    N     N_2   0.212993 0.355232 0.368935 -0.294012
H26   H     H_    0.294402 0.318174 0.386485 0.278062
C39   C     C_3   0.176076 0.278873 0.302677 -0.921249
H27   H     H_    0.105763 0.201394 0.337057 0.246137
H28   H     H_    0.275973 0.238348 0.251694 0.253428
H29   H     H_    0.122411 0.335885 0.265133 0.256930
N6    N     N_2   0.872678 0.649333 0.898314 -0.322721
H30   H     H_    0.914874 0.615722 0.832090 0.230562
C40   C     C_3   0.867709 0.783837 0.902864 -0.795323
H31   H     H_    0.976544 0.820285 0.865162 0.238994
H32   H     H_    0.834235 0.818520 0.974939 0.249310
H33   H     H_    0.790947 0.819202 0.871088 0.242305
C41   C     C_3   0.571847 0.348701 0.780185 -0.430700
C42   C     C_3   0.509764 0.223438 0.765072 -0.850205
H34   H     H_    0.427302 0.193185 0.829675 0.265846
H35   H     H_    0.460028 0.229971 0.711539 0.251488
H36   H     H_    0.597261 0.152040 0.742342 0.240378
H37   H     H_    0.652940 0.375612 0.715022 0.224142
H38   H     H_    0.631364 0.332862 0.827632 0.213072

loop_
_geom_bond_atom_site_label_1
_geom_bond_atom_site_label_2
_ccdc_geom_bond_type
N3    C37   S    
O8    Zn2   S    
C16   C21   A    
C24   H6    S    
C19   C20   A    
C4    C8    A    
C27   N5    S    
C14   C33   A    
C41   H37   S    
N1    Zn2   S    
C25   C28   A    
C26   C27   A    
C38   H24   S    
C32   C36   A    
C30   H12   S    
C28   C29   S    
C1    O1    A    
N6    C40   S    
C5    C11   A    
C3    C7    A    
C5    C6    A    
C39   H27   S    
N5    C39   S    
C14   H13   S    
C2    C36   A    
C18   C19   A    
C34   C35   A    
O7    Zn1   S    
C37   H19   S    
C12   O4    A    
C11   C15   A    
C8    C9    A    
C38   H25   S    
O1    Zn1   S    
C9    C10   A    
N4    H22   S    
C12   O3    A    
N3    H18   S    
C16   C24   S    
C21   C22   S    
C12   C32   S    
C24   H5    S    
C31   O7    A    
C19   N4    S    
C39   H29   S    
C26   N1    A    
C28   N2    A    
C26   H7    S    
O3    Zn1   S    
C23   O5    A    
C34   H14   S    
C38   H23   S    
C32   C35   A    
C31   O8    A    
C30   H11   S    
C25   N1    A    
C39   H28   S    
C42   H34   S    
N5    H26   S    
C16   C17   A    
C3    C34   A    
C40   H33   S    
C2    C4    A    
C29   C30   S    
C1    O2    A    
C42   H35   S    
C20   C23   S    
C22   H4    S    
N2    Zn1   S    
C31   C33   S    
C17   C18   A    
C7    H1    S    
N6    H30   S    
C13   H2    S    
N4    C38   S    
C29   H8    S    
C35   H15   S    
C22   C24   S    
C15   H9    S    
C36   C41   S    
C25   C30   S    
C40   H31   S    
O2    Zn2   S    
C4    C5    A    
C10   C13   A    
C8    H17   S    
C41   H38   S    
C6    C7    A    
C18   N3    S    
C27   N2    A    
C1    C17   S    
C29   H10   S    
O5    Zn1   S    
C2    C3    A    
O4    Zn2   S    
C42   H36   S    
C41   C42   S    
C37   H21   S    
C22   H3    S    
C40   H32   S    
C10   C11   A    
C9    N6    S    
O6    Zn2   S    
C23   O6    A    
C20   C21   A    
C37   H20   S    
C6    H16   S    
C13   C14   A    
C15   C33   A    
