data_mof_unit_22430.cif
_audit_creation_date              2012-12-10T17:19:21-0500
_audit_creation_method            fapswitch 2.2
_symmetry_space_group_name_H-M    P1
_symmetry_Int_Tables_number       1
_space_group_crystal_system       triclinic
_cell_length_a                    18.228368
_cell_length_b                    18.290226
_cell_length_c                    34.417998
_cell_angle_alpha                 90.161386
_cell_angle_beta                  90.182779
_cell_angle_gamma                 89.855361
_cell_volume                      11474.8537168

loop_
_atom_site_label
_atom_site_type_symbol
_atom_type_description
_atom_site_fract_x
_atom_site_fract_y
_atom_site_fract_z
_atom_type_partial_charge
C1    C     C_R   0.494595 0.134000 0.520769 0.378521
C2    C     C_R   0.009087 0.365905 0.979270 0.378379
C3    C     C_R   0.434589 0.985837 0.958950 -0.035873
C4    C     C_R   0.005836 0.432543 0.040686 -0.047415
C5    C     C_R   0.995814 0.567015 0.959397 -0.050588
C6    C     C_R   0.434439 0.983550 0.040539 -0.048851
C7    C     C_R   0.563171 0.025754 0.959446 -0.053533
C8    C     C_R   0.999846 0.499780 0.644089 0.832387
C9    C     C_R   0.000151 0.500230 0.355911 0.832494
C10   C     C_R   0.500024 0.999880 0.644113 0.842748
C11   C     C_R   0.499975 0.000121 0.355889 0.843699
C12   C     C_R   0.499827 0.999910 0.144073 0.835422
C13   C     C_R   0.624489 0.051715 0.020988 0.380933
C14   C     C_R   0.500129 0.000483 0.855924 0.836615
C15   C     C_R   0.000040 0.499857 0.144119 0.844082
C16   C     C_R   0.000020 0.500099 0.855892 0.842332
C17   C     C_R   0.860101 0.639816 0.749970 1.044075
C18   C     C_R   0.139901 0.360185 0.250028 1.044553
C19   C     C_R   0.355720 0.863941 0.746998 0.924046
C20   C     C_R   0.644283 0.136120 0.252893 0.922810
C21   C     C_R   0.139873 0.360264 0.749988 1.045767
C22   C     C_R   0.860127 0.639736 0.250012 1.044625
C23   C     C_R   0.636520 0.143877 0.753073 0.920878
C24   C     C_R   0.370843 0.964191 0.978954 0.381850
C25   C     C_R   0.363601 0.856051 0.246895 0.921380
C26   C     C_R   0.855722 0.363873 0.247107 0.922558
C27   C     C_R   0.144201 0.636261 0.752904 0.921739
C28   C     C_R   0.360097 0.139814 0.249972 1.044603
C29   C     C_R   0.639904 0.860187 0.750027 1.044210
C30   C     C_R   0.136450 0.643929 0.253078 0.921526
C31   C     C_R   0.863565 0.356094 0.746887 0.921980
C32   C     C_R   0.639876 0.860267 0.249990 1.044769
C33   C     C_R   0.360126 0.139734 0.750012 1.046223
C34   C     C_R   0.290690 0.618644 0.712786 0.690802
C35   C     C_R   0.009712 0.365754 0.020060 0.374631
C36   C     C_R   0.710350 0.380246 0.288812 0.691526
C37   C     C_R   0.226176 0.118669 0.706622 0.646558
C38   C     C_R   0.774171 0.881667 0.293037 0.644670
C39   C     C_R   0.740552 0.348889 0.687302 0.680530
C40   C     C_R   0.258737 0.651787 0.312964 0.680618
C41   C     C_R   0.769698 0.877385 0.703329 0.599534
C42   C     C_R   0.230878 0.123183 0.297169 0.599611
C43   C     C_R   0.122995 0.231656 0.297410 0.599623
C44   C     C_R   0.877586 0.768919 0.703089 0.599552
C45   C     C_R   0.387203 0.706012 0.280363 0.689351
C46   C     C_R   0.993590 0.633827 0.980045 0.376613
C47   C     C_R   0.612587 0.294172 0.720213 0.688726
C48   C     C_R   0.881703 0.772868 0.293586 0.652060
C49   C     C_R   0.118665 0.227490 0.706057 0.652648
C50   C     C_R   0.662412 0.246336 0.317438 0.679768
C51   C     C_R   0.339674 0.751424 0.683192 0.679774
C52   C     C_R   0.789703 0.119701 0.211203 0.693211
C53   C     C_R   0.208444 0.882506 0.786269 0.691038
C54   C     C_R   0.725833 0.618335 0.206966 0.644501
C55   C     C_R   0.273814 0.381317 0.793386 0.645272
C56   C     C_R   0.241577 0.847961 0.186860 0.685968
C57   C     C_R   0.371235 0.961466 0.019722 0.364863
C58   C     C_R   0.760166 0.150470 0.812325 0.684472
C59   C     C_R   0.269107 0.376803 0.202822 0.599584
C60   C     C_R   0.730314 0.622622 0.796670 0.599654
C61   C     C_R   0.622420 0.731082 0.796905 0.600045
C62   C     C_R   0.376989 0.268329 0.202580 0.599694
C63   C     C_R   0.887904 0.205530 0.779329 0.688825
C64   C     C_R   0.113040 0.793884 0.219461 0.690046
C65   C     C_R   0.381342 0.272511 0.793937 0.652377
C66   C     C_R   0.618313 0.727145 0.206406 0.652495
C67   C     C_R   0.158952 0.750087 0.816070 0.680919
C68   C     C_R   0.625337 0.050638 0.980191 0.371422
C69   C     C_R   0.837735 0.253592 0.182598 0.681944
C70   C     C_R   0.336364 0.619812 0.680362 -0.312550
C71   C     C_R   0.665814 0.377810 0.321657 -0.313401
C72   C     C_R   0.161467 0.108848 0.685773 -0.273355
C73   C     C_R   0.839043 0.891647 0.313721 -0.273158
C74   C     C_R   0.672236 0.369343 0.672489 -0.346874
C75   C     C_R   0.326837 0.631395 0.328079 -0.346701
C76   C     C_R   0.832430 0.885330 0.680864 -0.276470
C77   C     C_R   0.168435 0.115525 0.319886 -0.276290
C78   C     C_R   0.114958 0.169307 0.320011 -0.278357
C79   C     C_R   0.299657 0.750604 0.718481 -0.132585
C80   C     C_R   0.885910 0.831552 0.680740 -0.278550
C81   C     C_R   0.390863 0.655550 0.310571 -0.322308
C82   C     C_R   0.608470 0.344948 0.690168 -0.321578
C83   C     C_R   0.892326 0.837687 0.314018 -0.271825
C84   C     C_R   0.108196 0.162821 0.685466 -0.272630
C85   C     C_R   0.645202 0.310844 0.337079 -0.345042
C86   C     C_R   0.357520 0.686173 0.664416 -0.344324
C87   C     C_R   0.834359 0.122119 0.178402 -0.318134
C88   C     C_R   0.161694 0.881767 0.818250 -0.321587
C89   C     C_R   0.660963 0.608356 0.186280 -0.272731
C90   C     C_R   0.701289 0.248527 0.281815 -0.132911
C91   C     C_R   0.338516 0.391130 0.814243 -0.272381
C92   C     C_R   0.173520 0.868297 0.171687 -0.340252
C93   C     C_R   0.828604 0.129624 0.826825 -0.342055
C94   C     C_R   0.331544 0.384455 0.180099 -0.275345
C95   C     C_R   0.667581 0.614675 0.819133 -0.276064
C96   C     C_R   0.614098 0.668449 0.819254 -0.276615
C97   C     C_R   0.385020 0.330673 0.179973 -0.277141
C98   C     C_R   0.892236 0.154271 0.809122 -0.324261
C99   C     C_R   0.109453 0.844243 0.189199 -0.326781
C100  C     C_R   0.391796 0.337166 0.814541 -0.270833
C101  C     C_R   0.183918 0.239143 0.728306 -0.134189
C102  C     C_R   0.607686 0.662323 0.185977 -0.270304
C103  C     C_R   0.140160 0.815622 0.834295 -0.344578
C104  C     C_R   0.855060 0.189075 0.163001 -0.345989
C105  C     C_R   0.499887 0.999876 0.520376 -0.056277
C106  C     C_R   0.500011 0.000125 0.479633 -0.056486
C107  C     C_R   0.999716 0.500246 0.520388 -0.052058
C108  C     C_R   0.000169 0.500014 0.479614 -0.052003
C109  C     C_R   0.000273 0.499611 0.020400 -0.056552
C110  C     C_R   0.000455 0.499852 0.979654 -0.055790
C111  C     C_R   0.498446 0.005128 0.020387 -0.050114
C112  C     C_R   0.505297 0.866003 0.479242 0.378653
C113  C     C_R   0.816267 0.761035 0.271513 -0.133629
C114  C     C_R   0.498707 0.005682 0.979633 -0.057818
C115  C     C_3   0.555618 0.223933 0.554179 0.073357
C116  C     C_3   0.544237 0.277529 0.587531 -0.780108
C117  C     C_3   0.444277 0.775960 0.445931 0.073868
C118  C     C_3   0.455577 0.722392 0.412562 -0.779676
C119  C     C_3   0.160639 0.660436 0.554974 0.109257
C120  C     C_3   0.230263 0.704979 0.560392 -0.798362
C121  C     C_3   0.839034 0.339908 0.445092 0.109340
C122  C     C_3   0.769352 0.295367 0.439886 -0.800024
C123  C     C_3   0.443879 0.773801 0.551008 0.093301
C124  C     C_R   0.681620 0.267404 0.733055 -0.150012
C125  C     C_3   0.446932 0.690792 0.553338 -0.764152
C126  C     C_3   0.555806 0.226465 0.449138 0.093100
C127  C     C_3   0.552615 0.309508 0.447167 -0.765384
C128  C     C_3   0.826402 0.344728 0.551149 0.131769
C129  C     C_3   0.754359 0.316251 0.567203 -0.767835
C130  C     C_3   0.172895 0.655936 0.448833 0.132769
C131  C     C_3   0.244994 0.685072 0.433190 -0.767984
C132  C     C_3   0.052898 0.723975 0.054441 0.077849
C133  C     C_3   0.040660 0.777074 0.087928 -0.780734
C134  C     C_3   0.951040 0.273875 0.945956 0.073397
C135  C     C_R   0.318370 0.732678 0.267166 -0.149840
C136  C     C_3   0.964100 0.221252 0.912337 -0.778744
C137  C     C_3   0.674809 0.146654 0.055454 0.115385
C138  C     C_3   0.748494 0.182914 0.062805 -0.803423
C139  C     C_3   0.302485 0.877315 0.947002 0.089450
C140  C     C_3   0.259845 0.871893 0.908978 -0.819387
C141  C     C_3   0.953151 0.270725 0.051201 0.094566
C142  C     C_3   0.960786 0.188030 0.053787 -0.764897
C143  C     C_3   0.058868 0.723391 0.949516 0.097321
C144  C     C_3   0.058951 0.806296 0.946553 -0.778354
C145  C     C_3   0.313554 0.866144 0.049423 0.121840
C146  C     C_R   0.814121 0.758985 0.726724 -0.119883
C147  C     C_3   0.237293 0.836768 0.057910 -0.787188
C148  C     C_3   0.685467 0.142417 0.948583 0.139807
C149  C     C_3   0.761543 0.167533 0.936633 -0.768821
C150  C     C_R   0.186177 0.241310 0.273532 -0.119955
C151  C     C_R   0.240936 0.186285 0.273424 -0.120904
C152  C     C_R   0.759360 0.814008 0.726832 -0.120828
C153  C     C_R   0.254252 0.696236 0.279285 -0.130955
C154  C     C_R   0.745528 0.304056 0.720820 -0.130650
C155  C     C_R   0.761598 0.816171 0.271319 -0.132399
C156  C     C_R   0.119904 0.560350 0.520934 0.380386
C157  C     C_R   0.238581 0.184001 0.728506 -0.133421
C158  C     C_R   0.735495 0.314625 0.271154 -0.151913
C159  C     C_R   0.265055 0.684928 0.729511 -0.152032
C160  C     C_R   0.798769 0.251427 0.218195 -0.133312
C161  C     C_R   0.199598 0.750400 0.780975 -0.131363
C162  C     C_R   0.683742 0.738972 0.228485 -0.134060
C163  C     C_R   0.316082 0.260852 0.771693 -0.134024
C164  C     C_R   0.181841 0.767199 0.232699 -0.150148
C165  C     C_R   0.818774 0.232361 0.766681 -0.150430
C166  C     C_R   0.313813 0.258682 0.226463 -0.120142
C167  C     C_R   0.879932 0.440001 0.479071 0.380314
C168  C     C_R   0.685886 0.741018 0.773272 -0.120535
C169  C     C_R   0.740649 0.685998 0.773165 -0.120902
C170  C     C_R   0.259055 0.313707 0.226571 -0.121021
C171  C     C_R   0.754910 0.195635 0.778934 -0.132825
C172  C     C_R   0.245978 0.803602 0.220578 -0.134104
C173  C     C_R   0.261415 0.315990 0.771498 -0.132886
C174  C     C_R   0.738408 0.683833 0.228682 -0.132497
C175  C     C_R   0.234310 0.816000 0.769906 -0.151695
C176  C     C_R   0.764541 0.185333 0.228849 -0.151906
C177  C     C_R   0.292507 0.813003 0.742673 -0.053392
C178  C     C_R   0.505452 0.865798 0.520019 0.374919
C179  C     C_R   0.707564 0.187077 0.256901 -0.053202
C180  C     C_R   0.196020 0.304287 0.749881 -0.094178
C181  C     C_R   0.803983 0.695714 0.250119 -0.093920
C182  C     C_R   0.688605 0.205978 0.757777 -0.058726
C183  C     C_R   0.311788 0.793739 0.242163 -0.057580
C184  C     C_R   0.804003 0.695779 0.749907 -0.100365
C185  C     C_R   0.196000 0.304223 0.250091 -0.100472
C186  C     C_R   0.303995 0.195773 0.249907 -0.100462
C187  C     C_R   0.696004 0.804225 0.750090 -0.100518
C188  C     C_R   0.188385 0.706169 0.257739 -0.058025
C189  C     C_R   0.494392 0.134198 0.479993 0.375300
C190  C     C_R   0.811697 0.293871 0.742064 -0.058048
C191  C     C_R   0.696023 0.804290 0.249882 -0.093966
C192  C     C_R   0.303979 0.195709 0.750119 -0.094296
C193  C     C_R   0.792462 0.312893 0.243099 -0.053158
C194  C     C_R   0.207099 0.687710 0.756952 -0.054640
C195  C     C_R   0.506334 0.933749 0.581248 -0.159427
C196  C     C_R   0.493681 0.066263 0.418758 -0.158688
C197  C     C_R   0.937458 0.476333 0.581216 -0.166724
C198  C     C_R   0.062466 0.523863 0.418788 -0.166893
C199  C     C_R   0.493559 0.065573 0.581501 -0.179261
C200  C     C_R   0.878874 0.441418 0.519876 0.368476
C201  C     C_R   0.506321 0.934421 0.418508 -0.179137
C202  C     C_R   0.061420 0.523665 0.581595 -0.189299
C203  C     C_R   0.938530 0.476461 0.418403 -0.189092
C204  C     C_R   0.008326 0.433771 0.081297 -0.157896
C205  C     C_R   0.993194 0.566001 0.918800 -0.161889
C206  C     C_R   0.434812 0.985174 0.081182 -0.167322
C207  C     C_R   0.563978 0.020592 0.918854 -0.167179
C208  C     C_R   0.992146 0.565224 0.081496 -0.179239
C209  C     C_R   0.007809 0.434366 0.918497 -0.177507
C210  C     C_R   0.563119 0.019254 0.081529 -0.190205
C211  C     C_R   0.120933 0.558996 0.480128 0.368572
C212  C     C_R   0.435471 0.987403 0.918416 -0.169156
C213  C     C_R   0.499928 0.999666 0.601638 -0.074562
C214  C     C_R   0.500041 0.000337 0.398367 -0.074615
C215  C     C_R   0.999506 0.499876 0.601646 -0.071395
C216  C     C_R   0.000464 0.500213 0.398355 -0.071307
C217  C     C_R   0.000053 0.499538 0.101654 -0.074053
C218  C     C_R   0.000314 0.500215 0.898378 -0.074155
C219  C     C_R   0.499301 0.001089 0.101609 -0.071765
C220  C     C_R   0.500110 0.002552 0.898383 -0.079617
C221  C     C_R   0.496085 0.066870 0.540953 -0.043677
C222  C     C_R   0.992902 0.633619 0.020798 0.378947
C223  C     C_R   0.503812 0.933130 0.459057 -0.043526
C224  C     C_R   0.060671 0.528467 0.541079 -0.043821
C225  C     C_R   0.939224 0.471769 0.458923 -0.043706
C226  C     C_R   0.503702 0.932663 0.540649 -0.048625
C227  C     C_R   0.496209 0.067339 0.459361 -0.048563
C228  C     C_R   0.938192 0.472547 0.540588 -0.050846
C229  C     C_R   0.061682 0.527742 0.459414 -0.051074
C230  C     C_R   0.994976 0.566524 0.040968 -0.044516
C231  C     C_R   0.005590 0.432967 0.959066 -0.042802
C232  C     C_R   0.562386 0.025671 0.041085 -0.046020
F1    F     F_    0.277418 0.552987 0.729665 -0.619339
F2    F     F_    0.932438 0.718767 0.700839 -0.705322
F3    F     F_    0.450615 0.723927 0.262149 -0.622124
F4    F     F_    0.549437 0.275948 0.738594 -0.622640
F5    F     F_    0.936120 0.722338 0.296345 -0.664642
F6    F     F_    0.064287 0.278057 0.703279 -0.664086
F7    F     F_    0.646147 0.181970 0.334966 -0.661922
F8    F     F_    0.356304 0.815084 0.665048 -0.662061
F9    F     F_    0.777286 0.053424 0.227578 -0.618945
F10   F     F_    0.222604 0.947981 0.769397 -0.619552
F11   F     F_    0.775534 0.563081 0.204937 -0.665480
F12   F     F_    0.722695 0.446526 0.272424 -0.618818
F13   F     F_    0.224102 0.436561 0.795413 -0.665308
F14   F     F_    0.302327 0.865979 0.166290 -0.661344
F15   F     F_    0.700009 0.132231 0.833320 -0.661915
F16   F     F_    0.219316 0.431993 0.200869 -0.703808
F17   F     F_    0.780122 0.567451 0.798647 -0.703699
F18   F     F_    0.567565 0.781229 0.799153 -0.703629
F19   F     F_    0.431849 0.218183 0.200345 -0.704729
F20   F     F_    0.950936 0.224145 0.760948 -0.622747
F21   F     F_    0.049599 0.776123 0.237690 -0.622191
F22   F     F_    0.435748 0.221969 0.796690 -0.663884
F23   F     F_    0.275895 0.063432 0.704590 -0.664505
F24   F     F_    0.563909 0.777686 0.203636 -0.663602
F25   F     F_    0.142640 0.686759 0.834615 -0.662350
F26   F     F_    0.853986 0.317941 0.165049 -0.661233
F27   F     F_    0.724466 0.936916 0.295070 -0.665716
F28   F     F_    0.800958 0.367154 0.666514 -0.663249
F29   F     F_    0.198031 0.633777 0.333571 -0.663339
F30   F     F_    0.719894 0.932560 0.701356 -0.704192
F31   F     F_    0.280668 0.067993 0.299121 -0.704154
F32   F     F_    0.068133 0.281801 0.299642 -0.705282
H1    H     H_    0.107824 0.815121 0.860604 0.192667
H2    H     H_    0.660497 0.566280 0.836764 0.195087
H3    H     H_    0.642630 0.182033 0.035348 0.105713
H4    H     H_    0.779599 0.186933 0.035212 0.247683
H5    H     H_    0.740103 0.238750 0.074772 0.216321
H6    H     H_    0.780566 0.150262 0.084081 0.258877
H7    H     H_    0.272175 0.845596 0.969140 0.164831
H8    H     H_    0.357343 0.851353 0.942496 0.115268
H9    H     H_    0.291841 0.895665 0.884758 0.251273
H10   H     H_    0.248598 0.813613 0.902119 0.219021
H11   H     H_    0.206979 0.901799 0.911371 0.268309
H12   H     H_    0.906828 0.283673 0.031119 0.098473
H13   H     H_    0.170427 0.903763 0.146628 0.194465
H14   H     H_    0.938517 0.291849 0.080446 0.171406
H15   H     H_    0.004706 0.173512 0.074856 0.264748
H16   H     H_    0.908556 0.163530 0.063650 0.199343
H17   H     H_    0.974877 0.165034 0.024854 0.267273
H18   H     H_    0.072853 0.700512 0.920543 0.177083
H19   H     H_    0.103039 0.706953 0.970260 0.096324
H20   H     H_    0.043512 0.831060 0.974870 0.267610
H21   H     H_    0.114524 0.825407 0.938605 0.198446
H22   H     H_    0.019252 0.824330 0.923964 0.261445
H23   H     H_    0.347420 0.860062 0.076104 0.175416
H24   H     H_    0.832357 0.093370 0.851536 0.193546
H25   H     H_    0.338469 0.831608 0.026187 0.090749
H26   H     H_    0.202267 0.840374 0.031526 0.239695
H27   H     H_    0.240950 0.778723 0.067109 0.201663
H28   H     H_    0.211613 0.869208 0.081529 0.266694
H29   H     H_    0.665688 0.179927 0.971735 0.111430
H30   H     H_    0.648284 0.147624 0.923093 0.162041
H31   H     H_    0.782950 0.131568 0.913271 0.266900
H32   H     H_    0.759053 0.224608 0.925775 0.200096
H33   H     H_    0.799488 0.165203 0.961907 0.240553
H34   H     H_    0.652166 0.558326 0.170046 0.202636
H35   H     H_    0.347181 0.441033 0.830608 0.202562
H36   H     H_    0.852144 0.071899 0.164587 0.202636
H37   H     H_    0.143271 0.932670 0.831089 0.202535
H38   H     H_    0.614288 0.308941 0.363838 0.189345
H39   H     H_    0.389255 0.687048 0.637907 0.190184
H40   H     H_    0.942325 0.845926 0.330512 0.200576
H41   H     H_    0.886090 0.190972 0.136276 0.188648
H42   H     H_    0.058329 0.154712 0.668842 0.200656
H43   H     H_    0.443582 0.636392 0.321005 0.203276
H44   H     H_    0.555594 0.364144 0.679981 0.202954
H45   H     H_    0.066716 0.162745 0.337931 0.193287
H46   H     H_    0.934367 0.838327 0.663007 0.193350
H47   H     H_    0.839515 0.933725 0.663234 0.194301
H48   H     H_    0.161563 0.067340 0.337702 0.194248
H49   H     H_    0.668699 0.405039 0.647523 0.196348
H50   H     H_    0.330012 0.595905 0.353139 0.196358
H51   H     H_    0.152796 0.058939 0.669415 0.202028
H52   H     H_    0.441664 0.345276 0.831164 0.201313
H53   H     H_    0.847837 0.941675 0.329957 0.202017
H54   H     H_    0.354496 0.569076 0.667222 0.202759
H55   H     H_    0.648055 0.428025 0.335487 0.203103
H56   H     H_    0.513239 0.883376 0.597254 0.195768
H57   H     H_    0.486905 0.116654 0.402753 0.195440
H58   H     H_    0.889614 0.458857 0.597246 0.212853
H59   H     H_    0.110318 0.541326 0.402762 0.212721
H60   H     H_    0.487544 0.116045 0.597669 0.199135
H61   H     H_    0.512268 0.883937 0.402342 0.199162
H62   H     H_    0.109720 0.539490 0.597885 0.187454
H63   H     H_    0.557690 0.654086 0.169481 0.201673
H64   H     H_    0.890252 0.460595 0.402108 0.187462
H65   H     H_    0.016610 0.383660 0.097347 0.194110
H66   H     H_    0.985628 0.616354 0.902839 0.196904
H67   H     H_    0.385341 0.972900 0.097179 0.209568
H68   H     H_    0.613785 0.031851 0.902922 0.211072
H69   H     H_    0.984858 0.615564 0.097636 0.199083
H70   H     H_    0.014642 0.384042 0.902296 0.198486
H71   H     H_    0.613085 0.029374 0.097707 0.190635
H72   H     H_    0.386311 0.974839 0.902146 0.198304
H73   H     H_    0.584871 0.253012 0.530688 0.152278
H74   H     H_    0.945183 0.134876 0.819099 0.202610
H75   H     H_    0.591406 0.178677 0.564905 0.120958
H76   H     H_    0.515430 0.250227 0.611869 0.257583
H77   H     H_    0.598115 0.297592 0.598178 0.208660
H78   H     H_    0.511055 0.324933 0.577547 0.268560
H79   H     H_    0.408358 0.821161 0.435258 0.120705
H80   H     H_    0.415215 0.746812 0.469465 0.152634
H81   H     H_    0.401680 0.702174 0.402030 0.208432
H82   H     H_    0.484126 0.749771 0.388163 0.257499
H83   H     H_    0.488966 0.675083 0.422481 0.268791
H84   H     H_    0.133569 0.656184 0.583697 0.144812
H85   H     H_    0.056760 0.863420 0.178737 0.203414
H86   H     H_    0.122997 0.691290 0.535384 0.102865
H87   H     H_    0.260091 0.709225 0.532403 0.248837
H88   H     H_    0.216237 0.760826 0.570752 0.214850
H89   H     H_    0.266178 0.678358 0.582322 0.257154
H90   H     H_    0.876829 0.309125 0.464638 0.102558
H91   H     H_    0.865870 0.344029 0.416301 0.145150
H92   H     H_    0.733238 0.321961 0.418043 0.257086
H93   H     H_    0.783265 0.239498 0.429517 0.215186
H94   H     H_    0.739785 0.291184 0.467956 0.248877
H95   H     H_    0.398397 0.789403 0.530908 0.098806
H96   H     H_    0.565639 0.661670 0.836986 0.194987
H97   H     H_    0.430256 0.795379 0.580301 0.176101
H98   H     H_    0.489154 0.673688 0.574825 0.261040
H99   H     H_    0.392992 0.669049 0.562483 0.204180
H100  H     H_    0.460945 0.667385 0.524489 0.267728
H101  H     H_    0.569460 0.205329 0.419758 0.174274
H102  H     H_    0.601320 0.210632 0.469168 0.099173
H103  H     H_    0.538236 0.332438 0.476071 0.268402
H104  H     H_    0.606614 0.331509 0.438295 0.203921
H105  H     H_    0.510595 0.326865 0.425627 0.261352
H106  H     H_    0.868777 0.340868 0.574360 0.151471
H107  H     H_    0.433257 0.337231 0.162049 0.194145
H108  H     H_    0.842769 0.308452 0.526784 0.121384
H109  H     H_    0.711502 0.317349 0.544202 0.237697
H110  H     H_    0.761427 0.259164 0.577483 0.202432
H111  H     H_    0.736354 0.350911 0.591897 0.277016
H112  H     H_    0.155700 0.692068 0.473100 0.120321
H113  H     H_    0.130960 0.659432 0.425386 0.152308
H114  H     H_    0.263742 0.650642 0.408565 0.275756
H115  H     H_    0.237636 0.742128 0.422918 0.202495
H116  H     H_    0.287430 0.684263 0.456411 0.237538
H117  H     H_    0.082128 0.753562 0.031116 0.155174
H118  H     H_    0.338411 0.432636 0.162279 0.195019
H119  H     H_    0.088994 0.678934 0.065134 0.120162
H120  H     H_    0.011290 0.749406 0.111957 0.258414
H121  H     H_    0.094251 0.796982 0.099036 0.207597
H122  H     H_    0.007689 0.824603 0.077916 0.268549
H123  H     H_    0.913425 0.317908 0.935533 0.120235
H124  H     H_    0.923208 0.243307 0.969404 0.151949
H125  H     H_    0.998998 0.174879 0.922054 0.268818
H126  H     H_    0.910919 0.199478 0.901661 0.207751
H127  H     H_    0.991781 0.249934 0.888082 0.257714
H128  H     H_    0.645107 0.144653 0.083517 0.142860
O1    O     O_3   0.000000 0.500000 0.750000 -0.530015
O2    O     O_R   0.060740 0.500000 0.337440 -0.611985
O3    O     O_R   0.500000 0.939260 0.662560 -0.615452
O4    O     O_R   0.500000 0.060740 0.337440 -0.615429
O5    O     O_R   0.560740 0.000000 0.162560 -0.649758
O6    O     O_R   0.439260 1.000000 0.837440 -0.652825
O7    O     O_R   0.000000 0.560740 0.162560 -0.657000
O8    O     O_R   0.000000 0.439260 0.837440 -0.656981
O9    O     O_R   0.439260 0.000000 0.162560 -0.613532
O10   O     O_R   0.560740 1.000000 0.837440 -0.612590
O11   O     O_R   0.000000 0.439260 0.162560 -0.615443
O12   O     O_3   0.000000 0.500000 0.250000 -0.530063
O13   O     O_R   0.000000 0.560740 0.837440 -0.615136
O14   O     O_R   0.853850 0.585450 0.727070 -0.612027
O15   O     O_R   0.146150 0.414550 0.272930 -0.612121
O16   O     O_R   0.414550 0.853850 0.727070 -0.596353
O17   O     O_R   0.585450 0.146150 0.272930 -0.597522
O18   O     O_R   0.146150 0.414550 0.727070 -0.585700
O19   O     O_R   0.853850 0.585450 0.272930 -0.585232
O20   O     O_R   0.585450 0.146150 0.727070 -0.607859
O21   O     O_R   0.414550 0.853850 0.272930 -0.607656
O22   O     O_R   0.853850 0.414550 0.272930 -0.603065
O23   O     O_3   0.500000 1.000000 0.750000 -0.529353
O24   O     O_R   0.146150 0.585450 0.727070 -0.603875
O25   O     O_R   0.414550 0.146150 0.272930 -0.617030
O26   O     O_R   0.585450 0.853850 0.727070 -0.616680
O27   O     O_R   0.146150 0.585450 0.272930 -0.592935
O28   O     O_R   0.853850 0.414550 0.727070 -0.592373
O29   O     O_R   0.585450 0.853850 0.272930 -0.592236
O30   O     O_R   0.414550 0.146150 0.727070 -0.592609
O31   O     O_R   0.353850 0.085450 0.227070 -0.612353
O32   O     O_R   0.646150 0.914550 0.772930 -0.611944
O33   O     O_R   0.914550 0.353850 0.227070 -0.597650
O34   O     O_3   0.500000 0.000000 0.250000 -0.529812
O35   O     O_R   0.085450 0.646150 0.772930 -0.595854
O36   O     O_R   0.646150 0.914550 0.227070 -0.585193
O37   O     O_R   0.353850 0.085450 0.772930 -0.585759
O38   O     O_R   0.085450 0.646150 0.227070 -0.607340
O39   O     O_R   0.914550 0.353850 0.772930 -0.608162
O40   O     O_R   0.353850 0.914550 0.772930 -0.606203
O41   O     O_R   0.646150 0.085450 0.227070 -0.603197
O42   O     O_R   0.914550 0.646150 0.772930 -0.616410
O43   O     O_R   0.085450 0.353850 0.227070 -0.617155
O44   O     O_R   0.646150 0.085450 0.772930 -0.592643
O45   O     O_R   0.060740 0.500000 0.662560 -0.648692
O46   O     O_R   0.353850 0.914550 0.227070 -0.593733
O47   O     O_R   0.085450 0.353850 0.772930 -0.592783
O48   O     O_R   0.914550 0.646150 0.227070 -0.592310
O49   O     O_3   0.486433 0.199618 0.540588 -0.563522
O50   O     O_3   0.513485 0.800395 0.459421 -0.563469
O51   O     O_3   0.179333 0.590091 0.540599 -0.572723
O52   O     O_3   0.820469 0.410331 0.459408 -0.572753
O53   O     O_3   0.513409 0.799797 0.539218 -0.572331
O54   O     O_3   0.486304 0.200176 0.460790 -0.572169
O55   O     O_3   0.816486 0.417858 0.538975 -0.569691
O56   O     O_R   0.939260 0.500000 0.337440 -0.648582
O57   O     O_3   0.183203 0.582867 0.461030 -0.569931
O58   O     O_3   0.984074 0.699197 0.040574 -0.563393
O59   O     O_3   0.019393 0.300582 0.959455 -0.562473
O60   O     O_3   0.686646 0.075174 0.040667 -0.570710
O61   O     O_3   0.306040 0.951408 0.958865 -0.567050
O62   O     O_3   0.021111 0.300235 0.039242 -0.570970
O63   O     O_3   0.988106 0.700024 0.960828 -0.571341
O64   O     O_3   0.307866 0.940688 0.038791 -0.574368
O65   O     O_3   0.689562 0.068961 0.961167 -0.570582
O66   O     O_R   0.500000 0.060740 0.662560 -0.656963
O67   O     O_R   0.500000 0.939260 0.337440 -0.656994
O68   O     O_R   0.939260 0.500000 0.662560 -0.612182
Zn1   Zn    Zn3+2 0.000000 0.586740 0.782740 1.099819
Zn2   Zn    Zn3+2 0.500000 0.913260 0.717260 1.099860
Zn3   Zn    Zn3+2 0.913260 0.500000 0.282740 1.104850
Zn4   Zn    Zn3+2 0.086740 0.500000 0.717260 1.103719
Zn5   Zn    Zn3+2 0.500000 0.913260 0.282740 1.092690
Zn6   Zn    Zn3+2 0.500000 0.086740 0.717260 1.092155
Zn7   Zn    Zn3+2 0.086740 0.500000 0.282740 1.105070
Zn8   Zn    Zn3+2 0.913260 0.500000 0.717260 1.105423
Zn9   Zn    Zn3+2 0.000000 0.413260 0.217260 1.098661
Zn10  Zn    Zn3+2 0.413260 0.000000 0.782740 1.100803
Zn11  Zn    Zn3+2 0.586740 1.000000 0.217260 1.104920
Zn12  Zn    Zn3+2 1.000000 0.413260 0.782740 1.091778
Zn13  Zn    Zn3+2 0.000000 0.586740 0.217260 1.092623
Zn14  Zn    Zn3+2 0.586740 0.000000 0.782740 1.105653
Zn15  Zn    Zn3+2 0.413260 1.000000 0.217260 1.104739
Zn16  Zn    Zn3+2 0.500000 0.086740 0.282740 1.098887

loop_
_geom_bond_atom_site_label_1
_geom_bond_atom_site_label_2
_ccdc_geom_bond_type
C12   O9    A    
C159  C194  A    
C126  C127  S    
C121  H91   S    
C64   C164  A    
C198  C216  A    
C150  C185  A    
C48   F5    S    
C175  C177  A    
C11   O67   A    
O23   Zn6   S    
O15   Zn7   S    
C15   O7    A    
C133  H120  S    
C58   F15   S    
C24   O61   S    
O34   Zn15  S    
C63   C98   A    
C129  H110  S    
C43   F32   S    
C10   O3    A    
C115  H73   S    
C18   O15   A    
O42   Zn1   S    
C208  C217  A    
C69   C160  A    
C1    C221  A    
C209  C231  A    
C39   C74   A    
C31   O28   A    
C55   C173  A    
C54   F11   S    
C7    C68   A    
C29   O26   A    
C50   C90   A    
C119  H86   S    
C61   F18   S    
C211  O57   S    
C167  C200  A    
C163  C192  A    
C91   C100  A    
C36   C71   A    
C63   F20   S    
C168  C187  A    
C14   C220  S    
C46   O63   S    
C189  C227  A    
C113  C155  A    
C152  C187  A    
C167  O52   S    
C133  H122  S    
C120  H87   S    
O34   Zn16  S    
C189  O54   S    
C73   H53   S    
C158  C193  A    
C39   C154  A    
O20   Zn6   S    
O45   Zn4   S    
C23   C182  S    
O12   Zn7   S    
O13   Zn1   S    
C198  H59   S    
C95   H2    S    
O1    Zn1   S    
C125  H98   S    
C212  C220  A    
C94   C97   A    
C32   C191  S    
C136  H127  S    
C17   O42   A    
C118  H82   S    
C124  C182  A    
C80   H46   S    
C76   H47   S    
C109  C230  A    
O9    Zn15  S    
C78   H45   S    
C165  C190  A    
C10   C213  S    
C53   F10   S    
C72   C84   A    
C168  C169  A    
C115  O49   S    
C87   H36   S    
C203  C225  A    
C123  H95   S    
C7    C114  A    
O23   Zn2   S    
C112  C178  A    
C138  H6    S    
O47   Zn12  S    
C130  H112  S    
C28   O31   A    
C166  C186  A    
C120  H89   S    
C45   C81   A    
C202  H62   S    
C26   O33   A    
C42   F31   S    
C164  C188  A    
C127  H105  S    
C93   H24   S    
C139  C140  S    
C72   H51   S    
C206  C219  A    
C22   C181  S    
C9    O56   A    
C33   O37   A    
C5    C46   A    
C143  H19   S    
C104  H41   S    
C46   C222  A    
C61   C168  A    
C122  H92   S    
C54   C174  A    
C130  C131  S    
C137  O60   S    
C32   O29   A    
C41   C76   A    
C132  O58   S    
C98   H74   S    
C17   C184  S    
O29   Zn5   S    
O34   Zn5   S    
C56   F14   S    
C30   O27   A    
C170  C185  A    
C148  O65   S    
C58   C171  A    
C94   H118  S    
C201  C214  A    
C39   F28   S    
C11   C214  S    
C60   C95   A    
C145  O64   S    
C141  O62   S    
C122  H93   S    
C106  C227  A    
O32   Zn14  S    
C27   O24   A    
C123  H97   S    
C73   C83   A    
C143  C144  S    
C165  C171  A    
C151  C186  A    
C4    C109  A    
C6    C111  A    
C200  O55   S    
O44   Zn14  S    
C135  C183  A    
C128  C129  S    
C19   O16   A    
C61   C96   A    
C67   C103  A    
C127  H104  S    
C125  H100  S    
C203  H64   S    
C148  H29   S    
C31   C190  S    
C23   O44   A    
C149  H32   S    
C60   C169  A    
C49   C84   A    
C41   F30   S    
C18   O43   A    
C25   O21   A    
C5    C110  A    
C115  C116  S    
C27   O35   A    
O2    Zn7   S    
C116  H78   S    
C37   C157  A    
O17   Zn16  S    
C71   H55   S    
C126  H101  S    
C64   C99   A    
C113  C181  A    
C33   O30   A    
C24   C57   A    
C107  C108  A    
C79   C177  A    
C16   C218  S    
C196  H57   S    
C115  H75   S    
O36   Zn11  S    
C19   C177  S    
O37   Zn10  S    
C128  O55   S    
C34   C159  A    
C103  H1    S    
C68   O65   S    
O23   Zn10  S    
C156  C211  A    
C15   O11   A    
C65   C163  A    
C3    C24   A    
C38   C155  A    
C197  H58   S    
C20   C179  S    
C176  C179  A    
C128  H108  S    
C45   C135  A    
C144  H22   S    
C128  H106  S    
C70   H54   S    
C7    C207  A    
C142  H16   S    
O38   Zn13  S    
O27   Zn7   S    
O34   Zn11  S    
C136  H125  S    
C210  C219  A    
C35   O62   S    
C134  H123  S    
O14   Zn8   S    
C140  H9    S    
C169  C184  A    
C28   C186  S    
C62   C97   A    
C196  C214  A    
C40   F29   S    
C106  C223  A    
O68   Zn8   S    
C27   C194  S    
C31   O39   A    
C102  H63   S    
C42   C151  A    
C59   F16   S    
C43   C150  A    
C16   O8    A    
C66   F24   S    
C166  C170  A    
C112  O50   S    
C60   F17   S    
C40   C153  A    
C164  C172  A    
C201  C223  A    
C163  C173  A    
C137  H128  S    
C81   H43   S    
C107  C224  A    
C82   H44   S    
C34   C70   A    
C19   O40   A    
C62   C166  A    
C199  C213  A    
C121  H90   S    
C76   C80   A    
C3    C114  A    
C117  H80   S    
C21   O18   A    
C16   O13   A    
C123  O53   S    
O33   Zn9   S    
C139  H8    S    
C18   C185  S    
C48   C83   A    
C146  C184  A    
C156  C224  A    
O39   Zn12  S    
C101  C180  A    
C129  H109  S    
C117  C118  S    
C13   C232  A    
C84   H42   S    
C172  C183  A    
C105  C221  A    
C51   C79   A    
C196  C227  A    
C110  C231  A    
O10   Zn14  S    
C197  C228  A    
C8    O68   A    
C131  H116  S    
C222  C230  A    
C42   C77   A    
C207  H68   S    
C210  C232  A    
C150  C151  A    
C141  H12   S    
C34   F1    S    
C147  H26   S    
C56   C172  A    
C92   C99   A    
C160  C193  A    
C13   C68   A    
C1    C189  A    
C2    C35   A    
C11   O4    A    
C9    O2    A    
O41   Zn11  S    
O1    Zn4   S    
O5    Zn11  S    
C198  C229  A    
C120  H88   S    
C77   C78   A    
C43   C78   A    
C10   O66   A    
C53   C175  A    
C207  C220  A    
O22   Zn3   S    
C140  H11   S    
O16   Zn2   S    
C58   C93   A    
O66   Zn6   S    
C141  H14   S    
C64   F21   S    
O19   Zn3   S    
C57   O64   S    
C79   C159  A    
C123  C125  S    
C108  C225  A    
C66   C162  A    
C200  C228  A    
C156  O51   S    
C118  H83   S    
C21   O47   A    
C55   C91   A    
C50   C85   A    
C145  C147  S    
O4    Zn16  S    
C59   C94   A    
C1    O49   S    
C202  C215  A    
C15   C217  S    
C143  O63   S    
O12   Zn13  S    
C14   O10   A    
C8    C215  S    
C85   H38   S    
C154  C190  A    
C4    C35   A    
C101  C157  A    
O12   Zn9   S    
C6    C57   A    
C74   C82   A    
C51   C86   A    
O31   Zn15  S    
C162  C191  A    
C100  H52   S    
C89   H34   S    
C26   O22   A    
C23   O20   A    
C147  H28   S    
C119  H84   S    
O1    Zn8   S    
C36   F12   S    
C202  C224  A    
C203  C216  A    
C147  H27   S    
C129  H111  S    
O8    Zn12  S    
C204  H65   S    
C173  C180  A    
C222  O58   S    
C29   C187  S    
C30   C188  S    
C8    O45   A    
O3    Zn2   S    
O24   Zn4   S    
C67   C161  A    
C131  H114  S    
C44   C80   A    
O23   Zn14  S    
C205  H66   S    
C121  C122  S    
C67   F25   S    
C145  H25   S    
C2    O59   S    
C62   F19   S    
C117  O50   S    
C122  H94   S    
O56   Zn3   S    
C47   F4    S    
C126  O54   S    
C134  O59   S    
C211  C229  A    
C195  H56   S    
C88   H37   S    
C45   F3    S    
C65   C100  A    
C49   F6    S    
C201  H61   S    
C119  C120  S    
C127  H103  S    
C125  H99   S    
C153  C188  A    
C97   H107  S    
C148  H30   S    
C105  C106  A    
C149  H31   S    
C40   C75   A    
C118  H81   S    
C32   O36   A    
C157  C192  A    
C109  C110  A    
O30   Zn6   S    
C47   C124  A    
C138  H4    S    
O28   Zn8   S    
C210  H71   S    
C28   O25   A    
C111  C114  A    
C145  H23   S    
C195  C213  A    
C4    C204  A    
C87   C104  A    
C126  H102  S    
C86   H39   S    
C37   C72   A    
C178  O53   S    
O67   Zn5   S    
C26   C193  S    
C48   C113  A    
C138  H5    S    
O21   Zn5   S    
C124  C154  A    
C89   C102  A    
C66   C102  A    
C171  C182  A    
C95   C96   A    
C74   H49   S    
C38   F27   S    
C133  H121  S    
C41   C152  A    
C83   H40   S    
C33   C192  S    
C209  C218  A    
C52   F9    S    
C96   H96   S    
C142  H17   S    
C161  C175  A    
C149  H33   S    
C167  C225  A    
C136  H126  S    
C25   O46   A    
C134  H124  S    
C47   C82   A    
C140  H10   S    
C92   H13   S    
C212  H72   S    
O12   Zn3   S    
C71   C85   A    
C21   C180  S    
C132  C133  S    
C37   F23   S    
C144  H20   S    
C44   C146  A    
C20   O41   A    
C199  C221  A    
C91   H35   S    
O35   Zn1   S    
C59   C170  A    
C12   C219  S    
C197  C215  A    
C36   C158  A    
C130  O57   S    
C208  H69   S    
O46   Zn15  S    
C65   F22   S    
C111  C232  A    
C160  C176  A    
C132  H117  S    
C174  C181  A    
C108  C229  A    
C9    C216  S    
C119  O51   S    
C205  C218  A    
C6    C206  A    
C148  C149  S    
O6    Zn10  S    
C54   C89   A    
C116  H76   S    
C117  H79   S    
C75   C81   A    
C134  C136  S    
C139  H7    S    
C30   O38   A    
C116  H77   S    
C90   C158  A    
C14   O6    A    
C44   F2    S    
O7    Zn13  S    
C17   O14   A    
C63   C165  A    
C107  C228  A    
O43   Zn9   S    
C139  O61   S    
C105  C226  A    
C51   F8    S    
C155  C191  A    
C2    C231  A    
C146  C152  A    
C29   O32   A    
O48   Zn13  S    
C131  H115  S    
O1    Zn12  S    
O40   Zn10  S    
C130  H113  S    
C70   C86   A    
C88   C103  A    
C12   O5    A    
C69   C104  A    
C3    C212  A    
C90   C179  A    
C143  H18   S    
C22   O48   A    
C195  C226  A    
C144  H21   S    
C52   C87   A    
O11   Zn9   S    
C13   O60   S    
C142  H15   S    
C99   H85   S    
C162  C174  A    
C137  C138  S    
C135  C153  A    
C204  C217  A    
C50   F7    S    
C141  C142  S    
C137  H3    S    
C199  H60   S    
C112  C223  A    
C161  C194  A    
C53   C88   A    
C22   O19   A    
O18   Zn4   S    
C178  C226  A    
C75   H50   S    
C20   O17   A    
C5    C205  A    
C56   C92   A    
C77   H48   S    
C206  H67   S    
C55   F13   S    
O25   Zn16  S    
C52   C176  A    
C209  H70   S    
C132  H119  S    
C93   C98   A    
O26   Zn2   S    
C25   C183  S    
C49   C101  A    
C208  C230  A    
C69   F26   S    
C121  O52   S    
C38   C73   A    
