data_mof_unit_6126.cif
_audit_creation_date              2012-12-10T17:13:41-0500
_audit_creation_method            fapswitch 2.2
_symmetry_space_group_name_H-M    P1
_symmetry_Int_Tables_number       1
_space_group_crystal_system       triclinic
_cell_length_a                    27.649454
_cell_length_b                    10.660043
_cell_length_c                    9.981665
_cell_angle_alpha                 88.200806
_cell_angle_beta                  90.987928
_cell_angle_gamma                 90.597543
_cell_volume                      2940.00810154

loop_
_atom_site_label
_atom_site_type_symbol
_atom_type_description
_atom_site_fract_x
_atom_site_fract_y
_atom_site_fract_z
_atom_type_partial_charge
C1    C     C_R   0.492995 0.263265 0.501804 0.804469
C2    C     C_R   0.974387 0.379211 0.543611 0.035348
C3    C     C_R   0.976466 0.600634 0.465619 -0.004308
C4    C     C_R   0.405980 0.497631 0.498761 1.038729
C5    C     C_R   0.950271 0.492381 0.509718 -0.079745
C6    C     C_R   0.948906 0.283787 0.617201 0.389779
C7    C     C_R   0.897985 0.290121 0.628422 0.370008
C8    C     C_R   0.873110 0.393304 0.570078 -0.127761
C9    C     C_R   0.899609 0.498464 0.522006 -0.146334
C10   C     C_R   0.875446 0.610919 0.487653 -0.102377
C11   C     C_R   0.824976 0.612010 0.485636 0.666443
C12   C     C_R   0.274518 0.534497 0.584078 0.307026
C13   C     C_R   0.822271 0.398981 0.566533 0.692483
C14   C     C_R   0.722731 0.569880 0.612336 0.333368
C15   C     C_R   0.671690 0.566345 0.609718 0.255136
C16   C     C_R   0.500760 0.738089 0.497479 0.865336
C17   C     C_R   0.673117 0.442389 0.406891 0.310199
C18   C     C_R   0.724014 0.446078 0.410542 0.340133
C19   C     C_R   0.748066 0.507270 0.514812 0.108321
C20   C     C_R   0.024115 0.369236 0.512711 0.031068
C21   C     C_R   0.050430 0.477591 0.470623 -0.084109
C22   C     C_R   0.026145 0.590185 0.435400 -0.024422
C23   C     C_R   0.252581 0.470508 0.478238 0.133747
C24   C     C_R   0.047609 0.252446 0.509008 0.403340
C25   C     C_R   0.102431 0.683209 0.358935 0.384079
C26   C     C_R   0.952455 0.717973 0.464982 0.596669
C27   C     C_R   0.902180 0.721012 0.464151 -0.204941
C28   C     C_R   0.594079 0.501585 0.501239 1.005597
C29   C     C_R   0.051374 0.683746 0.359711 0.378268
C30   C     C_2   0.468245 0.930631 0.408883 0.425616
C31   C     C_2   0.501907 0.872469 0.487565 0.250142
C32   C     C_2   0.468712 0.067575 0.396280 0.307527
C33   C     C_2   0.475357 0.133613 0.508444 0.222255
C34   C     C_R   0.101159 0.471613 0.458769 -0.201127
C35   C     C_2   0.529349 0.568661 0.924259 -0.221162
C36   C     C_2   0.524836 0.581156 0.074480 0.552030
C37   C     C_R   0.176316 0.361533 0.501236 0.679256
C38   C     C_R   0.178290 0.573405 0.416674 0.670070
C39   C     C_R   0.279989 0.412344 0.382020 0.340423
C40   C     C_R   0.330843 0.413583 0.394925 0.235041
C41   C     C_R   0.325382 0.548816 0.588184 0.253267
C42   C     C_3   0.130056 0.881988 0.384197 -0.112712
C43   C     C_3   0.992260 0.840713 0.612561 -0.302251
C44   C     C_3   0.640644 0.254252 0.351583 -0.203914
C45   C     C_R   0.125531 0.359438 0.494953 -0.154055
C46   C     C_3   0.536613 0.792369 0.090763 -0.210784
C47   C     C_3   0.116986 0.093602 0.671700 -0.244630
C48   C     C_R   0.098497 0.248345 0.518501 0.399322
C49   C     C_R   0.127505 0.577887 0.412182 -0.148379
C50   C     C_R   0.353178 0.486548 0.494470 -0.220470
C51   C     C_R   0.647112 0.504657 0.505062 -0.290291
H1    H     H_    0.884436 0.811037 0.453641 0.220243
H2    H     H_    0.018565 0.766463 0.643129 0.145693
H3    H     H_    0.960780 0.838061 0.680747 0.172974
H4    H     H_    0.010876 0.932083 0.624628 0.219011
H5    H     H_    0.675276 0.204800 0.373654 0.179827
H6    H     H_    0.621417 0.203485 0.270911 0.202747
H7    H     H_    0.617257 0.249691 0.441290 0.152265
H8    H     H_    0.730323 0.358238 0.242830 0.384584
H9    H     H_    0.047548 0.815734 0.218522 0.370282
H10   H     H_    0.411519 0.920390 0.291978 0.364150
H11   H     H_    0.560745 0.877946 0.597095 0.346988
H12   H     H_    0.557596 0.622188 0.873739 0.211030
H13   H     H_    0.442886 0.193937 0.273579 0.362494
H14   H     H_    0.263639 0.587033 0.765476 0.356284
H15   H     H_    0.470867 0.132998 0.705177 0.366106
H16   H     H_    0.496553 0.802458 0.092908 0.184173
H17   H     H_    0.550214 0.812969 0.988229 0.156978
H18   H     H_    0.552438 0.863989 0.157355 0.199780
H19   H     H_    0.078615 0.074051 0.697391 0.169607
H20   H     H_    0.133033 0.163207 0.740970 0.196060
H21   H     H_    0.137107 0.004725 0.687316 0.193106
H22   H     H_    0.663442 0.617294 0.792992 0.355928
H23   H     H_    0.471270 0.459462 0.897958 0.170384
H24   H     H_    0.729946 0.706150 0.736107 0.363986
H25   H     H_    0.892004 0.175064 0.782078 0.346213
H26   H     H_    0.955614 0.113024 0.687488 0.355789
H27   H     H_    0.042392 0.077944 0.456689 0.361361
H28   H     H_    0.340738 0.268828 0.285083 0.352200
H29   H     H_    0.484921 0.425316 0.102762 0.131186
H30   H     H_    0.326278 0.692349 0.703821 0.360608
H31   H     H_    0.277450 0.356654 0.198511 0.355794
H32   H     H_    0.093514 0.916370 0.407827 0.150866
H33   H     H_    0.149988 0.855391 0.478536 0.179705
H34   H     H_    0.150152 0.960618 0.334579 0.230376
N1    N     N_R   0.201064 0.468388 0.465708 -0.307520
N2    N     N_R   0.799688 0.506005 0.521519 -0.306848
N3    N     N_2   0.500520 0.501330 0.852150 -0.202848
N4    N     N_2   0.500540 0.501360 0.147810 -0.203428
O1    O     O_R   0.499990 0.319060 0.613040 -0.629471
O2    O     O_R   0.571240 0.499960 0.613080 -0.573461
O3    O     O_R   0.571250 0.500000 0.386950 -0.543087
O4    O     O_2   0.201073 0.258954 0.543702 -0.486867
O5    O     O_3   0.348682 0.625619 0.678349 -0.721738
O6    O     O_3   0.255808 0.357201 0.276504 -0.727016
O7    O     O_3   0.127384 0.781108 0.296278 -0.589925
O8    O     O_3   0.977262 0.830492 0.477384 -0.550562
O9    O     O_3   0.648840 0.379330 0.306467 -0.581361
O10   O     O_3   0.751607 0.390897 0.314726 -0.717440
O11   O     O_3   0.025462 0.767179 0.277977 -0.706878
O12   O     O_2   0.795345 0.298557 0.605869 -0.457311
O13   O     O_3   0.433670 0.861395 0.340441 -0.777374
O14   O     O_3   0.539285 0.938514 0.548275 -0.776495
O15   O     O_3   0.464725 0.121092 0.268802 -0.777249
O16   O     O_3   0.245050 0.582218 0.680079 -0.744343
O17   O     O_3   0.465450 0.074503 0.631309 -0.744892
O18   O     O_3   0.551410 0.672830 0.139040 -0.570117
O19   O     O_3   0.121565 0.134349 0.536608 -0.612101
O20   O     O_3   0.645108 0.622484 0.706916 -0.747992
O21   O     O_3   0.749166 0.634317 0.707143 -0.720144
O22   O     O_3   0.872390 0.200772 0.702129 -0.683530
O23   O     O_2   0.205115 0.672763 0.373856 -0.488824
O24   O     O_3   0.974588 0.192352 0.688034 -0.756113
O25   O     O_3   0.020617 0.146225 0.481108 -0.719032
O26   O     O_3   0.359467 0.343132 0.314238 -0.765263
O27   O     O_2   0.801234 0.717464 0.447066 -0.517575
O28   O     O_R   0.500010 0.319100 0.386900 -0.607337
O29   O     O_R   0.428750 0.500000 0.613050 -0.583036
O30   O     O_R   0.428760 0.500040 0.386920 -0.574454
O31   O     O_R   0.499990 0.680900 0.613100 -0.605741
O32   O     O_R   0.500010 0.680940 0.386960 -0.566014
Zn1   Zn    Zn3+2 0.499990 0.499970 0.650990 1.011076
Zn2   Zn    Zn3+2 0.500010 0.500030 0.349010 1.062804

loop_
_geom_bond_atom_site_label_1
_geom_bond_atom_site_label_2
_ccdc_geom_bond_type
C10   C27   A    
C36   N4    D    
C24   O25   S    
C8    C13   A    
C22   C29   A    
H28   O26   S    
H8    O10   S    
C15   O20   S    
C35   C36   S    
C12   O16   S    
C17   C51   A    
C1    C33   S    
C7    C8    A    
C6    O24   S    
C38   C49   A    
H27   O25   S    
C16   C31   S    
C46   H17   S    
C12   C23   A    
C26   C27   A    
C1    O1    A    
C38   N1    A    
C42   O7    S    
C19   N2    S    
C16   O31   A    
C30   C31   D    
C28   C51   S    
C40   C50   A    
C40   O26   S    
C14   O21   S    
C18   C19   A    
O29   Zn1   S    
H29   N4    S    
C46   H18   S    
C44   O9    S    
C43   H2    S    
C20   C24   A    
C44   H7    S    
C8    C9    A    
C34   C49   A    
O2    Zn1   S    
C32   O15   S    
C4    O30   A    
C15   C51   A    
C9    C10   A    
C21   C22   A    
C36   O18   S    
O1    Zn1   S    
C4    O29   A    
C2    C6    A    
H15   O17   S    
H26   O24   S    
H14   O16   S    
O31   Zn1   S    
C25   C29   A    
C33   O17   S    
C2    C20   A    
C24   C48   A    
C37   N1    A    
C42   H33   S    
N3    Zn1   S    
O3    Zn2   S    
C11   N2    A    
C39   C40   A    
C42   H34   S    
C21   C34   A    
N4    Zn2   S    
C3    C5    A    
C23   N1    S    
C4    C50   S    
C31   O14   S    
C16   O32   A    
C47   H19   S    
C5    C9    A    
C12   C41   A    
C37   C45   A    
C35   N3    D    
C44   H5    S    
C43   H3    S    
C41   O5    S    
C44   H6    S    
C47   H20   S    
C46   O18   S    
C13   N2    A    
C17   C18   A    
C37   O4    S    
C28   O3    A    
C34   C45   A    
C1    O28   A    
C11   O27   S    
C39   O6    S    
C30   O13   S    
C43   H4    S    
C2    C5    A    
C18   O10   S    
C13   O12   S    
C41   C50   A    
C27   H1    S    
H11   O14   S    
C17   O9    S    
C45   C48   A    
H13   O15   S    
H24   O21   S    
H31   O6    S    
C29   O11   S    
C14   C19   A    
C3    C26   A    
C42   H32   S    
C43   O8    S    
H9    O11   S    
H22   O20   S    
C6    C7    A    
O30   Zn2   S    
C32   C33   D    
H10   O13   S    
O28   Zn2   S    
C46   H16   S    
C30   C32   S    
H30   O5    S    
C48   O19   S    
H25   O22   S    
C23   C39   A    
C7    O22   S    
C28   O2    A    
C25   C49   A    
C47   H21   S    
O32   Zn2   S    
C10   C11   A    
C26   O8    S    
C20   C21   A    
C25   O7    S    
C47   O19   S    
C14   C15   A    
C3    C22   A    
C35   H12   S    
H23   N3    S    
C38   O23   S    
