data_mof_unit_8731.cif
_audit_creation_date              2013-03-05T15:49:18-0500
_audit_creation_method            fapswitch 2.2
_symmetry_space_group_name_H-M    P1
_symmetry_Int_Tables_number       1
_space_group_crystal_system       triclinic
_cell_length_a                    20.574438
_cell_length_b                    22.78602
_cell_length_c                    6.940033
_cell_angle_alpha                 90.059519
_cell_angle_beta                  86.622698
_cell_angle_gamma                 90.026704
_cell_volume                      3247.90113937

loop_
_atom_site_label
_atom_site_type_symbol
_atom_site_description
_atom_site_fract_x
_atom_site_fract_y
_atom_site_fract_z
_atom_type_partial_charge
O1    O     O_R   0.387100 0.552640 0.378490 -0.599465
O2    O     O_R   0.612900 0.052640 0.621510 -0.600218
O3    O     O_R   0.249610 0.559600 0.072250 -0.569893
O4    O     O_R   0.750390 0.059600 0.927750 -0.577332
O5    O     O_R   0.249120 0.447360 0.902040 -0.569886
O6    O     O_R   0.750880 0.947360 0.097960 -0.571453
C1    C     C_R   0.225995 0.572533 0.244865 1.065638
C2    C     C_R   0.774327 0.072247 0.755247 1.067671
O7    O     O_R   0.386610 0.559560 0.048860 -0.602743
O8    O     O_R   0.613390 0.059560 0.951140 -0.605465
O9    O     O_R   0.387100 0.447320 0.878470 -0.596658
O10   O     O_R   0.612900 0.947320 0.121530 -0.602798
C3    C     C_R   0.407651 0.574950 0.214094 0.976405
C4    C     C_R   0.592110 0.074746 0.786024 0.944023
O11   O     O_R   0.249120 0.552680 0.402050 -0.584640
O12   O     O_R   0.750880 0.052680 0.597950 -0.576127
O13   O     O_3   0.318110 0.463180 0.223790 -0.277920
O14   O     O_3   0.681890 0.963180 0.776210 -0.264392
V1    V     V_3+5 0.318110 0.506830 0.948930 1.224056
V2    V     V_3+5 0.681890 0.006830 0.051070 1.220881
O15   O     O_R   0.386610 0.440400 0.548840 -0.600495
O16   O     O_R   0.613390 0.940400 0.451160 -0.605086
C5    C     C_R   0.407923 0.425420 0.713850 0.903945
C6    C     C_R   0.591975 0.925537 0.286188 0.897640
O17   O     O_R   0.249610 0.440440 0.572240 -0.578898
O18   O     O_R   0.750390 0.940440 0.427760 -0.556454
C7    C     C_R   0.226312 0.427459 0.744612 1.061571
C8    C     C_R   0.773338 0.926748 0.254879 1.035972
V3    V     V_3+5 0.318110 0.493170 0.448930 1.218951
V4    V     V_3+5 0.681890 0.993170 0.551070 1.229151
O19   O     O_3   0.318110 0.536820 0.723940 -0.278853
O20   O     O_3   0.681890 0.036820 0.276060 -0.277808
C9    C     C_R   0.175392 0.381920 0.760051 -0.274003
C10   C     C_R   0.826783 0.882991 0.237090 -0.295404
C11   C     C_R   0.190258 0.326618 0.679525 -0.221193
C12   C     C_R   0.832606 0.841711 0.385912 -0.141374
C13   C     C_R   0.142781 0.283003 0.674649 -0.104463
C14   C     C_R   0.883239 0.800898 0.378047 -0.066865
C15   C     C_R   0.078944 0.294423 0.744528 0.217001
C16   C     C_R   0.929073 0.800475 0.221038 0.232881
C17   C     C_R   0.063763 0.349151 0.828624 -0.126495
C18   C     C_R   0.923556 0.840637 0.070709 -0.204175
C19   C     C_R   0.111364 0.393236 0.838215 0.350663
C20   C     C_R   0.873203 0.882177 0.077579 0.351196
C21   C     C_R   0.876994 0.205323 0.859451 0.052380
C22   C     C_R   0.126358 0.707261 0.142386 0.011634
C23   C     C_R   0.831012 0.159948 0.878327 -0.178687
C24   C     C_R   0.171501 0.661292 0.123469 -0.168796
C25   C     C_R   0.873578 0.116408 0.576279 0.336791
C26   C     C_R   0.127121 0.617611 0.422800 0.327419
C27   C     C_R   0.920359 0.161878 0.557181 -0.115062
C28   C     C_R   0.080982 0.663572 0.441708 -0.090158
C29   C     C_R   0.921433 0.206476 0.697516 0.020635
C30   C     C_R   0.080925 0.708395 0.302159 0.029502
C31   C     C_2   0.029279 0.247599 0.737631 -0.412536
C32   C     C_2   0.982039 0.756953 0.210484 -0.427845
C33   C     C_2   0.969003 0.255215 0.673912 0.344748
C34   C     C_2   0.033109 0.757079 0.324834 0.362770
C35   C     C_R   0.827738 0.116101 0.736782 -0.300919
C36   C     C_R   0.173329 0.616986 0.263399 -0.284037
H1    H     H_    0.238938 0.317306 0.619033 0.124394
H2    H     H_    0.797575 0.840692 0.508587 0.161524
H3    H     H_    0.796230 0.159895 0.001775 0.151946
H4    H     H_    0.206898 0.661174 0.001505 0.148197
H5    H     H_    0.014772 0.357313 0.888547 0.171316
H6    H     H_    0.958984 0.840190 0.948712 0.181650
H7    H     H_    0.042589 0.204616 0.790698 0.153452
H8    H     H_    0.978979 0.722800 0.101854 0.147165
H9    H     H_    0.155524 0.240661 0.612125 0.123093
H10   H     H_    0.886714 0.769566 0.494303 0.115746
C37   C     C_R   0.576778 0.362870 0.664856 -0.155454
C38   C     C_R   0.423816 0.862379 0.353358 -0.150530
H11   H     H_    0.534943 0.448575 0.645848 0.108073
H12   H     H_    0.465757 0.948099 0.371419 0.109712
H13   H     H_    0.667389 0.281991 0.658114 0.153641
H14   H     H_    0.333655 0.781010 0.372202 0.148785
H15   H     H_    0.625687 0.379433 0.634096 0.130774
H16   H     H_    0.375331 0.878581 0.393076 0.129864
C39   C     C_R   0.461754 0.382747 0.711912 -0.083845
C40   C     C_R   0.538080 0.882931 0.289083 -0.086485
C41   C     C_R   0.474297 0.096116 0.823929 -0.012365
C42   C     C_R   0.524500 0.596816 0.164075 -0.009909
C43   C     C_R   0.420908 0.134049 0.830710 0.113762
C44   C     C_R   0.578076 0.634914 0.152376 0.073777
C45   C     C_R   0.430188 0.194262 0.801191 -0.249817
C46   C     C_R   0.569035 0.694986 0.186118 -0.227064
C47   C     C_R   0.492761 0.218758 0.764447 0.059936
C48   C     C_R   0.506895 0.719081 0.233774 0.061649
C49   C     C_R   0.548009 0.179924 0.756023 0.072353
C50   C     C_R   0.451903 0.679990 0.249311 0.056168
C51   C     C_R   0.501769 0.280886 0.735631 0.107290
C52   C     C_R   0.498055 0.781048 0.266522 0.104859
C53   C     C_R   0.565686 0.302711 0.696151 0.163061
C54   C     C_R   0.434653 0.802409 0.317463 0.162976
C55   C     C_R   0.618660 0.264728 0.687706 -0.275751
C56   C     C_R   0.381978 0.764122 0.333422 -0.273162
C57   C     C_R   0.610995 0.204530 0.717421 -0.008287
C58   C     C_R   0.389436 0.704079 0.299924 -0.011156
C59   C     C_R   0.449864 0.322585 0.744080 -0.243217
C60   C     C_R   0.549665 0.823006 0.251489 -0.242922
C61   C     C_R   0.525256 0.402412 0.671791 -0.170560
C62   C     C_R   0.475131 0.902143 0.340534 -0.175264
C63   C     C_R   0.538034 0.118066 0.787308 -0.232503
C64   C     C_R   0.461568 0.618418 0.212157 -0.211574
H17   H     H_    0.399772 0.310199 0.773882 0.096761
H18   H     H_    0.599371 0.810948 0.213476 0.097630
H19   H     H_    0.387035 0.220947 0.807864 0.119032
H20   H     H_    0.612075 0.721830 0.175044 0.116165
N1    N     N_3   0.968351 0.162451 0.398610 -0.202703
H21   H     H_    0.944651 0.166129 0.270254 0.155541
H22   H     H_    0.993589 0.122627 0.397134 0.164238
N2    N     N_3   0.032255 0.664174 0.598386 -0.207119
H23   H     H_    0.055319 0.667672 0.727957 0.160784
H24   H     H_    0.006773 0.624471 0.598175 0.166479
N3    N     N_3   0.462569 0.034527 0.853598 -0.208417
H25   H     H_    0.481326 0.011589 0.732147 0.105455
H26   H     H_    0.486980 0.020841 0.973604 0.111502
N4    N     N_3   0.533573 0.535283 0.125907 -0.213917
H27   H     H_    0.555400 0.530358 0.986921 0.119828
H28   H     H_    0.565057 0.518344 0.224803 0.106779
N5    N     N_3   0.356525 0.110452 0.867268 -0.200760
H29   H     H_    0.352911 0.095758 0.010180 0.117886
H30   H     H_    0.321273 0.143141 0.856584 0.099175
N6    N     N_3   0.642002 0.611913 0.103340 -0.214342
H31   H     H_    0.656571 0.588445 0.222741 0.109672
H32   H     H_    0.675705 0.645885 0.079747 0.106563
N7    N     N_3   0.668543 0.169247 0.708828 -0.216794
H33   H     H_    0.692693 0.174835 0.573211 0.117918
H34   H     H_    0.698821 0.184854 0.813191 0.094014
N8    N     N_3   0.332221 0.668405 0.317652 -0.218649
H35   H     H_    0.310987 0.673248 0.457432 0.122558
H36   H     H_    0.299503 0.684364 0.220819 0.087502
N9    N     N_R   0.874981 0.069359 0.438244 0.229602
O21   O     O_R   0.868660 0.080078 0.256265 -0.415990
O22   O     O_R   0.881909 0.015429 0.494833 -0.318617
N10   N     N_R   0.124665 0.570392 0.559779 0.234096
O23   O     O_R   0.130500 0.580858 0.742211 -0.390010
O24   O     O_R   0.117855 0.516559 0.501569 -0.345747
N11   N     N_R   0.949736 0.308272 0.579583 0.245894
O25   O     O_R   0.991775 0.338309 0.472442 -0.361926
O26   O     O_R   0.888213 0.320817 0.573088 -0.386776
N12   N     N_R   0.043969 0.802738 0.464441 0.245303
O27   O     O_R   0.012121 0.852065 0.465299 -0.337911
O28   O     O_R   0.092210 0.797894 0.576401 -0.427059
N13   N     N_3   0.877764 0.251337 0.001411 -0.176777
H37   H     H_    0.841351 0.244527 0.110670 0.130808
H38   H     H_    0.922136 0.249054 0.066979 0.125614
N14   N     N_3   0.127850 0.754109 0.003603 -0.179135
H39   H     H_    0.166999 0.748847 0.901984 0.141656
H40   H     H_    0.085661 0.750945 0.927697 0.154210
N15   N     N_R   0.092922 0.449207 0.920267 0.258640
O29   O     O_R   0.129822 0.475451 0.039385 -0.348132
O30   O     O_R   0.034684 0.469677 0.899944 -0.317069
N16   N     N_R   0.871819 0.924493 0.925757 0.245880
O31   O     O_R   0.831465 0.917574 0.790242 -0.379339
O32   O     O_R   0.919788 0.961361 0.899344 -0.310224

loop_
_geom_bond_atom_site_label_1
_geom_bond_atom_site_label_2
_geom_bond_distance
_ccdc_geom_bond_type
V4    O20   2.153106 S    
C14   H10   1.083416 S    
C47   C51   1.440269 A    
O13   V3    1.704727 S    
O4    C2    1.299980 A    
V1    O19   1.705073 S    
N2    H24   1.045460 S    
N13   H37   1.045701 S    
H13   C55   1.085181 S    
C15   C17   1.403812 A    
O18   C8    1.300917 A    
C7    C9    1.473685 S    
O9    V1    2.002815 S    
O10   V2    2.002606 S    
C21   N13   1.438708 S    
C39   C59   1.408119 A    
C11   C13   1.394955 A    
N14   H40   1.043986 S    
C13   H9    1.083435 S    
N1    H22   1.045448 S    
C2    C35   1.484980 S    
C23   H3    1.083452 S    
C9    C11   1.404464 A    
C46   C48   1.412743 A    
C24   H4    1.083609 S    
C28   N2    1.434961 S    
O12   V4    2.002765 S    
N3    H25   1.045694 S    
C33   N11   1.442187 S    
O7    V1    2.005664 S    
C21   C23   1.402111 A    
O7    C3    1.297261 A    
N4    H27   1.045683 S    
C38   H16   1.084029 S    
C49   C57   1.422755 A    
C41   C43   1.396652 A    
O5    C7    1.295647 A    
C6    C40   1.472701 S    
C15   C31   1.479660 S    
C48   C52   1.439837 A    
C22   N14   1.437609 S    
C25   C27   1.414845 A    
C56   C58   1.394521 A    
C26   C28   1.414599 A    
N15   O29   1.299958 A    
O3    V1    2.005459 S    
O14   V4    1.706026 S    
N16   O32   1.300620 A    
C57   N7    1.429764 S    
H12   C62   1.083766 S    
C24   C36   1.403594 A    
C38   C54   1.404304 A    
C1    O11   1.297457 A    
C37   C61   1.390174 A    
C8    C10   1.484337 S    
C2    O12   1.297703 A    
C49   C63   1.439124 A    
N9    O22   1.300904 A    
C17   C19   1.406851 A    
C41   N3    1.436855 S    
C18   C20   1.402320 A    
V2    O20   1.703773 S    
C12   H2    1.082856 S    
O1    V3    2.001960 S    
N2    H23   1.044142 S    
N13   H38   1.045113 S    
C28   C30   1.408290 A    
O11   V3    2.004119 S    
C45   C47   1.412414 A    
O17   V3    2.005164 S    
C59   H17   1.076734 S    
C22   C24   1.401177 A    
C23   C35   1.404774 A    
C9    C19   1.418453 A    
C10   C20   1.418933 A    
N14   H39   1.045694 S    
N10   O24   1.301129 A    
O8    C4    1.297928 A    
O8    V2    2.007315 S    
C29   C33   1.482757 S    
N10   O23   1.300577 A    
C17   H5    1.083577 S    
C16   C32   1.472350 S    
C32   H8    1.087324 S    
O15   V3    2.007807 S    
C40   C62   1.393645 A    
C27   C29   1.407898 A    
N8    H36   1.044515 S    
N7    H34   1.044764 S    
C51   C53   1.417394 A    
C34   N12   1.447160 S    
C22   C30   1.407764 A    
C52   C54   1.417543 A    
N5    H29   1.045618 S    
C11   H1    1.083903 S    
C43   N5    1.438113 S    
C3    C64   1.486287 S    
C54   C56   1.390353 A    
C50   C64   1.437994 A    
N16   O31   1.300090 A    
O5    V1    2.002162 S    
C43   C45   1.398777 A    
C48   C50   1.438765 A    
O18   V4    2.004886 S    
C42   C44   1.401408 A    
C31   C33   1.352265 D    
N9    O21   1.300619 A    
C30   C34   1.485107 S    
O16   C6    1.295435 A    
O1    C3    1.297326 A    
C42   N4    1.436824 S    
C58   N8    1.429654 S    
C1    C36   1.483570 S    
C37   H15   1.084028 S    
N12   O28   1.300831 A    
C19   N15   1.438130 S    
C52   C60   1.427831 A    
N6    H32   1.045585 S    
C41   C63   1.412355 A    
N3    H26   1.045503 S    
H11   C61   1.083767 S    
O16   V4    2.006156 S    
C60   H18   1.076693 S    
C46   H20   1.075076 S    
C44   C46   1.399097 A    
C16   C18   1.398146 A    
C31   H7    1.087540 S    
N11   O25   1.301601 A    
C55   C57   1.394778 A    
C37   C53   1.404546 A    
C44   N6    1.438022 S    
O6    V2    2.003515 S    
O10   C6    1.296368 A    
O3    C1    1.299550 A    
C25   C35   1.416521 A    
O2    V4    2.002170 S    
C26   C36   1.415583 A    
O15   C5    1.296279 A    
N8    H35   1.045935 S    
C27   N1    1.434651 S    
C20   N16   1.430509 S    
V3    O19   2.151273 S    
C26   N10   1.435383 S    
N1    H21   1.043874 S    
H14   C56   1.085179 S    
C12   C14   1.395404 A    
C14   C16   1.398426 A    
N11   O26   1.301196 A    
C4    C63   1.487312 S    
C53   C55   1.390561 A    
C38   C62   1.389868 A    
O9    C5    1.295818 A    
O13   V1    2.152182 S    
C10   C12   1.408019 A    
C32   C34   1.353548 D    
O14   V2    2.150350 S    
N15   O30   1.301434 A    
O2    C4    1.296806 A    
N4    H28   1.045382 S    
N5    H30   1.045604 S    
C21   C29   1.406639 A    
O4    V2    2.005737 S    
O6    C8    1.296382 A    
C13   C15   1.397477 A    
C25   N9    1.436134 S    
C18   H6    1.084213 S    
C47   C49   1.439262 A    
C42   C64   1.406937 A    
N12   O27   1.301108 A    
C39   C61   1.393602 A    
C5    C39   1.473607 S    
C51   C59   1.428328 A    
C45   H19   1.075058 S    
C50   C58   1.422498 A    
C40   C60   1.407678 A    
N7    H33   1.045956 S    
N6    H31   1.045368 S    
O17   C7    1.296675 A    
