data_mof_unit_40326.cif
_audit_creation_date              2012-12-10T18:00:18-0500
_audit_creation_method            fapswitch 2.2
_symmetry_space_group_name_H-M    P1
_symmetry_Int_Tables_number       1
_space_group_crystal_system       triclinic
_cell_length_a                    10.777576
_cell_length_b                    9.535148
_cell_length_c                    10.645077
_cell_angle_alpha                 89.781386
_cell_angle_beta                  90.05823
_cell_angle_gamma                 89.977396
_cell_volume                      1093.94105014

loop_
_atom_site_label
_atom_site_type_symbol
_atom_type_description
_atom_site_fract_x
_atom_site_fract_y
_atom_site_fract_z
_atom_type_partial_charge
C1    C     C_R   0.871393 0.500222 0.500058 -0.324837
C2    C     C_R   0.128607 0.499778 0.499942 -0.324837
C3    C     C_R   0.262450 0.499964 0.500053 0.943493
C4    C     C_R   0.737550 0.500036 0.499947 0.943497
C5    C     C_R   0.500119 0.500330 0.259464 0.851152
C6    C     C_R   0.499881 0.499670 0.740536 0.851144
C7    C     C_3   0.510742 0.634104 0.040426 -0.139521
C8    C     C_3   0.489257 0.365896 0.959574 -0.139531
C9    C     C_3   0.607743 0.556509 0.957568 -0.205399
C10   C     C_3   0.392257 0.443490 0.042432 -0.205396
C11   C     C_3   0.406059 0.574226 0.958729 0.180197
C12   C     C_3   0.593940 0.425774 0.041271 0.180198
C13   C     C_3   0.500573 0.498737 0.876940 -0.044002
C14   C     C_3   0.499426 0.501263 0.123060 -0.044001
C15   C     C_R   0.424997 0.074722 0.419962 0.021951
C16   C     C_R   0.575003 0.925277 0.580038 0.021951
C17   C     C_R   0.574974 0.073991 0.580064 0.015477
C18   C     C_R   0.425026 0.926008 0.419936 0.015477
C19   C     C_R   0.064680 0.428929 0.596174 0.305189
C20   C     C_R   0.935320 0.571071 0.403826 0.305190
C21   C     C_R   0.935389 0.429564 0.596451 0.306385
C22   C     C_R   0.064611 0.570436 0.403549 0.306385
Cu1   Cu    Cu3+1 0.500000 0.640660 0.500000 1.020279
Cu2   Cu    Cu3+1 0.500000 0.359340 0.500000 1.020280
H1    H     H_    0.364832 0.130944 0.355812 0.136204
H2    H     H_    0.635167 0.869056 0.644188 0.136204
H3    H     H_    0.635052 0.129616 0.644277 0.166590
H4    H     H_    0.364948 0.870383 0.355723 0.166591
H5    H     H_    0.516827 0.743645 0.074876 0.175856
H6    H     H_    0.483173 0.256355 0.925123 0.175855
H7    H     H_    0.696448 0.599627 0.921219 0.188776
H8    H     H_    0.303552 0.400373 0.078781 0.188776
N1    N     N_R   0.500000 0.852070 0.500000 -0.173696
N2    N     N_R   0.500000 0.147930 0.500000 -0.173696
O1    O     O_R   0.319640 0.618740 0.499990 -0.558108
O2    O     O_R   0.680360 0.381260 0.500010 -0.558107
O3    O     O_R   0.680360 0.618740 0.500010 -0.560084
O4    O     O_R   0.319640 0.381260 0.499990 -0.560084
O5    O     O_R   0.499970 0.618770 0.316850 -0.572635
O6    O     O_R   0.500030 0.381230 0.683150 -0.572634
O7    O     O_R   0.500030 0.618770 0.683150 -0.586945
O8    O     O_R   0.499970 0.381230 0.316850 -0.586942
N3    N     N_3   0.303299 0.657337 0.909906 -0.541885
H9    H     H_    0.252416 0.692871 0.986993 0.269972
H10   H     H_    0.245347 0.589752 0.859929 0.260190
N4    N     N_3   0.696700 0.342663 0.090094 -0.541880
H11   H     H_    0.747570 0.307103 0.013004 0.269964
H12   H     H_    0.754667 0.410257 0.140049 0.260198
Cl1   Cl    Cl    0.146018 0.343431 0.719239 -0.548109
Cl2   Cl    Cl    0.853982 0.656569 0.280761 -0.548110
Cl3   Cl    Cl    0.854054 0.347471 0.721195 -0.586491
Cl4   Cl    Cl    0.145946 0.652529 0.278805 -0.586490

loop_
_geom_bond_atom_site_label_1
_geom_bond_atom_site_label_2
_ccdc_geom_bond_type
C2    C22   A    
C15   C18   A    
Cu2   O4    S    
N3    H9    S    
C4    O2    A    
C1    C21   A    
C8    C13   S    
C7    H5    S    
C16   N1    A    
Cu2   O8    S    
C19   Cl1   S    
C15   N2    A    
Cu1   O7    S    
C3    O1    A    
C8    C12   S    
C1    C4    S    
C8    H6    S    
C2    C3    S    
C20   C22   A    
N3    H10   S    
Cu1   O3    S    
C6    C13   S    
C11   N3    S    
C11   C13   S    
C5    C14   S    
Cu2   O2    S    
Cu1   O5    S    
C12   N4    S    
C19   C21   A    
C12   C14   S    
C7    C11   S    
Cu1   O1    S    
C5    O5    A    
C16   H2    S    
C8    C10   S    
C18   N1    A    
N4    H12   S    
C15   H1    S    
C17   N2    A    
C9    H7    S    
Cu1   Cu2   S    
C17   H3    S    
C10   H8    S    
C21   Cl3   S    
C6    O6    A    
C18   H4    S    
C4    O3    A    
C5    O8    A    
C22   Cl4   S    
C10   C11   S    
C7    C9    S    
C9    C13   S    
N4    H11   S    
C1    C20   A    
C20   Cl2   S    
Cu2   O6    S    
C2    C19   A    
C9    C12   S    
C7    C14   S    
Cu2   N2    S    
C3    O4    A    
C10   C14   S    
C16   C17   A    
Cu1   N1    S    
C6    O7    A    
