data_mof_unit_66358.cif
_audit_creation_date              2012-10-26T18:35:09-0400
_audit_creation_method            fapswitch 2.2
_symmetry_space_group_name_H-M    P1
_symmetry_Int_Tables_number       1
_space_group_crystal_system       triclinic
_cell_length_a                    10.812283
_cell_length_b                    14.425486
_cell_length_c                    13.144995
_cell_angle_alpha                 90.000183
_cell_angle_beta                  90.048282
_cell_angle_gamma                 90.0
_cell_volume                      2050.25617712

loop_
_atom_site_label
_atom_site_type_symbol
_atom_type_description
_atom_site_fract_x
_atom_site_fract_y
_atom_site_fract_z
_atom_type_partial_charge
C1    C     C_R   0.500015 0.328727 0.500003 0.568441
C2    C     C_R   0.742823 0.499970 0.499921 0.628014
C3    C     C_R   0.500015 0.671275 0.500004 0.568487
C4    C     C_3   0.070650 0.587362 0.558795 0.154192
C5    C     C_3   0.070650 0.412583 0.558807 0.154190
C6    C     C_3   0.926405 0.589046 0.555842 0.135675
C7    C     C_3   0.926405 0.410897 0.555849 0.135670
C8    C     C_3   0.069584 0.499963 0.388152 -0.260653
C9    C     C_3   0.928387 0.499965 0.388959 -0.226373
C10   C     C_3   0.121616 0.499969 0.499252 -0.023086
C11   C     C_3   0.879078 0.499969 0.500000 0.019452
C12   C     C_1   0.500161 0.957584 0.500073 -0.007044
C13   C     C_1   0.500041 0.227160 0.500019 -0.045078
C14   C     C_1   0.500104 0.142337 0.500049 -0.051540
C15   C     C_1   0.500161 0.042418 0.500073 -0.007047
C16   C     C_3   0.140870 0.705916 0.444137 -0.078305
C17   C     C_3   0.140886 0.294019 0.444167 -0.078311
C18   C     C_3   0.844586 0.737479 0.576541 -0.105123
C19   C     C_3   0.844583 0.262465 0.576552 -0.105132
C20   C     C_1   0.500104 0.857665 0.500049 -0.051544
C21   C     C_1   0.500041 0.772842 0.500019 -0.045100
C22   C     C_1   0.499995 0.500024 0.173630 0.110760
C23   C     C_1   0.500004 0.500024 0.826370 0.113213
C24   C     C_1   0.499997 0.500025 0.050682 -0.053367
C25   C     C_1   0.500002 0.500025 0.949318 -0.052867
C26   C     C_R   0.257306 0.499971 0.499825 0.609242
Cu1   Cu    Cu3+1 0.500000 0.499990 0.592680 0.992521
Cu2   Cu    Cu3+1 0.500000 0.499990 0.407320 0.975452
H1    H     H_    0.103064 0.558955 0.342578 0.113172
H2    H     H_    0.161142 0.218671 0.445870 0.132412
H3    H     H_    0.818586 0.801251 0.534510 0.137609
H4    H     H_    0.921677 0.755367 0.629115 0.150617
H5    H     H_    0.762155 0.714204 0.620185 0.117642
H6    H     H_    0.762147 0.285742 0.620188 0.117642
H7    H     H_    0.921668 0.244580 0.629133 0.150621
H8    H     H_    0.818589 0.198690 0.534524 0.137614
H9    H     H_    0.092383 0.573691 0.640180 0.093934
H10   H     H_    0.092379 0.426264 0.640190 0.093932
H11   H     H_    0.891926 0.584266 0.636083 0.058703
H12   H     H_    0.103060 0.440964 0.342587 0.113171
H13   H     H_    0.891922 0.415679 0.636088 0.058707
H14   H     H_    0.894069 0.561956 0.347134 0.158791
H15   H     H_    0.894065 0.437974 0.347137 0.158793
H16   H     H_    0.054881 0.697858 0.399237 0.164318
H17   H     H_    0.221240 0.672612 0.406711 0.119553
H18   H     H_    0.161113 0.781265 0.445829 0.132407
H19   H     H_    0.221252 0.327327 0.406741 0.119536
H20   H     H_    0.054898 0.302063 0.399263 0.164326
N1    N     N_1   0.500000 0.500020 0.268070 -0.176963
N2    N     N_1   0.500000 0.500020 0.731930 -0.174788
O1    O     O_R   0.500000 0.376050 0.578280 -0.471248
O2    O     O_3   0.129689 0.324828 0.545364 -0.552309
O3    O     O_3   0.880610 0.669255 0.505622 -0.565998
O4    O     O_3   0.880615 0.330684 0.505631 -0.566009
O5    O     O_R   0.500000 0.376050 0.421720 -0.477930
O6    O     O_R   0.317680 0.499980 0.578260 -0.472891
O7    O     O_R   0.317680 0.499980 0.421740 -0.514334
O8    O     O_R   0.682320 0.499980 0.578260 -0.514116
O9    O     O_R   0.682320 0.499980 0.421740 -0.480237
O10   O     O_R   0.500000 0.623940 0.578240 -0.471218
O11   O     O_R   0.500000 0.623940 0.421760 -0.477896
O12   O     O_3   0.129686 0.675116 0.545338 -0.552306

loop_
_geom_bond_atom_site_label_1
_geom_bond_atom_site_label_2
_ccdc_geom_bond_type
C16   H17   S    
C1    C13   S    
C24   C25   T    
C2    O8    A    
C5    O2    S    
C1    O1    A    
Cu2   N1    S    
C16   H16   S    
C14   C15   S    
C12   C15   T    
C19   H8    S    
C17   H20   S    
Cu2   O11   S    
C10   C26   S    
C7    H13   S    
C1    O5    A    
C5    C10   S    
C19   H7    S    
Cu2   O7    S    
Cu1   O6    S    
C7    C11   S    
C17   H2    S    
C9    C11   S    
C12   C20   S    
C9    H14   S    
C18   H4    S    
C16   O12   S    
C22   N1    T    
C2    C11   S    
C17   O2    S    
C8    C10   S    
C18   H5    S    
Cu2   O5    S    
Cu1   O1    S    
C3    O10   A    
Cu1   O10   S    
C23   C25   S    
C26   O7    A    
C22   C24   S    
C3    C21   S    
C9    H15   S    
C8    H1    S    
C6    O3    S    
C4    C10   S    
C4    O12   S    
C6    C11   S    
C5    H10   S    
C20   C21   T    
C19   O4    S    
Cu1   N2    S    
C4    C6    S    
Cu2   O9    S    
C16   H18   S    
Cu1   Cu2   S    
C5    C7    S    
C6    H11   S    
C8    C9    S    
C23   N2    T    
C18   H3    S    
C8    H12   S    
C7    O4    S    
C13   C14   T    
C2    O9    A    
Cu1   O8    S    
C18   O3    S    
C17   H19   S    
C3    O11   A    
C4    H9    S    
C19   H6    S    
C26   O6    A    
