data_mof_unit_26746.cif
_audit_creation_date              2012-12-11T20:24:12-0500
_audit_creation_method            fapswitch 2.2
_symmetry_space_group_name_H-M    P1
_symmetry_Int_Tables_number       1
_space_group_crystal_system       triclinic
_cell_length_a                    8.243351
_cell_length_b                    17.297393
_cell_length_c                    19.043394
_cell_angle_alpha                 102.904115
_cell_angle_beta                  91.86323
_cell_angle_gamma                 98.324538
_cell_volume                      2612.97943268

loop_
_atom_site_label
_atom_site_type_symbol
_atom_type_description
_atom_site_fract_x
_atom_site_fract_y
_atom_site_fract_z
_atom_type_partial_charge
Ba1   Ba    Ba6+2 0.854170 0.535040 0.467640 1.640097
Ba2   Ba    Ba6+2 0.335670 0.465030 0.532370 1.635030
C1    C     C_3   0.712047 0.823553 0.291095 -0.366827
C2    C     C_3   0.653303 0.744843 0.312141 0.356534
C3    C     C_3   0.463068 0.337469 0.307794 0.313937
C4    C     C_3   0.445271 0.313515 0.225780 -0.389962
C5    C     C_3   0.068526 0.300058 0.719811 0.370513
C6    C     C_3   0.106758 0.281477 0.793025 -0.218599
C7    C     C_3   0.534928 0.248113 0.664638 0.366605
C8    C     C_3   0.474395 0.163703 0.673430 -0.356357
C9    C     C_R   0.052427 0.546342 0.804139 -0.155617
C10   C     C_R   0.017939 0.530754 0.728618 0.054188
C11   C     C_R   0.850636 0.431695 0.807703 -0.159168
C12   C     C_3   0.108210 0.709020 0.284287 0.383824
C13   C     C_R   0.782985 0.435974 0.740608 0.001632
C14   C     C_R   0.335584 0.571493 0.194762 -0.161202
C15   C     C_R   0.404897 0.563314 0.260298 0.002721
C16   C     C_R   0.131184 0.457064 0.195932 -0.153122
C17   C     C_R   0.169550 0.469226 0.271050 0.053979
C18   C     C_R   0.979745 0.491738 0.845125 0.004896
C19   C     C_R   0.876334 0.478534 0.698397 -0.243550
C20   C     C_R   0.206088 0.512745 0.156152 0.001874
C21   C     C_R   0.313772 0.518466 0.301036 -0.236183
C22   C     C_R   0.754290 0.452898 0.958648 -0.081871
C23   C     C_3   0.088125 0.742835 0.217822 -0.379398
C24   C     C_R   0.649861 0.423684 0.005764 -0.079551
C25   C     C_R   0.701275 0.438080 0.077691 -0.066623
C26   C     C_R   0.859620 0.476858 0.100278 -0.079983
C27   C     C_R   0.980336 0.487295 0.051252 0.014457
C28   C     C_R   0.925073 0.478362 0.977023 0.036580
C29   C     C_R   0.149643 0.510127 0.076624 -0.017681
C30   C     C_R   0.262052 0.529337 0.024670 0.035899
C31   C     C_R   0.206978 0.520984 0.950339 0.016971
C32   C     C_R   0.037416 0.496873 0.924875 -0.017690
C33   C     C_R   0.432430 0.555364 0.043496 -0.081276
C34   C     C_3   0.244342 0.712092 0.630679 0.319996
C35   C     C_R   0.537273 0.585229 0.996905 -0.074864
C36   C     C_R   0.486415 0.572108 0.925083 -0.069102
C37   C     C_R   0.328269 0.533770 0.901773 -0.083834
C38   C     C_2   0.443591 0.717681 0.479710 -0.252535
C39   C     C_3   0.367778 0.763482 0.431995 -0.051212
C40   C     C_2   0.421910 0.852339 0.454578 -0.108638
C41   C     C_2   0.555068 0.883308 0.500909 0.009548
C42   C     C_2   0.636803 0.828696 0.535797 -0.128575
C43   C     C_1   0.576094 0.751398 0.523021 0.056059
C44   C     C_R   0.804523 0.137841 0.531308 -0.127001
C45   C     C_3   0.275188 0.803414 0.650604 -0.385222
C46   C     C_R   0.861864 0.219817 0.542599 0.011985
C47   C     C_R   0.620767 0.236894 0.474651 0.027640
C48   C     C_R   0.563755 0.154843 0.462492 -0.121294
C49   C     C_R   0.653799 0.105092 0.491684 0.012835
C50   C     C_2   0.620650 0.970279 0.518734 -0.076615
C51   C     C_2   0.593424 0.018363 0.474418 -0.076409
C52   C     C_R   0.767148 0.269590 0.516548 -0.287912
C53   C     C_3   0.950619 0.285895 0.366891 0.314734
C54   C     C_3   0.922255 0.194646 0.344325 -0.390269
C55   C     C_3   0.724932 0.647823 0.689310 0.320829
C56   C     C_3   0.739414 0.671517 0.771357 -0.401339
H1    H     H_    0.691567 0.751501 0.370003 0.056711
H2    H     H_    0.372053 0.825289 0.695434 0.112511
H3    H     H_    0.315735 0.826868 0.603370 0.075704
H4    H     H_    0.160306 0.826531 0.667679 0.130728
H5    H     H_    0.833986 0.306949 0.382571 0.006367
H6    H     H_    0.042656 0.304983 0.413645 0.075035
H7    H     H_    0.823436 0.173675 0.300255 0.125211
H8    H     H_    0.885729 0.168639 0.390593 0.068008
H9    H     H_    0.037126 0.173040 0.325124 0.126465
H10   H     H_    0.841487 0.629658 0.669846 0.001902
H11   H     H_    0.623789 0.596376 0.672261 0.079714
H12   H     H_    0.846664 0.841105 0.302586 0.151999
H13   H     H_    0.845273 0.720235 0.790447 0.121836
H14   H     H_    0.758277 0.619006 0.793269 0.060390
H15   H     H_    0.624943 0.692575 0.791738 0.124757
H16   H     H_    0.517421 0.733801 0.304074 -0.066196
H17   H     H_    0.650620 0.871785 0.322777 0.067049
H18   H     H_    0.345170 0.354140 0.327775 0.011261
H19   H     H_    0.561668 0.390296 0.323893 0.074949
H20   H     H_    0.344200 0.262141 0.207558 0.124491
H21   H     H_    0.416671 0.364884 0.204165 0.057320
H22   H     H_    0.561793 0.296149 0.204335 0.126111
H23   H     H_    0.681103 0.817441 0.232715 0.106585
H24   H     H_    0.135152 0.704047 0.170739 0.070912
H25   H     H_    0.132505 0.361525 0.720770 0.060764
H26   H     H_    0.934214 0.298002 0.711645 -0.082963
H27   H     H_    0.242127 0.289491 0.803588 0.128666
H28   H     H_    0.060991 0.325213 0.836812 0.036697
H29   H     H_    0.671029 0.256557 0.666393 -0.076246
H30   H     H_    0.485142 0.253386 0.611327 0.075779
H31   H     H_    0.530741 0.119395 0.634249 0.071459
H32   H     H_    0.338947 0.149187 0.663618 0.155369
H33   H     H_    0.034534 0.648014 0.274518 0.078196
H34   H     H_    0.508705 0.158798 0.728808 0.099183
H35   H     H_    0.142062 0.598086 0.829134 0.063862
H36   H     H_    0.797457 0.382646 0.830345 0.062373
H37   H     H_    0.388727 0.621855 0.173801 0.065767
H38   H     H_    0.037544 0.407278 0.170531 0.068860
H39   H     H_    0.833732 0.474450 0.643160 0.066140
H40   H     H_    0.359785 0.518735 0.354975 0.063342
H41   H     H_    0.693051 0.459662 0.910503 0.082055
H42   H     H_    0.522434 0.399837 0.988493 0.077257
H43   H     H_    0.614585 0.425207 0.116601 0.089862
H44   H     H_    0.240083 0.704049 0.290999 -0.084997
H45   H     H_    0.887121 0.499856 0.156589 0.131717
H46   H     H_    0.493412 0.548582 0.091617 0.079731
H47   H     H_    0.664557 0.609032 0.014514 0.078017
H48   H     H_    0.573275 0.585840 0.886549 0.080788
H49   H     H_    0.303598 0.513426 0.845068 0.130958
H50   H     H_    0.521770 0.994418 0.423461 0.067137
H51   H     H_    0.744709 0.853152 0.572673 0.077642
H52   H     H_    0.881061 0.099728 0.550080 0.074349
H53   H     H_    0.694681 0.994662 0.569156 0.072146
H54   H     H_    0.353864 0.889771 0.430125 0.068310
H55   H     H_    0.957105 0.744881 0.204835 0.150129
H56   H     H_    0.451033 0.129620 0.429305 0.073096
H57   H     H_    0.399496 0.653793 0.470240 0.074394
H58   H     H_    0.812931 0.332983 0.524429 0.069283
H59   H     H_    0.158829 0.804383 0.227309 0.105977
H60   H     H_    0.361034 0.690014 0.616832 0.001940
H61   H     H_    0.154325 0.692192 0.583179 0.084352
O1    O     O_2   0.873520 0.443690 0.322540 -0.461347
O2    O     O_3   0.693408 0.713804 0.662748 -0.635131
O3    O     O_3   0.055389 0.759694 0.345084 -0.588824
O4    O     O_2   0.316180 0.556340 0.677510 -0.473016
O5    O     O_3   0.067690 0.549150 0.588340 -0.495001
O6    O     O_3   0.526120 0.408390 0.624220 -0.468591
O7    O     O_3   0.184223 0.684230 0.689899 -0.634010
O8    O     O_3   0.608980 0.401570 0.457310 -0.486265
O9    O     O_3   0.103650 0.364840 0.585560 -0.486600
O10   O     O_2   0.194625 0.223500 0.530867 -0.482419
O11   O     O_3   0.124012 0.243457 0.664820 -0.595343
O12   O     O_3   0.122020 0.450920 0.411670 -0.494314
O13   O     O_3   0.580730 0.598500 0.542710 -0.499524
O14   O     O_2   0.336360 0.303040 0.452600 -0.456899
O15   O     O_3   0.502630 0.272623 0.334523 -0.640515
O16   O     O_2   0.458751 0.457698 0.755848 -0.509010
O17   O     O_3   0.480787 0.304414 0.720466 -0.594016
O18   O     O_3   0.663590 0.591680 0.375790 -0.467991
O19   O     O_2   0.716049 0.525821 0.245899 -0.506697
O20   O     O_3   0.006104 0.315953 0.308186 -0.635269
O21   O     O_3   0.721311 0.682127 0.268914 -0.594893
O22   O     O_2   0.853350 0.696990 0.547450 -0.457662
O23   O     O_3   0.086060 0.635230 0.414460 -0.483501
O24   O     O_2   0.055790 0.782469 0.486986 -0.481023
P1    P     P_3+3 0.040700 0.421000 0.332140 0.975648
P2    P     P_3+3 0.677490 0.686860 0.568200 0.975111
P3    P     P_3+3 0.140234 0.737472 0.422234 0.957151
P4    P     P_3+3 0.149010 0.579070 0.667870 0.973853
P5    P     P_3+3 0.070464 0.261987 0.581169 0.952754
P6    P     P_3+3 0.624823 0.592111 0.286218 0.932231
P7    P     P_3+3 0.517277 0.300856 0.428997 0.944745
P8    P     P_3+3 0.564608 0.400410 0.711923 0.930497
C57   C     C_R   0.029750 0.197628 0.795404 0.092073
C58   C     C_R   0.128502 0.138299 0.797459 -0.040438
C59   C     C_R   0.056638 0.060163 0.798158 -0.075911
C60   C     C_R   0.886002 0.040879 0.797659 -0.055523
C61   C     C_R   0.787019 0.099792 0.796754 -0.072973
C62   C     C_R   0.858336 0.177933 0.795570 -0.063213
H62   H     H_    0.260863 0.152344 0.798276 0.060026
H63   H     H_    0.133304 0.014590 0.799208 0.062884
H64   H     H_    0.830532 0.980393 0.798322 0.067306
H65   H     H_    0.655050 0.084792 0.797133 0.058516
H66   H     H_    0.780429 0.223123 0.794995 0.058027

loop_
_geom_bond_atom_site_label_1
_geom_bond_atom_site_label_2
_ccdc_geom_bond_type
O24   P3    D    
C5    H25   S    
C53   C54   S    
C17   P1    S    
C12   O3    S    
C22   H41   S    
C16   H38   S    
C39   C40   S    
O23   P3    S    
Ba1   P2    S    
O1    P1    D    
Ba1   O13   S    
C45   H4    S    
C13   P8    S    
C55   C56   S    
C5    C6    S    
Ba2   O4    S    
C42   C43   D    
C37   H49   S    
C24   C25   A    
C31   C37   A    
C47   P7    S    
C43   P2    S    
O13   P2    S    
C10   P4    S    
C61   C62   A    
C6    C57   S    
C35   C36   A    
C22   C24   A    
C16   C17   A    
O8    P7    S    
C36   C37   A    
C54   H8    S    
C41   C50   S    
C12   H44   S    
C38   H57   S    
C47   C52   A    
O15   P7    S    
C46   P5    S    
C53   O20   S    
C34   C45   S    
C6    H27   S    
C58   H62   S    
C34   H61   S    
C40   H54   S    
O10   P5    D    
Ba1   O23   S    
O6    P8    S    
C45   H2    S    
C39   P3    S    
C8    H31   S    
C14   C15   A    
C5    O11   S    
C53   H5    S    
C1    H23   S    
Ba2   O13   S    
C1    H17   S    
C7    C8    S    
C2    H16   S    
O22   P2    D    
C18   C32   S    
C42   H51   S    
C9    H35   S    
C5    H26   S    
C8    H34   S    
O18   P6    S    
C38   C43   D    
Ba2   O12   S    
O19   P6    D    
C3    O15   S    
O5    P4    S    
C44   C46   A    
C9    C18   A    
Ba2   O14   S    
C20   C29   S    
C28   C32   A    
O11   P5    S    
C30   C33   A    
C1    H12   S    
C51   H50   S    
C33   H46   S    
C46   C52   A    
O9    P5    S    
C62   H66   S    
C50   H53   S    
Ba2   P4    S    
C44   C49   A    
C25   H43   S    
C52   H58   S    
C48   H56   S    
Ba1   O1    S    
C36   H48   S    
C17   C21   A    
C41   C42   S    
C7    O17   S    
C35   H47   S    
C27   C28   A    
C23   H55   S    
C2    O21   S    
C19   H39   S    
O20   P1    S    
C4    H22   S    
C29   C30   A    
O7    P4    S    
C53   H6    S    
C48   C49   A    
C15   C21   A    
C59   C60   A    
C38   C39   S    
O4    P4    D    
C61   H65   S    
C11   C13   A    
C23   H24   S    
O2    P2    S    
C40   C41   D    
C55   H10   S    
C3    H19   S    
C1    C2    S    
C60   C61   A    
O17   P8    S    
Ba1   O18   S    
C50   C51   D    
C57   C62   A    
C26   C27   A    
C14   H37   S    
C14   C20   A    
C11   C18   A    
C33   C35   A    
C60   H64   S    
C16   C20   A    
C15   P6    S    
C34   O7    S    
O14   P7    D    
Ba1   O8    S    
Ba1   O12   S    
C23   H59   S    
C45   H3    S    
C9    C10   A    
Ba2   O5    S    
C54   H9    S    
C4    H20   S    
C11   H36   S    
C55   H11   S    
C30   C31   A    
C3    H18   S    
C44   H52   S    
Ba1   O5    S    
C59   H63   S    
C7    H30   S    
Ba1   P1    S    
Ba2   O8    S    
C26   H45   S    
C56   H14   S    
C4    H21   S    
C3    C4    S    
O16   P8    D    
Ba1   Ba2   S    
C2    H1    S    
C31   C32   A    
C6    H28   S    
O3    P3    S    
C12   C23   S    
C56   H13   S    
C22   C28   A    
C12   H33   S    
Ba1   O22   S    
C55   O2    S    
C10   C19   A    
Ba2   O6    S    
C13   C19   A    
C21   H40   S    
C57   C58   A    
C8    H32   S    
C27   C29   A    
C47   C48   A    
C25   C26   A    
C34   H60   S    
C49   C51   S    
C58   C59   A    
O21   P6    S    
C7    H29   S    
O12   P1    S    
C54   H7    S    
C56   H15   S    
C24   H42   S    
Ba2   O9    S    
