data_mof_unit_12034.cif
_audit_creation_date              2012-12-11T16:20:10-0500
_audit_creation_method            fapswitch 2.2
_symmetry_space_group_name_H-M    P1
_symmetry_Int_Tables_number       1
_space_group_crystal_system       triclinic
_cell_length_a                    13.537276
_cell_length_b                    13.959947
_cell_length_c                    30.077519
_cell_angle_alpha                 97.930133
_cell_angle_beta                  90.146865
_cell_angle_gamma                 118.790695
_cell_volume                      4918.15190822

loop_
_atom_site_label
_atom_site_type_symbol
_atom_type_description
_atom_site_fract_x
_atom_site_fract_y
_atom_site_fract_z
_atom_type_partial_charge
C1    C     C_R   0.722499 0.099881 0.568401 0.542446
C2    C     C_1   0.364509 0.693183 0.769415 -0.009605
C3    C     C_1   0.367219 0.699174 0.729985 -0.002187
C4    C     C_R   0.384523 0.790146 0.551845 0.531161
C5    C     C_R   0.304642 0.608117 0.899501 0.033572
C6    C     C_3   0.282792 0.020085 0.719965 -0.303140
C7    C     C_3   0.331269 0.216456 0.716581 -0.148476
C8    C     C_3   0.311643 0.232622 0.767053 0.148293
C9    C     C_1   0.301161 0.193430 0.878683 -0.015607
C10   C     C_3   0.373380 0.131134 0.706757 0.009627
C11   C     C_3   0.263026 0.036026 0.770598 -0.327945
C12   C     C_R   0.365020 0.705044 0.682941 0.043676
C13   C     C_3   0.340356 0.158155 0.792828 0.073899
C14   C     C_3   0.465815 0.186255 0.787757 0.261093
C15   C     C_3   0.485105 0.171869 0.736452 0.187541
C16   C     C_R   0.428300 0.096532 0.573207 0.559280
C17   C     C_1   0.318073 0.172533 0.840324 -0.023551
C18   C     C_1   0.390595 0.116243 0.658704 -0.024419
C19   C     C_1   0.406611 0.106970 0.619483 0.015344
C20   C     C_3   0.744809 0.113617 0.722838 -0.274850
C21   C     C_3   0.909105 0.303140 0.718652 0.160304
C22   C     C_3   0.937079 0.321016 0.771243 0.558922
C23   C     C_R   0.270876 0.700915 0.661597 -0.088178
C24   C     C_1   0.957279 0.227042 0.873070 -0.008383
C25   C     C_3   0.853204 0.178029 0.698362 0.020529
C26   C     C_3   0.772743 0.128569 0.774146 -0.240518
C27   C     C_3   0.902336 0.203489 0.785537 0.082165
C28   C     C_R   0.719903 0.095339 0.442627 0.549156
C29   C     C_3   0.954586 0.138055 0.757840 -0.275861
C30   C     C_3   0.934873 0.133129 0.706721 -0.237566
C31   C     C_1   0.930142 0.215553 0.833844 -0.023387
C32   C     C_1   0.819277 0.159351 0.650304 0.000528
C33   C     C_1   0.780746 0.136983 0.612001 0.022728
C34   C     C_R   0.272822 0.718901 0.617065 -0.117015
C35   C     C_3   0.302591 0.724248 0.270919 -0.205639
C36   C     C_3   0.232327 0.523774 0.279355 0.111624
C37   C     C_3   0.218768 0.489107 0.227033 0.195287
C38   C     C_1   0.268307 0.537972 0.114933 0.014470
C39   C     C_3   0.331217 0.644687 0.292799 0.054818
C40   C     C_R   0.381650 0.783139 0.425206 0.549779
C41   C     C_3   0.278413 0.688978 0.219366 0.064465
C42   C     C_3   0.300216 0.590250 0.204464 0.014195
C43   C     C_3   0.424292 0.628345 0.220757 -0.163079
C44   C     C_3   0.442858 0.650952 0.273680 0.499216
C45   C     C_R   0.249579 0.658185 0.833191 -0.120195
C46   C     C_1   0.284214 0.561443 0.155192 -0.001006
C47   C     C_1   0.345563 0.682119 0.341728 0.005149
C48   C     C_1   0.360300 0.723057 0.380688 0.003920
C49   C     C_R   0.358059 0.132289 0.400470 0.020775
C50   C     C_R   0.420682 0.233823 0.384850 -0.126553
C51   C     C_R   0.404754 0.241677 0.340005 -0.109309
C52   C     C_R   0.396252 0.114648 0.442901 0.553255
C53   C     C_R   0.326077 0.148437 0.310625 0.038906
C54   C     C_R   0.256805 0.049804 0.326664 -0.116574
C55   C     C_R   0.272143 0.041826 0.371562 -0.126531
C56   C     C_R   0.225961 0.622893 0.874747 -0.158171
C57   C     C_R   0.240905 0.087462 0.146721 -0.124600
C58   C     C_R   0.233488 0.108104 0.103154 -0.129891
C59   C     C_R   0.409530 0.281437 0.120194 -0.113583
C60   C     C_R   0.416669 0.260619 0.163715 -0.083572
C61   C     C_R   0.330454 0.165599 0.177340 0.040021
C62   C     C_1   0.327197 0.155580 0.223927 -0.015076
C63   C     C_1   0.324804 0.151259 0.263428 -0.013278
C64   C     C_R   0.369442 0.741685 0.593555 0.018037
C65   C     C_R   0.315227 0.207634 0.090174 0.023797
C66   C     C_R   0.778903 0.133200 0.402292 0.019800
C67   C     C_R   0.412135 0.637796 0.883301 0.273774
C68   C     C_R   0.796986 0.060110 0.370767 -0.113476
C69   C     C_R   0.825018 0.084864 0.327676 -0.110263
C70   C     C_R   0.835727 0.182769 0.315981 0.047965
C71   C     C_R   0.827281 0.260094 0.348174 -0.082298
C72   C     C_R   0.799464 0.235716 0.391289 -0.123492
C73   C     C_R   0.893757 0.309424 0.167816 -0.134433
C74   C     C_R   0.917443 0.314820 0.122931 -0.183489
C75   C     C_R   0.850236 0.116098 0.108889 0.279130
C76   C     C_R   0.460448 0.737778 0.614411 -0.125621
C77   C     C_R   0.823594 0.111539 0.153909 -0.107163
C78   C     C_R   0.435143 0.674158 0.841229 -0.071341
C79   C     C_R   0.850629 0.208471 0.183501 -0.025190
C80   C     C_1   0.845455 0.204836 0.230638 -0.014542
C81   C     C_1   0.842761 0.197510 0.269882 0.003873
C82   C     C_R   0.900283 0.219479 0.093483 0.025555
C83   C     C_R   0.283853 0.231940 0.922786 0.534956
C84   C     C_R   0.266907 0.548753 0.938493 0.567509
C85   C     C_R   0.995146 0.241505 0.919010 0.556673
C86   C     C_R   0.292396 0.242980 0.049312 0.532890
C87   C     C_R   0.244923 0.507105 0.067337 0.556896
C88   C     C_R   0.458321 0.720007 0.658994 -0.113419
C89   C     C_R   0.352058 0.679478 0.815659 -0.017241
C90   C     C_R   0.953896 0.233044 0.050434 0.568608
C91   C     C_3   0.600266 0.297531 0.848074 -0.079976
C92   C     C_3   0.897065 0.468549 0.793601 -0.053536
C93   C     C_3   0.137582 0.379414 0.779958 -0.068956
C94   C     C_3   0.146315 0.298195 0.211431 -0.133666
C95   C     C_3   0.640439 0.772937 0.273734 -0.119535
C96   C     C_3   0.495500 0.581043 0.332685 -0.108162
C97   C     C_3   0.884715 0.969564 0.094767 -0.095386
C98   C     C_3   0.522520 0.557153 0.890153 -0.052837
Cl1   Cl    Cl    0.386710 0.376859 0.790487 -0.661261
Cl2   Cl    Cl    0.599574 0.295152 0.720557 -0.584491
Cl3   Cl    Cl    0.025709 0.389061 0.688428 -0.648745
Cl4   Cl    Cl    0.137840 0.658765 0.202009 -0.631503
Cl5   Cl    Cl    0.100981 0.506027 0.299975 -0.661304
Cr1   Cr    Cr6+3 0.583400 0.162540 0.509180 1.042263
Cr2   Cr    Cr6+3 0.584070 0.916690 0.495550 1.014822
Cr3   Cr    Cr6+3 0.332550 0.920810 0.495240 1.031411
Cr4   Cr    Cr6+3 0.086700 0.177000 0.983690 1.026194
Cr5   Cr    Cr6+3 0.336880 0.419130 0.994740 1.038626
Cr6   Cr    Cr6+3 0.084850 0.422220 0.995960 1.028779
H1    H     H_    0.143047 0.601079 0.886192 0.148002
H2    H     H_    0.185007 0.662447 0.813508 0.138114
H3    H     H_    0.723790 0.163299 0.792938 0.163661
H4    H     H_    0.684888 0.143984 0.716912 0.164480
H5    H     H_    0.845181 0.329264 0.712419 0.182693
H6    H     H_    0.898444 0.045804 0.689663 0.122482
H7    H     H_    0.016544 0.181302 0.692160 0.165457
H8    H     H_    0.913375 0.051707 0.765256 0.127965
H9    H     H_    0.197897 0.688422 0.679955 0.139251
H10   H     H_    0.702091 0.023837 0.708643 0.122802
H11   H     H_    0.743749 0.045972 0.784358 0.111859
H12   H     H_    0.201773 0.988486 0.699284 0.139063
H13   H     H_    0.044074 0.168504 0.767711 0.087016
H14   H     H_    0.229333 0.727681 0.286171 0.216231
H15   H     H_    0.251420 0.466986 0.295557 0.187078
H16   H     H_    0.130888 0.463877 0.214014 0.193838
H17   H     H_    0.201563 0.721569 0.602057 0.140120
H18   H     H_    0.480859 0.704313 0.206527 0.084279
H19   H     H_    0.374823 0.810176 0.278306 0.129038
H20   H     H_    0.336745 0.760370 0.202944 0.148192
H21   H     H_    0.447966 0.564813 0.206615 0.169949
H22   H     H_    0.160346 0.049496 0.080615 0.122124
H23   H     H_    0.393101 0.296306 0.706281 0.227601
H24   H     H_    0.173758 0.013785 0.157217 0.120221
H25   H     H_    0.195428 0.977463 0.303978 0.128587
H26   H     H_    0.222612 0.962531 0.382608 0.140950
H27   H     H_    0.486998 0.304957 0.406407 0.128809
H28   H     H_    0.536210 0.755216 0.597300 0.135824
H29   H     H_    0.486040 0.321570 0.187447 0.128043
H30   H     H_    0.473705 0.358827 0.111204 0.134176
H31   H     H_    0.458124 0.318526 0.327687 0.121083
H32   H     H_    0.956941 0.395271 0.112226 0.168115
H33   H     H_    0.914604 0.384773 0.190740 0.185369
H34   H     H_    0.250524 0.187052 0.695999 0.080705
H35   H     H_    0.836019 0.336287 0.339278 0.155093
H36   H     H_    0.786809 0.293949 0.414986 0.132483
H37   H     H_    0.781743 0.980630 0.378251 0.132916
H38   H     H_    0.786410 0.033189 0.166358 0.109412
H39   H     H_    0.516226 0.695326 0.827989 0.128594
H40   H     H_    0.832077 0.024967 0.302768 0.098624
H41   H     H_    0.531160 0.722449 0.675290 0.120248
H42   H     H_    0.172611 0.012508 0.774055 0.126723
H43   H     H_    0.658369 0.264147 0.838991 0.137409
H44   H     H_    0.541839 0.250642 0.872587 0.098339
H45   H     H_    0.221105 0.206895 0.769726 0.087539
H46   H     H_    0.652259 0.384570 0.864784 0.141240
H47   H     H_    0.822666 0.480936 0.798874 0.164980
H48   H     H_    0.931399 0.498468 0.761713 0.158529
H49   H     H_    0.960912 0.519207 0.822354 0.138284
H50   H     H_    0.131162 0.332933 0.746284 0.163720
H51   H     H_    0.218744 0.457172 0.782224 0.200412
H52   H     H_    0.143987 0.337647 0.807753 0.122282
H53   H     H_    0.094064 0.283390 0.180089 0.124020
H54   H     H_    0.096366 0.290680 0.241340 0.146466
H55   H     H_    0.170729 0.232683 0.208821 0.153716
H56   H     H_    0.509965 0.106467 0.729834 0.060270
H57   H     H_    0.669702 0.832620 0.249538 0.113546
H58   H     H_    0.638618 0.695461 0.257433 0.147863
H59   H     H_    0.703845 0.808821 0.303155 0.125981
H60   H     H_    0.545048 0.668888 0.348912 0.157903
H61   H     H_    0.549643 0.542581 0.336092 0.125078
H62   H     H_    0.419685 0.536660 0.351149 0.115142
H63   H     H_    0.973957 0.030554 0.107174 0.099130
H64   H     H_    0.887263 0.911647 0.066158 0.152103
H65   H     H_    0.839963 0.920058 0.121305 0.104809
H66   H     H_    0.445651 0.474382 0.882842 0.194437
H67   H     H_    0.478781 0.123185 0.802390 0.026817
H68   H     H_    0.567364 0.579839 0.859207 0.151565
H69   H     H_    0.580250 0.550754 0.914340 0.133406
H70   H     H_    0.310430 0.956525 0.713050 0.124552
H71   H     H_    0.280378 0.979556 0.787921 0.120807
O1    O     O_R   0.494060 0.188820 0.559230 -0.483302
O2    O     O_R   0.170530 0.527770 0.952070 -0.528416
O3    O     O_R   0.987720 0.318450 0.945940 -0.485083
O4    O     O_R   0.678470 0.153390 0.554100 -0.498769
O5    O     O_R   0.976400 0.159230 0.032040 -0.460525
O6    O     O_R   0.193740 0.188470 0.029020 -0.509409
O7    O     O_R   0.364860 0.335530 0.039220 -0.521029
O8    O     O_R   0.330170 0.515340 0.044800 -0.485059
O9    O     O_R   0.177230 0.536000 0.050040 -0.488139
O10   O     O_R   0.993930 0.326080 0.036750 -0.524907
O11   O     O_3   0.169480 0.339450 0.991460 -0.298125
O12   O     O_R   0.480140 0.824500 0.445020 -0.497533
O13   O     O_R   0.697870 0.003940 0.549410 -0.516608
O14   O     O_R   0.480980 0.827230 0.535590 -0.506513
O15   O     O_R   0.309390 0.811640 0.537920 -0.520251
O16   O     O_R   0.341810 0.023400 0.546180 -0.496607
O17   O     O_R   0.493150 0.185870 0.461540 -0.513107
O18   O     O_R   0.677630 0.150660 0.463530 -0.501340
O19   O     O_R   0.696960 0.000990 0.451710 -0.512215
O20   O     O_3   0.540683 0.296245 0.809252 -0.452587
O21   O     O_3   0.862273 0.354968 0.792749 -0.582050
O22   O     O_3   0.050706 0.406867 0.786048 -0.555185
O23   O     O_R   0.308480 0.808690 0.440220 -0.496297
O24   O     O_3   0.245114 0.402167 0.215643 -0.577060
O25   O     O_3   0.535654 0.759275 0.288504 -0.585361
O26   O     O_3   0.463079 0.566241 0.286412 -0.572161
O27   O     O_3   0.825593 0.020450 0.079377 -0.532888
O28   O     O_3   0.496140 0.638745 0.910088 -0.562151
O29   O     O_R   0.340970 0.020670 0.455610 -0.495791
O30   O     O_3   0.500010 0.000010 0.499990 -0.269914
O31   O     O_R   0.969690 0.151000 0.934080 -0.496583
O32   O     O_R   0.187530 0.180840 0.938210 -0.511124
O33   O     O_R   0.358160 0.327300 0.941250 -0.516491
O34   O     O_R   0.323950 0.507710 0.953980 -0.453667

loop_
_geom_bond_atom_site_label_1
_geom_bond_atom_site_label_2
_ccdc_geom_bond_type
Cr6   O2    S    
C95   O25   S    
C4    O15   A    
C66   C68   A    
C8    C13   S    
C94   H55   S    
C6    H70   S    
C27   C29   S    
C53   C63   S    
C41   C42   S    
Cr5   O7    S    
C1    O13   A    
Cr1   O30   S    
C15   Cl2   S    
C5    C67   A    
C57   H24   S    
C95   H59   S    
C23   H9    S    
C7    H34   S    
C1    C33   S    
C65   C86   S    
C30   H7    S    
C53   C54   A    
C4    O14   A    
Cr4   O6    S    
C26   C27   S    
C62   C63   T    
C97   H63   S    
C21   C25   S    
C36   Cl5   S    
C36   C37   S    
C36   H15   S    
C8    Cl1   S    
C26   H11   S    
C91   H44   S    
C10   C15   S    
C42   C46   S    
C20   H4    S    
Cr4   O31   S    
C20   C25   S    
C72   H36   S    
C54   H25   S    
C41   Cl4   S    
C58   H22   S    
C92   H49   S    
C18   C19   T    
Cr1   O17   S    
C7    C10   S    
C37   C42   S    
C93   H50   S    
C70   C81   S    
C93   H51   S    
C14   H67   S    
C3    C12   S    
C5    C56   A    
Cr3   O23   S    
C75   O27   S    
C66   C72   A    
C45   C56   A    
Cr6   O9    S    
C68   C69   A    
C96   H62   S    
C40   O12   A    
Cr5   O11   S    
C70   C71   A    
C97   H65   S    
C93   H52   S    
C98   H69   S    
C8    H45   S    
C24   C85   S    
C94   H53   S    
Cr5   O33   S    
C78   H39   S    
C30   H6    S    
C21   Cl3   S    
C51   H31   S    
Cr6   O3    S    
C25   C32   S    
Cr1   O1    S    
C86   O7    A    
C85   O3    A    
C96   H61   S    
C13   C14   S    
Cr2   O12   S    
C98   O28   S    
C4    C64   S    
C61   C62   S    
C67   C78   A    
C88   H41   S    
C74   C82   A    
C85   O31   A    
C56   H1    S    
C83   O33   A    
C1    O4    A    
C84   O34   A    
C37   H16   S    
C73   H33   S    
C77   C79   A    
C78   C89   A    
C73   C79   A    
Cr2   O14   S    
C10   C18   S    
C28   O19   A    
C97   H64   S    
C12   C88   A    
C27   C31   S    
C43   H21   S    
C7    C8    S    
C43   H18   S    
C6    C11   S    
C5    C84   S    
C22   O22   S    
C16   O1    A    
C21   H5    S    
Cr3   O16   S    
Cr4   O32   S    
C76   H28   S    
Cr3   O29   S    
C29   H8    S    
C28   O18   A    
Cr2   O30   S    
C60   C61   A    
C51   C53   A    
C2    C89   S    
C28   C66   S    
C43   C44   S    
C59   C60   A    
C91   H46   S    
C29   C30   S    
C16   O16   A    
C58   C65   A    
C96   O26   S    
C47   C48   T    
C12   C23   A    
C40   O23   A    
C59   H30   S    
Cr6   O10   S    
C34   H17   S    
C23   C34   A    
C29   H13   S    
C34   C64   A    
C50   C51   A    
C64   C76   A    
C92   H47   S    
C97   O27   S    
C98   H68   S    
C93   O22   S    
C75   C77   A    
C7    H23   S    
C39   C44   S    
C9    C83   S    
C91   O20   S    
C11   H42   S    
Cr1   O4    S    
C74   H32   S    
C86   O6    A    
C77   H38   S    
C96   H60   S    
C52   O29   A    
C94   O24   S    
C42   C43   S    
C95   H57   S    
C26   H3    S    
C68   H37   S    
C39   C47   S    
C90   O10   A    
C9    C17   T    
C25   C30   S    
C40   C48   S    
C76   C88   A    
C54   C55   A    
C73   C74   A    
C45   C89   A    
Cr2   O13   S    
C22   O21   S    
C87   O8    A    
Cr1   O18   S    
Cr5   O8    S    
C36   C39   S    
C15   H56   S    
C83   O32   A    
C49   C52   S    
C80   C81   T    
C20   C26   S    
C95   H58   S    
C6    C10   S    
C45   H2    S    
C75   C82   A    
C57   C61   A    
Cr3   O15   S    
C52   O17   A    
C90   O5    A    
C44   O26   S    
Cr4   O5    S    
C82   C90   S    
C13   C17   S    
C38   C87   S    
C22   C27   S    
C69   H40   S    
C32   C33   T    
C84   O2    A    
C2    C3    T    
C24   C31   T    
C71   C72   A    
C49   C55   A    
C59   C65   A    
C41   H20   S    
C98   H66   S    
C11   C13   S    
C57   C58   A    
C91   H43   S    
C14   O20   S    
Cr6   O11   S    
C16   C19   S    
C55   H26   S    
C35   C39   S    
C35   H14   S    
C44   O25   S    
C37   O24   S    
C69   C70   A    
C35   C41   S    
C38   C46   T    
C67   O28   S    
C79   C80   S    
Cr2   O19   S    
C49   C50   A    
Cr4   O11   S    
C35   H19   S    
C14   C15   S    
C92   H48   S    
C50   H27   S    
C11   H71   S    
C6    H12   S    
C21   C22   S    
C94   H54   S    
C20   H10   S    
Cr5   O34   S    
C92   O21   S    
C87   O9    A    
C60   H29   S    
C71   H35   S    
Cr3   O30   S    
