data_mof_unit_58792.cif
_audit_creation_date              2012-12-11T14:42:23-0500
_audit_creation_method            fapswitch 2.2
_symmetry_space_group_name_H-M    P1
_symmetry_Int_Tables_number       1
_space_group_crystal_system       triclinic
_cell_length_a                    18.75812
_cell_length_b                    10.991874
_cell_length_c                    18.657249
_cell_angle_alpha                 90.17291
_cell_angle_beta                  90.325864
_cell_angle_gamma                 90.064316
_cell_volume                      3846.79794349

loop_
_atom_site_label
_atom_site_type_symbol
_atom_type_description
_atom_site_fract_x
_atom_site_fract_y
_atom_site_fract_z
_atom_type_partial_charge
C1    C     C_R   0.728357 0.953113 0.852873 0.544152
C2    C     C_R   0.252896 0.396786 0.919529 0.029764
C3    C     C_R   0.246929 0.896286 0.080494 0.030016
C4    C     C_R   0.752896 0.896786 0.919529 0.029764
C5    C     C_R   0.789551 0.306685 0.048608 -0.125576
C6    C     C_R   0.210028 0.307421 0.951216 -0.125122
C7    C     C_R   0.289551 0.806685 0.048608 -0.125576
C8    C     C_R   0.710028 0.807421 0.951216 -0.125122
C9    C     C_R   0.779281 0.275924 0.977447 -0.129720
C10   C     C_R   0.220229 0.276658 0.022290 -0.129669
C11   C     C_R   0.279281 0.775925 0.977447 -0.129720
C12   C     C_R   0.271626 0.952939 0.147155 0.543772
C13   C     C_R   0.720229 0.776658 0.022290 -0.129669
C14   C     C_R   0.725906 0.333052 0.937140 0.026297
C15   C     C_R   0.273783 0.333543 0.062771 0.026494
C16   C     C_R   0.225907 0.833052 0.937140 0.026297
C17   C     C_R   0.773783 0.833543 0.062771 0.026494
C18   C     C_R   0.481700 0.271451 0.541082 -0.174913
C19   C     C_R   0.486958 0.276935 0.468650 -0.170471
C20   C     C_R   0.981674 0.771441 0.541092 -0.174910
C21   C     C_R   0.986926 0.776929 0.468659 -0.170468
C22   C     C_R   0.496374 0.170615 0.428135 0.006243
C23   C     C_R   0.228357 0.453114 0.852873 0.544153
C24   C     C_R   0.495093 0.162256 0.576055 0.010438
C25   C     C_R   0.996357 0.670615 0.428142 0.006246
C26   C     C_R   0.995082 0.662249 0.576062 0.010436
C27   C     C_R   0.506743 0.057745 0.461974 0.162505
C28   C     C_R   0.501429 0.052040 0.536548 0.161652
C29   C     C_R   0.006734 0.557745 0.461978 0.162513
C30   C     C_R   0.001422 0.552035 0.536553 0.161651
C31   C     C_R   0.778200 0.272536 0.520204 -0.148249
C32   C     C_R   0.218645 0.277209 0.478046 -0.124469
C33   C     C_R   0.278193 0.772527 0.520202 -0.148251
C34   C     C_R   0.771626 0.452939 0.147155 0.543772
C35   C     C_R   0.718649 0.777203 0.478047 -0.124467
C36   C     C_R   0.786212 0.301150 0.448414 -0.132359
C37   C     C_R   0.209954 0.306245 0.549576 -0.121590
C38   C     C_R   0.286204 0.801139 0.448410 -0.132376
C39   C     C_R   0.709958 0.806240 0.549578 -0.121587
C40   C     C_R   0.529526 0.177688 0.850654 0.544808
C41   C     C_R   0.470462 0.177521 0.149333 0.546887
C42   C     C_R   0.029526 0.677688 0.850654 0.544807
C43   C     C_R   0.970462 0.677521 0.149333 0.546889
C44   C     C_R   0.745293 0.394378 0.417502 0.030179
C45   C     C_R   0.687975 0.442703 0.042953 -0.146816
C46   C     C_R   0.253308 0.395335 0.581935 0.029989
C47   C     C_R   0.245291 0.894377 0.417501 0.030171
C48   C     C_R   0.753309 0.895337 0.581935 0.029991
C49   C     C_R   0.688546 0.444379 0.456141 -0.142465
C50   C     C_R   0.311144 0.443352 0.544246 -0.147286
C51   C     C_R   0.188549 0.944387 0.456142 -0.142458
C52   C     C_R   0.811139 0.943364 0.544243 -0.147287
C53   C     C_R   0.679432 0.413650 0.527972 -0.128253
C54   C     C_R   0.319923 0.413946 0.472201 -0.132720
C55   C     C_R   0.179435 0.913659 0.527973 -0.128251
C56   C     C_R   0.311938 0.443068 0.957234 -0.147005
C57   C     C_R   0.819916 0.913961 0.472198 -0.132721
C58   C     C_R   0.727381 0.333109 0.561511 0.022117
C59   C     C_R   0.271507 0.334760 0.438001 0.030035
C60   C     C_R   0.227381 0.833110 0.561511 0.022112
C61   C     C_R   0.771506 0.834764 0.438001 0.030039
C62   C     C_R   0.723122 0.310657 0.859932 0.572653
C63   C     C_R   0.276754 0.310759 0.139906 0.571488
C64   C     C_R   0.223122 0.810657 0.859932 0.572653
C65   C     C_R   0.776754 0.810759 0.139906 0.571488
C66   C     C_R   0.729294 0.951539 0.648619 0.544968
C67   C     C_R   0.187975 0.942702 0.042954 -0.146816
C68   C     C_R   0.270473 0.951480 0.351334 0.543438
C69   C     C_R   0.229294 0.451539 0.648619 0.544967
C70   C     C_R   0.770473 0.451480 0.351334 0.543444
C71   C     C_R   0.527397 0.174912 0.646053 0.542974
C72   C     C_R   0.471364 0.176605 0.355035 0.540625
C73   C     C_R   0.027396 0.674911 0.646055 0.542975
C74   C     C_R   0.971360 0.676605 0.355038 0.540626
C75   C     C_R   0.724519 0.309812 0.638767 0.571973
C76   C     C_R   0.275314 0.310261 0.361143 0.571172
C77   C     C_R   0.224520 0.809813 0.638767 0.571973
C78   C     C_R   0.811939 0.943068 0.957234 -0.147005
C79   C     C_R   0.775314 0.810262 0.361144 0.571170
C80   C     C_2   0.496479 0.168215 0.920882 -0.108486
C81   C     C_2   0.503347 0.167662 0.079035 -0.107785
C82   C     C_2   0.996479 0.668215 0.920882 -0.108486
C83   C     C_2   0.003348 0.667662 0.079036 -0.107785
C84   C     C_2   0.491485 0.068991 0.038022 -0.156804
C85   C     C_2   0.507322 0.069016 0.961361 -0.156525
C86   C     C_2   0.991485 0.568991 0.038022 -0.156804
C87   C     C_2   0.007323 0.569017 0.961361 -0.156525
C88   C     C_R   0.677441 0.411207 0.971227 -0.139245
C89   C     C_R   0.746929 0.396286 0.080494 0.030016
C90   C     C_R   0.322396 0.411596 0.028891 -0.138669
C91   C     C_R   0.177441 0.911207 0.971227 -0.139245
C92   C     C_R   0.822397 0.911596 0.028891 -0.138669
C93   C     C_3   0.480965 0.849494 0.420064 -0.244998
C94   C     C_3   0.443302 0.901150 0.611864 -0.281087
C95   C     C_3   0.980984 0.349483 0.420058 -0.245045
C96   C     C_3   0.943317 0.401129 0.611874 -0.281085
Cr1   Cr    Cr6+3 0.769270 0.163730 0.750710 0.994087
Cr2   Cr    Cr6+3 0.385840 0.322500 0.252290 1.005387
Cr3   Cr    Cr6+3 0.114160 0.822500 0.747710 1.006986
Cr4   Cr    Cr6+3 0.885840 0.822500 0.252290 1.005388
Cr5   Cr    Cr6+3 0.230730 0.163730 0.249290 1.001957
Cr6   Cr    Cr6+3 0.269270 0.663730 0.750710 0.994089
Cr7   Cr    Cr6+3 0.730730 0.663730 0.249290 1.001957
Cr8   Cr    Cr6+3 0.612620 0.009790 0.748780 0.994380
Cr9   Cr    Cr6+3 0.387380 0.009790 0.251220 0.995895
Cr10  Cr    Cr6+3 0.112620 0.509790 0.748780 0.994378
Cr11  Cr    Cr6+3 0.887380 0.509790 0.251220 0.995892
Cr12  Cr    Cr6+3 0.614160 0.322500 0.747710 1.006986
H1    H     H_    0.468252 0.986869 0.060254 0.158190
H2    H     H_    0.346809 0.508662 0.569055 0.108087
H3    H     H_    0.153974 0.011889 0.432238 0.111847
H4    H     H_    0.846802 0.008680 0.569052 0.108086
H5    H     H_    0.637258 0.457465 0.557844 0.131563
H6    H     H_    0.362382 0.457457 0.442741 0.121632
H7    H     H_    0.137265 0.957483 0.557847 0.131567
H8    H     H_    0.862370 0.957484 0.442736 0.121625
H9    H     H_    0.528346 0.248272 0.056718 0.108984
H10   H     H_    0.472149 0.249241 0.943591 0.108832
H11   H     H_    0.028346 0.748272 0.056719 0.108984
H12   H     H_    0.529758 0.986445 0.938701 0.158319
H13   H     H_    0.972149 0.749240 0.943591 0.108832
H14   H     H_    0.633901 0.452623 0.941815 0.131105
H15   H     H_    0.366083 0.452817 0.058407 0.131061
H16   H     H_    0.133901 0.952622 0.941815 0.131105
H17   H     H_    0.866084 0.952816 0.058407 0.131061
H18   H     H_    0.652744 0.508361 0.067552 0.116357
H19   H     H_    0.347381 0.508439 0.932793 0.115759
H20   H     H_    0.152744 0.008360 0.067552 0.116357
H21   H     H_    0.847381 0.008439 0.932792 0.115759
H22   H     H_    0.834156 0.266360 0.076968 0.132394
H23   H     H_    0.968252 0.486868 0.060254 0.158190
H24   H     H_    0.165336 0.267142 0.922744 0.132688
H25   H     H_    0.334156 0.766361 0.076968 0.132394
H26   H     H_    0.665336 0.767143 0.922745 0.132688
H27   H     H_    0.815732 0.212344 0.952880 0.123825
H28   H     H_    0.183672 0.213094 0.046633 0.123385
H29   H     H_    0.315733 0.712344 0.952879 0.123825
H30   H     H_    0.683671 0.713095 0.046634 0.123386
H31   H     H_    0.474216 0.356246 0.569935 0.141005
H32   H     H_    0.479770 0.365553 0.444463 0.140939
H33   H     H_    0.974185 0.856232 0.569948 0.141007
H34   H     H_    0.029758 0.486445 0.938701 0.158319
H35   H     H_    0.979729 0.865546 0.444474 0.140941
H36   H     H_    0.813982 0.207218 0.544237 0.116650
H37   H     H_    0.181782 0.214087 0.453200 0.122252
H38   H     H_    0.313972 0.707200 0.544232 0.116657
H39   H     H_    0.681790 0.714072 0.453203 0.122253
H40   H     H_    0.555926 0.969198 0.375249 0.257790
H41   H     H_    0.464832 0.829778 0.363853 0.146921
H42   H     H_    0.432158 0.866112 0.451889 0.167940
H43   H     H_    0.508964 0.768736 0.441964 0.135831
H44   H     H_    0.553689 0.910527 0.590198 0.288089
H45   H     H_    0.827933 0.256113 0.418553 0.120928
H46   H     H_    0.446790 0.802991 0.625225 0.135680
H47   H     H_    0.393577 0.916426 0.580592 0.162531
H48   H     H_    0.440823 0.954281 0.662429 0.167128
H49   H     H_    0.055933 0.469223 0.375254 0.257789
H50   H     H_    0.964807 0.329832 0.363854 0.146978
H51   H     H_    0.932203 0.366028 0.451929 0.167928
H52   H     H_    0.009015 0.268714 0.441895 0.135798
H53   H     H_    0.053700 0.410531 0.590194 0.288093
H54   H     H_    0.946816 0.302972 0.625236 0.135666
H55   H     H_    0.893588 0.416389 0.580608 0.162534
H56   H     H_    0.165949 0.264939 0.577962 0.127775
H57   H     H_    0.940837 0.454262 0.662439 0.167132
H58   H     H_    0.327920 0.756093 0.418547 0.120931
H59   H     H_    0.665956 0.764927 0.577966 0.127775
H60   H     H_    0.653968 0.511874 0.432235 0.111847
N1    N     N_2   0.528648 0.953156 0.422145 -0.491109
N2    N     N_2   0.504755 0.935888 0.570049 -0.513674
N3    N     N_2   0.028652 0.453167 0.422146 -0.491107
N4    N     N_2   0.004761 0.435883 0.570052 -0.513670
O1    O     O_R   0.784320 0.290430 0.830510 -0.510711
O2    O     O_R   0.456080 0.282180 0.333210 -0.535992
O3    O     O_R   0.043920 0.782180 0.666790 -0.532818
O4    O     O_R   0.956080 0.782180 0.333210 -0.535991
O5    O     O_R   0.679040 0.374160 0.674430 -0.493309
O6    O     O_R   0.320960 0.374160 0.325570 -0.495870
O7    O     O_R   0.179040 0.874160 0.674430 -0.493308
O8    O     O_R   0.820960 0.874160 0.325570 -0.495873
O9    O     O_3   0.665350 0.165340 0.749070 -0.279624
O10   O     O_3   0.334650 0.165340 0.250930 -0.281962
O11   O     O_3   0.165350 0.665340 0.749070 -0.279623
O12   O     O_R   0.215680 0.290430 0.169490 -0.508885
O13   O     O_3   0.834650 0.665340 0.250930 -0.281962
O14   O     O_R   0.762640 0.040960 0.825200 -0.522722
O15   O     O_R   0.237360 0.040960 0.174800 -0.522724
O16   O     O_R   0.262640 0.540960 0.825200 -0.522721
O17   O     O_R   0.737360 0.540960 0.174800 -0.522724
O18   O     O_R   0.667400 0.923970 0.829950 -0.520608
O19   O     O_R   0.332600 0.923970 0.170050 -0.522025
O20   O     O_R   0.167400 0.423970 0.829950 -0.520608
O21   O     O_R   0.832600 0.423970 0.170050 -0.522026
O22   O     O_R   0.553960 0.081340 0.821780 -0.496395
O23   O     O_R   0.284320 0.790430 0.830510 -0.510711
O24   O     O_R   0.446040 0.081340 0.178220 -0.495062
O25   O     O_R   0.053960 0.581340 0.821780 -0.496397
O26   O     O_R   0.946040 0.581340 0.178220 -0.495062
O27   O     O_R   0.543180 0.283240 0.826740 -0.525688
O28   O     O_R   0.456820 0.283240 0.173260 -0.524983
O29   O     O_R   0.043180 0.783240 0.826740 -0.525689
O30   O     O_R   0.956820 0.783240 0.173260 -0.524982
O31   O     O_R   0.678360 0.375140 0.822710 -0.493071
O32   O     O_R   0.321640 0.375140 0.177290 -0.493183
O33   O     O_R   0.178360 0.875140 0.822710 -0.493072
O34   O     O_R   0.715680 0.790430 0.169490 -0.508886
O35   O     O_R   0.821640 0.875140 0.177290 -0.493183
O36   O     O_R   0.785050 0.289380 0.670560 -0.525279
O37   O     O_R   0.214950 0.289380 0.329440 -0.509977
O38   O     O_R   0.285050 0.789380 0.670560 -0.525278
O39   O     O_R   0.714950 0.789380 0.329440 -0.509974
O40   O     O_R   0.763320 0.039990 0.676930 -0.519487
O41   O     O_R   0.236680 0.039990 0.323070 -0.520731
O42   O     O_R   0.263320 0.539990 0.676930 -0.519485
O43   O     O_R   0.736680 0.539990 0.323070 -0.520732
O44   O     O_R   0.668130 0.922920 0.670000 -0.531970
O45   O     O_R   0.554640 0.080370 0.673500 -0.502010
O46   O     O_R   0.331870 0.922920 0.330000 -0.527089
O47   O     O_R   0.168130 0.422920 0.670000 -0.531972
O48   O     O_R   0.831870 0.422920 0.330000 -0.527091
O49   O     O_R   0.445360 0.080370 0.326500 -0.491563
O50   O     O_R   0.054640 0.580370 0.673500 -0.502011
O51   O     O_R   0.945360 0.580370 0.326500 -0.491565
O52   O     O_R   0.543920 0.282180 0.666790 -0.532821

loop_
_geom_bond_atom_site_label_1
_geom_bond_atom_site_label_2
_ccdc_geom_bond_type
C44   C49   A    
C76   O37   A    
Cr9   O24   S    
C73   O3    A    
C8    C13   A    
Cr1   O40   S    
C95   H50   S    
C43   C83   S    
C90   H15   S    
Cr9   O19   S    
C5    C89   A    
C93   H41   S    
C42   C82   S    
Cr7   O34   S    
Cr10  O20   S    
C4    C8    A    
Cr6   O23   S    
C74   O4    A    
Cr10  O11   S    
C40   O22   A    
C1    O14   A    
C79   O39   A    
C93   N1    S    
C5    C9    A    
C77   O7    A    
C20   C26   A    
Cr12  O9    S    
Cr3   O33   S    
C95   H51   S    
Cr6   O11   S    
C31   C58   A    
Cr2   O32   S    
C78   H21   S    
C10   H28   S    
C7    H25   S    
Cr12  O31   S    
C3    C7    A    
C10   C15   A    
C31   C36   A    
C23   O16   A    
Cr2   O2    S    
Cr8   O22   S    
Cr9   O49   S    
C86   H23   S    
C52   H4    S    
C82   C87   D    
C14   C62   S    
C64   O23   A    
C81   H9    S    
C50   H2    S    
C26   C73   S    
C3    C67   A    
C25   C74   S    
C11   C16   A    
C56   H19   S    
C83   H11   S    
C31   H36   S    
C46   C69   S    
C3    C12   S    
H49   N3    S    
H53   N4    S    
Cr4   O30   S    
Cr6   O42   S    
Cr5   O41   S    
C19   H32   S    
Cr7   O13   S    
Cr4   O4    S    
C40   C80   S    
C44   C70   S    
Cr7   O17   S    
C72   O2    A    
Cr9   O10   S    
Cr2   O6    S    
C29   C30   A    
C45   C89   A    
C27   N1    S    
C82   H13   S    
Cr3   O11   S    
C63   O12   A    
C1    O18   A    
C46   C50   A    
C56   C90   A    
Cr8   O9    S    
Cr8   O18   S    
C87   H34   S    
C55   C60   A    
C92   H17   S    
C39   H59   S    
C93   H42   S    
C2    C6    A    
C17   C92   A    
C41   O28   A    
C22   C72   S    
C23   O20   A    
Cr4   O35   S    
C53   H5    S    
C36   H45   S    
C7    C11   A    
C57   H8    S    
Cr11  O51   S    
C54   C59   A    
C34   O17   A    
C25   C29   A    
Cr1   O14   S    
Cr8   O45   S    
C80   H10   S    
C60   C77   S    
Cr1   O1    S    
C63   O32   A    
C8    H26   S    
C95   H52   S    
C19   C22   A    
C84   C85   S    
Cr8   O44   S    
C49   H60   S    
C88   H14   S    
C52   C57   A    
Cr7   O39   S    
C86   C87   S    
C18   C19   A    
C47   C51   A    
C65   O34   A    
Cr5   O37   S    
C62   O1    A    
C74   O51   A    
C70   O48   A    
Cr2   O10   S    
C85   H12   S    
C68   O46   A    
C9    C14   A    
Cr3   O7    S    
C80   C85   D    
H44   N2    S    
C75   O36   A    
C45   H18   S    
C94   H46   S    
C41   C81   S    
C45   C88   A    
C43   O30   A    
C67   C91   A    
H40   N1    S    
C94   H47   S    
C35   C61   A    
C35   H39   S    
C32   C37   A    
C29   N3    S    
Cr1   O9    S    
C68   O41   A    
C30   N4    S    
C38   C47   A    
Cr5   O12   S    
C72   O49   A    
C77   O38   A    
C37   H56   S    
C65   O35   A    
C9    H27   S    
C34   O21   A    
C6    H24   S    
C5    H22   S    
C59   C76   S    
C26   C30   A    
C33   C60   A    
C91   H16   S    
Cr10  O25   S    
C18   C24   A    
C36   C44   A    
C70   O43   A    
C66   O40   A    
Cr4   O8    S    
Cr7   O43   S    
C47   C68   S    
Cr11  O21   S    
C81   C84   D    
C73   O50   A    
C28   N2    S    
C38   H58   S    
C12   O19   A    
C21   C25   A    
C51   H3    S    
C71   O52   A    
C69   O47   A    
C17   C65   S    
C20   H33   S    
C42   O25   A    
Cr6   O38   S    
C69   O42   A    
C24   C28   A    
C84   H1    S    
C6    C10   A    
Cr11  O26   S    
C53   C58   A    
C57   C61   A    
C32   H37   S    
C40   O27   A    
C13   C17   A    
C4    C78   A    
C64   O33   A    
Cr11  O13   S    
C76   O6    A    
C33   C38   A    
C71   O45   A    
C96   H55   S    
Cr2   O28   S    
C22   C27   A    
C1    C4    S    
C78   C92   A    
C13   H30   S    
Cr12  O27   S    
Cr4   O13   S    
C11   H29   S    
C34   C89   S    
C14   C88   A    
C50   C54   A    
C2    C56   A    
C67   H20   S    
C94   N2    S    
C15   C90   A    
C12   O15   A    
Cr10  O50   S    
C55   H7    S    
C61   C79   S    
C49   C53   A    
C35   C39   A    
C54   H6    S    
C96   H54   S    
Cr12  O5    S    
Cr10  O47   S    
C43   O26   A    
C51   C55   A    
Cr1   O36   S    
C66   O44   A    
C18   H31   S    
C75   O5    A    
Cr6   O16   S    
C62   O31   A    
C93   H43   S    
C33   H38   S    
Cr11  O48   S    
Cr12  O52   S    
C48   C52   A    
C83   C86   D    
Cr3   O3    S    
C20   C21   A    
C16   C91   A    
C94   H48   S    
Cr9   O46   S    
C96   N4    S    
C21   H35   S    
C2    C23   S    
C15   C63   S    
C79   O8    A    
C39   C48   A    
C42   O29   A    
C96   H57   S    
C16   C64   S    
C32   C59   A    
C48   C66   S    
C37   C46   A    
Cr5   O15   S    
C95   N3    S    
C41   O24   A    
Cr3   O29   S    
Cr5   O10   S    
C24   C71   S    
C58   C75   S    
C27   C28   A    
