data_mof_unit_5471.cif
_audit_creation_date              2012-12-10T19:28:55-0500
_audit_creation_method            fapswitch 2.2
_symmetry_space_group_name_H-M    P1
_symmetry_Int_Tables_number       1
_space_group_crystal_system       triclinic
_cell_length_a                    17.745994
_cell_length_b                    16.443254
_cell_length_c                    10.639208
_cell_angle_alpha                 89.768169
_cell_angle_beta                  90.165931
_cell_angle_gamma                 90.01385
_cell_volume                      3104.50245422

loop_
_atom_site_label
_atom_site_type_symbol
_atom_type_description
_atom_site_fract_x
_atom_site_fract_y
_atom_site_fract_z
_atom_type_partial_charge
C1    C     C_R   0.355437 0.499964 0.500058 0.774085
C2    C     C_R   0.644863 0.499980 0.499824 0.776617
C3    C     C_1   0.966851 0.498797 0.498269 -0.055844
C4    C     C_1   0.034377 0.498746 0.498132 -0.055441
C5    C     C_R   0.539729 0.828671 0.591825 -0.275829
C6    C     C_R   0.451684 0.171299 0.420670 -0.277794
C7    C     C_R   0.460637 0.829177 0.407915 -0.275558
C8    C     C_R   0.548659 0.170984 0.579042 -0.278658
C9    C     C_R   0.538886 0.742857 0.590299 0.067677
C10   C     C_R   0.452442 0.257123 0.422143 0.074424
C11   C     C_R   0.461274 0.743351 0.409560 0.069694
C12   C     C_R   0.547685 0.256813 0.577734 0.063166
C13   C     C_R   0.500216 0.873097 0.499859 0.151431
C14   C     C_R   0.500215 0.126970 0.499832 0.148237
C15   C     C_1   0.500261 0.962735 0.499844 -0.046591
C16   C     C_1   0.500261 0.037333 0.499834 -0.046510
C17   C     C_R   0.499682 0.500249 0.258785 0.780936
C18   C     C_R   0.499725 0.499766 0.741215 0.781256
C19   C     C_3   0.497849 0.577573 0.039607 -0.135426
C20   C     C_3   0.500611 0.422526 0.960417 -0.135438
C21   C     C_3   0.560426 0.539632 0.957906 -0.168677
C22   C     C_3   0.438062 0.460498 0.042253 -0.178895
C23   C     C_3   0.436671 0.537009 0.957249 -0.176535
C24   C     C_3   0.561815 0.463081 0.042602 -0.165996
C25   C     C_3   0.499299 0.499196 0.877869 0.023444
C26   C     C_3   0.499317 0.500892 0.122133 0.024932
C27   C     C_R   0.848209 0.555188 0.571934 -0.162241
C28   C     C_R   0.153620 0.451649 0.585833 -0.163026
C29   C     C_R   0.153410 0.546473 0.411397 -0.162485
C30   C     C_R   0.847294 0.443265 0.425674 -0.163153
C31   C     C_R   0.769097 0.557073 0.574156 0.062717
C32   C     C_R   0.232747 0.450952 0.588553 0.052144
C33   C     C_R   0.232520 0.548065 0.410101 0.058603
C34   C     C_R   0.768147 0.442159 0.423964 0.053669
C35   C     C_R   0.728420 0.499796 0.499261 -0.121910
C36   C     C_R   0.272393 0.499760 0.499684 -0.113662
C37   C     C_R   0.886343 0.499046 0.498667 0.069678
C38   C     C_R   0.114873 0.498852 0.498302 0.070399
Cu1   Cu    Cu3+1 0.500000 0.580420 0.500000 0.926025
Cu2   Cu    Cu3+1 0.500000 0.419580 0.500000 0.919532
H1    H     H_    0.385622 0.566526 0.917502 0.126722
H2    H     H_    0.613246 0.433589 0.080550 0.121139
H3    H     H_    0.496583 0.641031 0.074793 0.134790
H4    H     H_    0.501647 0.359052 0.925281 0.136211
H5    H     H_    0.610646 0.571404 0.920180 0.119298
H6    H     H_    0.388240 0.428855 0.081961 0.121341
H7    H     H_    0.881546 0.597210 0.626698 0.130166
H8    H     H_    0.120903 0.415794 0.651290 0.129969
H9    H     H_    0.120578 0.582118 0.345530 0.130057
H10   H     H_    0.879946 0.400975 0.370610 0.130396
H11   H     H_    0.571049 0.860012 0.664506 0.131421
H12   H     H_    0.413397 0.139858 0.358037 0.133283
H13   H     H_    0.429428 0.860925 0.335145 0.131400
H14   H     H_    0.587026 0.139296 0.641609 0.133563
H15   H     H_    0.569523 0.709661 0.661937 0.122764
H16   H     H_    0.414756 0.290388 0.360582 0.120079
H17   H     H_    0.430674 0.710563 0.337830 0.114457
H18   H     H_    0.585322 0.289840 0.639294 0.119649
N1    N     N_R   0.500000 0.701220 0.500000 -0.163447
N2    N     N_R   0.500000 0.298780 0.500000 -0.167285
O1    O     O_R   0.391260 0.567930 0.500000 -0.581792
O2    O     O_R   0.608740 0.432070 0.500000 -0.591267
O3    O     O_R   0.608740 0.567930 0.500000 -0.583572
O4    O     O_R   0.391260 0.432070 0.500000 -0.590839
O5    O     O_R   0.499980 0.567900 0.316850 -0.591838
O6    O     O_R   0.500020 0.432100 0.683150 -0.589212
O7    O     O_R   0.500020 0.567900 0.683150 -0.587583
O8    O     O_R   0.499980 0.432100 0.316850 -0.584530
C39   C     C_3   0.727516 0.619067 0.655398 -0.379515
C40   C     C_3   0.775951 0.668484 0.747808 -0.381363
C41   C     C_3   0.727383 0.725498 0.826413 -0.860151
H19   H     H_    0.696535 0.768846 0.764626 0.247002
H20   H     H_    0.686243 0.690333 0.883110 0.247206
H21   H     H_    0.763891 0.760723 0.891340 0.246964
H22   H     H_    0.806845 0.626610 0.812063 0.222931
H23   H     H_    0.817020 0.706435 0.695014 0.220360
H24   H     H_    0.698929 0.663102 0.591827 0.217968
H25   H     H_    0.684151 0.586221 0.711246 0.189894
C42   C     C_3   0.275956 0.399928 0.685261 -0.368976
C43   C     C_3   0.228571 0.359429 0.788812 -0.381551
C44   C     C_3   0.278588 0.313071 0.881441 -0.848315
H26   H     H_    0.309638 0.263920 0.832404 0.256026
H27   H     H_    0.319687 0.354917 0.925863 0.251573
H28   H     H_    0.243246 0.285356 0.956169 0.240508
H29   H     H_    0.196615 0.406541 0.841067 0.221646
H30   H     H_    0.188474 0.315368 0.746389 0.218657
H31   H     H_    0.306479 0.351008 0.634785 0.221587
H32   H     H_    0.318174 0.439816 0.731936 0.191987
C45   C     C_3   0.275518 0.599993 0.314799 -0.379744
C46   C     C_3   0.228402 0.639429 0.209557 -0.376762
C47   C     C_3   0.278571 0.686568 0.118510 -0.857180
H33   H     H_    0.308578 0.736209 0.168545 0.246542
H34   H     H_    0.320608 0.645384 0.075383 0.251976
H35   H     H_    0.243468 0.713741 0.042658 0.245714
H36   H     H_    0.197619 0.591659 0.156452 0.222003
H37   H     H_    0.187286 0.682828 0.250435 0.219196
H38   H     H_    0.304419 0.649550 0.366595 0.213201
H39   H     H_    0.318962 0.561157 0.269594 0.189189
C48   C     C_3   0.725532 0.380915 0.342273 -0.363757
C49   C     C_3   0.773120 0.331087 0.249654 -0.392126
C50   C     C_3   0.723654 0.275069 0.170374 -0.840766
H40   H     H_    0.691583 0.232675 0.231744 0.258046
H41   H     H_    0.683543 0.311093 0.112570 0.246552
H42   H     H_    0.759653 0.238794 0.106416 0.240774
H43   H     H_    0.804455 0.372676 0.185831 0.222491
H44   H     H_    0.813779 0.292377 0.302385 0.219312
H45   H     H_    0.696388 0.337043 0.405226 0.221192
H46   H     H_    0.682486 0.414587 0.286571 0.195370

loop_
_geom_bond_atom_site_label_1
_geom_bond_atom_site_label_2
_ccdc_geom_bond_type
C2    C35   S    
C50   H40   S    
Cu2   N2    S    
C24   H2    S    
C39   H24   S    
C42   H31   S    
C44   H26   S    
C46   H36   S    
C29   H9    S    
C7    C11   A    
C48   H46   S    
C49   H43   S    
C17   C26   S    
C32   C36   A    
C19   C21   S    
C24   C26   S    
C6    C14   A    
C20   C25   S    
C15   C16   T    
C29   C33   A    
C33   C36   A    
Cu2   O2    S    
C34   C35   A    
C19   C26   S    
C43   H30   S    
C20   H4    S    
C20   C24   S    
C29   C38   A    
C40   C41   S    
C9    H15   S    
C10   H16   S    
C5    C13   A    
C12   H18   S    
C30   H10   S    
Cu2   O8    S    
C50   H41   S    
Cu2   O6    S    
Cu1   O5    S    
C39   H25   S    
C18   C25   S    
C11   N1    A    
C42   H32   S    
C44   H27   S    
C19   H3    S    
C21   H5    S    
Cu1   O1    S    
C30   C34   A    
C27   C31   A    
C28   C32   A    
C8    H14   S    
Cu1   Cu2   S    
C41   H20   S    
C18   O7    A    
C30   C37   A    
C45   H38   S    
C9    N1    A    
C19   C23   S    
C5    C9    A    
C43   H29   S    
C33   C45   S    
C47   H34   S    
C31   C39   S    
C48   C49   S    
C28   C38   A    
C8    C12   A    
Cu1   N1    S    
C34   C48   S    
C22   H6    S    
C20   C22   S    
C50   H42   S    
C13   C15   S    
C40   H23   S    
C14   C16   S    
C7    H13   S    
C3    C4    T    
C1    O4    A    
C47   H33   S    
C44   H28   S    
Cu1   O3    S    
C2    O3    A    
C27   H7    S    
C21   C25   S    
C10   N2    A    
C28   H8    S    
C17   O8    A    
C8    C14   A    
Cu1   O7    S    
C4    C38   S    
C43   C44   S    
C1    O1    A    
C6    C10   A    
C41   H21   S    
C46   H37   S    
C49   H44   S    
C18   O6    A    
C48   H45   S    
C17   O5    A    
C23   H1    S    
C45   H39   S    
C41   H19   S    
C32   C42   S    
C46   C47   S    
C27   C37   A    
Cu2   O4    S    
C49   C50   S    
C31   C35   A    
C23   C25   S    
C39   C40   S    
C42   C43   S    
C12   N2    A    
C7    C13   A    
C3    C37   S    
C22   C26   S    
C21   C24   S    
C40   H22   S    
C22   C23   S    
C5    H11   S    
C6    H12   S    
C45   C46   S    
C11   H17   S    
C2    O2    A    
C1    C36   S    
C47   H35   S    
