data_mof_unit_66553.cif
_audit_creation_date              2012-12-10T16:51:33-0500
_audit_creation_method            fapswitch 2.2
_symmetry_space_group_name_H-M    P1
_symmetry_Int_Tables_number       1
_space_group_crystal_system       triclinic
_cell_length_a                    7.922737
_cell_length_b                    8.554764
_cell_length_c                    12.386636
_cell_angle_alpha                 94.06305
_cell_angle_beta                  102.496594
_cell_angle_gamma                 93.296631
_cell_volume                      815.291441095

loop_
_atom_site_label
_atom_site_type_symbol
_atom_type_description
_atom_site_fract_x
_atom_site_fract_y
_atom_site_fract_z
_atom_type_partial_charge
C1    C     C_R   0.044182 0.794105 0.498748 0.930584
C2    C     C_R   0.168962 0.532734 0.831342 -0.041816
C3    C     C_2   0.068793 0.957876 0.501254 -0.321982
C4    C     C_R   0.108946 0.507221 0.710085 0.844056
C5    C     C_2   0.933899 0.042541 0.504390 -0.292800
C6    C     C_R   0.956741 0.206028 0.503093 0.971771
C7    C     C_R   0.890493 0.487503 0.290456 0.909714
C8    C     C_R   0.698528 0.211353 0.061654 -0.135250
C9    C     C_R   0.820194 0.451593 0.171976 -0.204827
C10   C     C_R   0.089245 0.645448 0.887624 -0.124452
C11   C     C_R   0.150888 0.687366 0.000494 -0.119549
C12   C     C_R   0.380055 0.510684 0.003988 0.107564
C13   C     C_R   0.299205 0.624995 0.057747 -0.018648
C14   C     C_R   0.305452 0.453646 0.892792 -0.037564
C15   C     C_R   0.528927 0.440918 0.057724 0.019950
C16   C     C_R   0.543977 0.280501 0.024448 -0.019130
C17   C     C_R   0.423038 0.208537 0.932082 0.168819
C18   C     C_R   0.361835 0.310890 0.852772 0.283298
C19   C     C_R   0.670669 0.527228 0.130083 0.067746
C20   C     C_R   0.841459 0.301248 0.125242 0.419849
H1    H     H_    0.805706 0.991853 0.506301 0.217499
H2    H     H_    0.635863 0.545360 0.822145 0.355741
H3    H     H_    0.530589 0.642864 0.568109 0.185985
H4    H     H_    0.718845 0.096677 0.026158 0.224470
H5    H     H_    0.980191 0.703625 0.843763 0.172929
H6    H     H_    0.342614 0.657844 0.145777 0.169879
H7    H     H_    0.085265 0.770917 0.043085 0.185811
H8    H     H_    0.197662 0.008079 0.500898 0.226574
H9    H     H_    0.181849 0.035928 0.122357 0.379857
H10   H     H_    0.283532 0.075096 0.331631 0.362483
I1    I     I_    0.410434 0.964685 0.878568 -0.278779
I2    I     I_    0.692833 0.777821 0.165035 -0.349216
N1    N     N_2   0.434800 0.456690 0.470850 0.127690
N2    N     N_2   0.565200 0.543310 0.529150 -0.076516
O1    O     O_R   0.893060 0.738880 0.507150 -0.628243
O2    O     O_2   0.190111 0.357173 0.169850 -0.259022
O3    O     O_3   0.071324 0.061965 0.141917 -0.556090
O4    O     O_2   0.564440 0.280767 0.321511 -0.294177
O5    O     O_2   0.535639 0.163637 0.492138 -0.274510
O6    O     O_3   0.264960 0.188039 0.343197 -0.460469
O7    O     O_2   0.658364 0.233794 0.792754 -0.262779
O8    O     O_2   0.396492 0.244864 0.649824 -0.226094
O9    O     O_3   0.560766 0.509619 0.748625 -0.558382
O10   O     O_R   0.172250 0.711130 0.488470 -0.648560
O11   O     O_R   0.944700 0.520730 0.667600 -0.601713
O12   O     O_R   0.223890 0.492980 0.648920 -0.547978
O13   O     O_R   0.827750 0.288870 0.511530 -0.533153
O14   O     O_R   0.106940 0.261120 0.492850 -0.551489
O15   O     O_R   0.776110 0.507020 0.351080 -0.573196
O16   O     O_R   0.055300 0.479270 0.332400 -0.560379
O17   O     O_2   0.041519 0.246375 0.984097 -0.314386
S1    S     S_3+6 0.043970 0.245786 0.105682 0.039865
S2    S     S_3+6 0.459334 0.272579 0.408003 0.203384
S3    S     S_3+6 0.498370 0.320986 0.758259 0.054448
Zn1   Zn    Zn3+2 0.813580 0.518530 0.512470 1.104675
Zn2   Zn    Zn3+2 0.186420 0.481470 0.487530 1.136508

loop_
_geom_bond_atom_site_label_1
_geom_bond_atom_site_label_2
_ccdc_geom_bond_type
C2    C4    S    
C13   H6    S    
O11   Zn1   S    
C1    O10   A    
O10   Zn2   S    
O9    S3    S    
H2    O9    S    
O2    S1    D    
C12   C15   A    
C11   H7    S    
H3    N2    S    
N1    Zn2   S    
N1    N2    D    
H10   O6    S    
N2    Zn1   S    
C20   S1    S    
C8    C20   A    
O8    S3    D    
C15   C19   A    
C11   C13   A    
C7    O15   A    
O5    S2    D    
O4    S2    D    
C6    O14   A    
C2    C14   A    
C19   I2    S    
C10   H5    S    
O13   Zn1   S    
C3    H8    S    
C8    H4    S    
C12   C14   A    
C17   C18   A    
C4    O11   A    
N1    S2    S    
C5    C6    S    
C17   I1    S    
O7    S3    D    
C10   C11   A    
C18   S3    S    
H9    O3    S    
C15   C16   A    
C2    C10   A    
C7    C9    S    
C5    H1    S    
C12   C13   A    
C1    O1    A    
C8    C16   A    
O6    S2    S    
C6    O13   A    
O12   Zn2   S    
O14   Zn2   S    
O3    S1    S    
C14   C18   A    
C4    O12   A    
C9    C20   A    
C3    C5    D    
O15   Zn1   S    
O1    Zn1   S    
C9    C19   A    
O16   Zn2   S    
O17   S1    D    
C7    O16   A    
C16   C17   A    
C1    C3    S    
