data_mof_unit_39513.cif
_audit_creation_date              2012-12-11T16:16:33-0500
_audit_creation_method            fapswitch 2.2
_symmetry_space_group_name_H-M    P1
_symmetry_Int_Tables_number       1
_space_group_crystal_system       triclinic
_cell_length_a                    7.19964
_cell_length_b                    25.971842
_cell_length_c                    28.638566
_cell_angle_alpha                 90.000053
_cell_angle_beta                  90.002012
_cell_angle_gamma                 90.000225
_cell_volume                      5355.06567104

loop_
_atom_site_label
_atom_site_type_symbol
_atom_type_description
_atom_site_fract_x
_atom_site_fract_y
_atom_site_fract_z
_atom_type_partial_charge
O1    O     O_R   0.600980 0.796780 0.202430 -0.536806
O2    O     O_R   0.399020 0.203220 0.797570 -0.537786
O3    O     O_R   0.399020 0.203220 0.702430 -0.536807
O4    O     O_R   0.600980 0.796780 0.297570 -0.537795
O5    O     O_R   0.100980 0.703220 0.297570 -0.536799
O6    O     O_R   0.899020 0.296780 0.702430 -0.537795
O7    O     O_R   0.899020 0.296780 0.797570 -0.536801
O8    O     O_R   0.100980 0.703220 0.202430 -0.537790
O9    O     O_R   0.271240 0.802920 0.297240 -0.539372
O10   O     O_R   0.728760 0.197080 0.702760 -0.539799
O11   O     O_R   0.728760 0.197080 0.797240 -0.539370
O12   O     O_R   0.271240 0.802920 0.202760 -0.539802
O13   O     O_R   0.771240 0.697080 0.202760 -0.539372
O14   O     O_R   0.228760 0.302920 0.797240 -0.539794
O15   O     O_R   0.228760 0.302920 0.702760 -0.539377
O16   O     O_R   0.771240 0.697080 0.297240 -0.539785
C1    C     C_R   0.439804 0.815385 0.312830 0.703611
C2    C     C_R   0.560209 0.184552 0.687256 0.703852
C3    C     C_R   0.560199 0.184616 0.812831 0.703605
C4    C     C_R   0.439789 0.815449 0.187256 0.703853
C5    C     C_R   0.939799 0.684616 0.187168 0.703603
C6    C     C_R   0.060213 0.315449 0.812744 0.703867
C7    C     C_R   0.060195 0.315384 0.687169 0.703602
C8    C     C_R   0.939792 0.684552 0.312745 0.703862
O17   O     O_3   0.434470 0.717290 0.250000 -0.374947
O18   O     O_3   0.565530 0.282710 0.750000 -0.374958
O19   O     O_3   0.934470 0.782710 0.250000 -0.374960
O20   O     O_3   0.065530 0.217290 0.750000 -0.374950
V1    V     V_3+5 0.159620 0.756070 0.250000 1.388616
V2    V     V_3+5 0.840380 0.243930 0.750000 1.388610
V3    V     V_3+5 0.659620 0.743930 0.250000 1.388633
V4    V     V_3+5 0.340380 0.256070 0.750000 1.388606
C9    C     C_R   0.118274 0.622329 0.363126 -0.166108
C10   C     C_R   0.881680 0.364724 0.626168 -0.167145
C11   C     C_R   0.881720 0.377643 0.863147 -0.166018
C12   C     C_R   0.118274 0.635317 0.126137 -0.167212
C13   C     C_R   0.618328 0.877609 0.136828 -0.165965
C14   C     C_R   0.381759 0.135336 0.873883 -0.167284
C15   C     C_R   0.381702 0.122371 0.636839 -0.166020
C16   C     C_R   0.618283 0.864684 0.373865 -0.167254
H1    H     H_    0.244696 0.631816 0.344525 0.142691
H2    H     H_    0.755269 0.345206 0.636497 0.141185
H3    H     H_    0.755276 0.368133 0.844563 0.142651
H4    H     H_    0.244671 0.654848 0.136459 0.141216
H5    H     H_    0.744783 0.868081 0.155399 0.142635
H6    H     H_    0.255378 0.154889 0.863583 0.141223
H7    H     H_    0.255255 0.131882 0.655417 0.142645
H8    H     H_    0.744674 0.845145 0.363552 0.141210
C17   C     C_R   0.126993 0.585658 0.398815 -0.221493
C18   C     C_R   0.873131 0.399762 0.589174 -0.223521
C19   C     C_R   0.873001 0.414320 0.898829 -0.221688
C20   C     C_R   0.126815 0.600292 0.089134 -0.223450
C21   C     C_R   0.627071 0.914278 0.101140 -0.221763
C22   C     C_R   0.373235 0.100302 0.910881 -0.223335
C23   C     C_R   0.372981 0.085699 0.601151 -0.221733
C24   C     C_R   0.626824 0.899716 0.410864 -0.223378
H9    H     H_    0.259718 0.567813 0.406085 0.191028
H10   H     H_    0.740578 0.405574 0.572144 0.190862
H11   H     H_    0.740252 0.432145 0.906108 0.190968
H12   H     H_    0.259344 0.594501 0.072088 0.190886
H13   H     H_    0.759843 0.932082 0.093845 0.190938
H14   H     H_    0.240729 0.094525 0.927943 0.190920
H15   H     H_    0.240228 0.067880 0.593863 0.190961
H16   H     H_    0.759347 0.905506 0.427916 0.190901
C25   C     C_R   0.967753 0.571762 0.424434 -0.062665
C26   C     C_R   0.032371 0.426315 0.573860 -0.062565
C27   C     C_R   0.032259 0.428243 0.924431 -0.062948
C28   C     C_R   0.967589 0.573727 0.073825 -0.062277
C29   C     C_R   0.467801 0.928221 0.075553 -0.063072
C30   C     C_R   0.532446 0.073709 0.926161 -0.062129
C31   C     C_R   0.532243 0.071778 0.575553 -0.063008
C32   C     C_R   0.467601 0.926287 0.426162 -0.062193
C33   C     C_R   0.797257 0.596377 0.413591 0.452315
C34   C     C_R   0.202486 0.417469 0.597528 0.451491
C35   C     C_R   0.202787 0.403644 0.913582 0.452621
C36   C     C_R   0.797490 0.582560 0.097499 0.451221
C37   C     C_R   0.297243 0.903647 0.086418 0.452765
C38   C     C_R   0.702505 0.082526 0.902465 0.451060
C39   C     C_R   0.702773 0.096373 0.586410 0.452692
C40   C     C_R   0.297512 0.917454 0.402482 0.451129
C41   C     C_R   0.788647 0.631619 0.376116 -0.247976
C42   C     C_R   0.210866 0.380419 0.633571 -0.249559
C43   C     C_R   0.211401 0.368415 0.876093 -0.247835
C44   C     C_R   0.789125 0.619579 0.133566 -0.249660
C45   C     C_R   0.288605 0.868431 0.123917 -0.247765
C46   C     C_R   0.710854 0.119547 0.866400 -0.249781
C47   C     C_R   0.711390 0.131589 0.623909 -0.247817
C48   C     C_R   0.289147 0.880435 0.366416 -0.249712
H17   H     H_    0.655653 0.648438 0.367162 0.129327
H18   H     H_    0.343871 0.372416 0.649686 0.131452
H19   H     H_    0.344416 0.351643 0.867093 0.129152
H20   H     H_    0.656135 0.627539 0.149706 0.131585
H21   H     H_    0.155570 0.851686 0.132940 0.129093
H22   H     H_    0.843821 0.127475 0.850235 0.131684
H23   H     H_    0.844410 0.148354 0.632922 0.129120
H24   H     H_    0.156162 0.872489 0.350265 0.131642
C49   C     C_R   0.948901 0.645628 0.351032 -0.096065
C50   C     C_R   0.050793 0.354167 0.648707 -0.096708
C51   C     C_R   0.051116 0.354374 0.851032 -0.096060
C52   C     C_R   0.949186 0.645844 0.148697 -0.096688
C53   C     C_R   0.448900 0.854370 0.148964 -0.096085
C54   C     C_R   0.550815 0.145840 0.851298 -0.096671
C55   C     C_R   0.551103 0.145631 0.648965 -0.096066
C56   C     C_R   0.449200 0.854160 0.351298 -0.096683
N1    N     N_R   0.831242 0.511452 0.482732 -0.223159
N2    N     N_R   0.169300 0.483572 0.513082 -0.223766
N3    N     N_R   0.168768 0.488466 0.982810 -0.222960
N4    N     N_R   0.830686 0.516572 0.012965 -0.223852
N5    N     N_R   0.331297 0.988488 0.017211 -0.222818
N6    N     N_R   0.669369 0.016498 0.986975 -0.224032
N7    N     N_R   0.668768 0.011593 0.517145 -0.222944
N8    N     N_R   0.330689 0.983413 0.487038 -0.223906
N9    N     N_R   0.846875 0.477727 0.517614 -0.293000
N10   N     N_R   0.153663 0.517490 0.478347 -0.292976
N11   N     N_R   0.153121 0.522203 0.017682 -0.292844
N12   N     N_R   0.846338 0.482642 0.978240 -0.293177
N13   N     N_R   0.346938 0.022227 0.982341 -0.292647
N14   N     N_R   0.653724 0.982567 0.021699 -0.293353
N15   N     N_R   0.653128 0.977854 0.482276 -0.292791
N16   N     N_R   0.346334 0.017345 0.521763 -0.293213
C57   C     C_R   0.016373 0.463278 0.533930 0.507970
C58   C     C_R   0.984098 0.532601 0.462573 0.508102
C59   C     C_R   0.983606 0.536765 0.033900 0.507804
C60   C     C_R   0.015910 0.467416 0.962564 0.508272
C61   C     C_R   0.516445 0.036741 0.966082 0.507746
C62   C     C_R   0.484156 0.967390 0.037416 0.508338
C63   C     C_R   0.483614 0.963255 0.466082 0.507755
C64   C     C_R   0.515902 0.032607 0.537416 0.508323
O21   O     O_3   0.635932 0.583056 0.437088 -0.559493
C65   C     C_3   0.572867 0.624624 0.464985 0.078158
H25   H     H_    0.419624 0.621134 0.468136 0.153829
H26   H     H_    0.599910 0.663248 0.449394 0.093782
C66   C     C_3   0.657086 0.621619 0.514056 -0.296446
H27   H     H_    0.627363 0.583259 0.529481 0.232550
H28   H     H_    0.810148 0.626612 0.511907 0.179806
C67   C     C_3   0.576957 0.663030 0.546008 -0.832954
H29   H     H_    0.606448 0.701927 0.531686 0.238458
H30   H     H_    0.641371 0.659923 0.581122 0.237561
H31   H     H_    0.424430 0.657949 0.549680 0.234004
O22   O     O_3   0.363916 0.441616 0.582812 -0.559871
C68   C     C_3   0.427567 0.476803 0.617099 0.078942
H32   H     H_    0.580246 0.480667 0.612782 0.153992
H33   H     H_    0.404639 0.463436 0.653641 0.095371
C69   C     C_3   0.339260 0.529917 0.609892 -0.298623
H34   H     H_    0.365085 0.543126 0.573587 0.231454
H35   H     H_    0.186773 0.527325 0.615417 0.179454
C70   C     C_3   0.419697 0.569534 0.643615 -0.835508
H36   H     H_    0.393819 0.557633 0.680297 0.236992
H37   H     H_    0.352513 0.607439 0.637579 0.237904
H38   H     H_    0.571577 0.573741 0.637907 0.233580
O23   O     O_3   0.364091 0.417009 0.937078 -0.559474
C71   C     C_3   0.427634 0.375409 0.964867 0.078764
H39   H     H_    0.580440 0.379524 0.968678 0.154267
H40   H     H_    0.403846 0.336886 0.948762 0.093960
C72   C     C_3   0.340203 0.377443 0.013632 -0.298974
H41   H     H_    0.366836 0.415720 0.029573 0.231889
H42   H     H_    0.187589 0.371831 0.010838 0.179585
C73   C     C_3   0.420646 0.335970 0.045468 -0.831736
H43   H     H_    0.394206 0.297138 0.030634 0.238422
H44   H     H_    0.353937 0.338362 0.080357 0.237559
H45   H     H_    0.572633 0.341640 0.049784 0.233743
O24   O     O_3   0.636022 0.558440 0.082777 -0.559857
C74   C     C_3   0.572567 0.523157 0.117005 0.078624
H46   H     H_    0.419526 0.519843 0.113163 0.153748
H47   H     H_    0.598023 0.536046 0.153589 0.095074
C75   C     C_3   0.658203 0.469844 0.109062 -0.296726
H48   H     H_    0.630068 0.457121 0.072719 0.232128
H49   H     H_    0.811038 0.471893 0.114144 0.179592
C76   C     C_3   0.577711 0.430117 0.142670 -0.836418
H50   H     H_    0.605451 0.441586 0.179379 0.236989
H51   H     H_    0.643318 0.392095 0.136167 0.237880
H52   H     H_    0.425476 0.426372 0.137304 0.233871
O25   O     O_3   0.135968 0.917023 0.062914 -0.559494
C77   C     C_3   0.072327 0.875411 0.035155 0.078938
H53   H     H_    0.919750 0.879791 0.031026 0.154539
H54   H     H_    0.094650 0.836938 0.051483 0.094074
C78   C     C_3   0.161294 0.877026 0.986548 -0.300149
H55   H     H_    0.136161 0.915270 0.970397 0.231513
H56   H     H_    0.313665 0.871121 0.989652 0.179477
C79   C     C_3   0.080733 0.835551 0.954733 -0.831136
H57   H     H_    0.105846 0.796742 0.969762 0.238418
H58   H     H_    0.148438 0.837660 0.919949 0.237587
H59   H     H_    0.929004 0.841474 0.950136 0.233587
O26   O     O_3   0.863987 0.058392 0.917152 -0.559847
C80   C     C_3   0.927247 0.023086 0.882918 0.078283
H60   H     H_    0.080533 0.020161 0.886393 0.153424
H61   H     H_    0.899914 0.035674 0.846330 0.094966
C81   C     C_3   0.843556 0.969631 0.891334 -0.295249
H62   H     H_    0.873560 0.957195 0.927664 0.232455
H63   H     H_    0.690461 0.971309 0.886639 0.179785
C82   C     C_3   0.923853 0.929890 0.857710 -0.837103
H64   H     H_    0.894216 0.941070 0.821021 0.237016
H65   H     H_    0.859695 0.891756 0.864573 0.237895
H66   H     H_    0.076411 0.926531 0.862690 0.233990
O27   O     O_3   0.864064 0.083013 0.562910 -0.559481
C83   C     C_3   0.927681 0.124634 0.535160 0.078797
H67   H     H_    0.080391 0.120410 0.531229 0.154341
H68   H     H_    0.904493 0.163130 0.551373 0.094017
C84   C     C_3   0.839669 0.122803 0.486451 -0.299427
H69   H     H_    0.865738 0.084554 0.470401 0.231699
H70   H     H_    0.687150 0.128522 0.489364 0.179574
C85   C     C_3   0.920139 0.164311 0.454658 -0.831487
H71   H     H_    0.894124 0.203120 0.469590 0.238422
H72   H     H_    0.853095 0.162048 0.419800 0.237573
H73   H     H_    0.072045 0.158565 0.450247 0.233662
O28   O     O_3   0.136038 0.941579 0.417187 -0.559867
C86   C     C_3   0.072726 0.976891 0.382964 0.078431
H74   H     H_    0.919559 0.980017 0.386617 0.153622
H75   H     H_    0.099129 0.964163 0.346374 0.095023
C87   C     C_3   0.157434 0.030267 0.391165 -0.296001
H76   H     H_    0.128390 0.042830 0.427508 0.232282
H77   H     H_    0.310400 0.028399 0.386273 0.179667
C88   C     C_3   0.077051 0.070022 0.357567 -0.836742
H78   H     H_    0.105731 0.058716 0.320862 0.237001
H79   H     H_    0.141957 0.108095 0.364267 0.237895
H80   H     H_    0.924653 0.073576 0.362740 0.233930

loop_
_geom_bond_atom_site_label_1
_geom_bond_atom_site_label_2
_ccdc_geom_bond_type
O17   V3    S    
C40   O28   S    
C16   C56   A    
C48   H24   S    
O18   V4    S    
O12   V1    S    
C30   C38   A    
C76   H51   S    
C76   H50   S    
O7    C6    A    
C29   C37   A    
C74   H46   S    
C10   H2    S    
C21   C29   A    
C27   C60   S    
C36   C44   A    
C31   C39   A    
C27   C35   A    
N5    N13   A    
O15   V4    S    
C75   H49   S    
C88   H78   S    
O16   V3    S    
O11   C3    A    
C17   C25   A    
O12   C4    A    
N2    N10   A    
C81   C82   S    
O8    V1    S    
N1    N9    A    
C74   H47   S    
C1    C56   S    
C46   H22   S    
O24   C74   S    
C68   H33   S    
C3    C54   S    
C80   H61   S    
O19   V1    S    
C9    C17   A    
C26   C34   A    
C84   C85   S    
O1    V3    S    
C32   C40   A    
C39   O27   S    
O26   C80   S    
O3    C2    A    
O2    V4    S    
C77   H53   S    
N8    C63   A    
C20   H12   S    
C73   H45   S    
C45   H21   S    
C35   C43   A    
C15   C23   A    
C70   H36   S    
C81   H63   S    
C35   O23   S    
C16   C24   A    
C85   H73   S    
C47   H23   S    
C86   C87   S    
O23   C71   S    
C24   H16   S    
C11   H3    S    
C38   O26   S    
C12   C20   A    
C79   H59   S    
O9    V1    S    
O4    V3    S    
C41   H17   S    
C38   C46   A    
O15   C7    A    
C37   C45   A    
C84   H69   S    
O16   C8    A    
O7    V2    S    
C43   C51   A    
C39   C47   A    
C72   C73   S    
C73   H44   S    
C42   C50   A    
N6    N14   A    
C75   H48   S    
C21   H13   S    
N3    C60   A    
C34   C42   A    
C69   C70   S    
C11   C51   A    
C28   C59   S    
C33   C41   A    
C48   C56   A    
C79   H58   S    
O5    V1    S    
C88   H79   S    
C33   O21   S    
C10   C18   A    
N11   C59   A    
C85   H71   S    
C32   C63   S    
C8    C49   S    
C44   C52   A    
C74   C75   S    
O22   C68   S    
O11   V2    S    
C67   H30   S    
C25   C33   A    
N8    N16   A    
C5    C52   S    
O28   C86   S    
C83   H67   S    
C80   C81   S    
C4    C53   S    
C22   H14   S    
C78   H56   S    
O25   C77   S    
C34   O22   S    
C86   H74   S    
C23   H15   S    
C81   H62   S    
C18   H10   S    
C24   C32   A    
C65   H26   S    
C82   H65   S    
C66   C67   S    
O10   V2    S    
C22   C30   A    
C71   C72   S    
C78   C79   S    
C70   H38   S    
O8    C5    A    
C26   C57   S    
O13   C5    A    
C12   C52   A    
C19   C27   A    
C25   C58   S    
C72   H42   S    
C18   C26   A    
C77   C78   S    
N3    N11   A    
C85   H72   S    
C47   C55   A    
O4    C1    A    
N7    N15   A    
C69   H35   S    
O6    V2    S    
C71   H40   S    
C29   C62   S    
C78   H55   S    
C87   H77   S    
C11   C19   A    
C66   H27   S    
C76   H52   S    
C31   C64   S    
C68   C69   S    
C65   C66   S    
C19   H11   S    
N4    C59   A    
C13   H5    S    
C46   C54   A    
N7    C64   A    
C45   C53   A    
C79   H57   S    
C30   C61   S    
C15   H7    S    
O21   C65   S    
C88   H80   S    
O9    C1    A    
C82   H64   S    
C16   H8    S    
O1    C4    A    
C37   O25   S    
C6    C51   S    
N12   C60   A    
C70   H37   S    
O2    C3    A    
O13   V3    S    
O14   V4    S    
C67   H29   S    
C20   C28   A    
C17   H9    S    
N16   C64   A    
C15   C55   A    
N14   C62   A    
C28   C36   A    
C87   C88   S    
C43   H19   S    
C42   H18   S    
C69   H34   S    
C9    H1    S    
N4    N12   A    
O20   V2    S    
C65   H25   S    
C82   H66   S    
C13   C21   A    
C86   H75   S    
C14   C54   A    
C68   H32   S    
C67   H31   S    
C13   C53   A    
O14   C6    A    
C80   H60   S    
C73   H43   S    
O5    C8    A    
C41   C49   A    
O10   C2    A    
O6    C7    A    
N2    C57   A    
C10   C50   A    
N1    C58   A    
C9    C49   A    
C2    C55   S    
O3    V4    S    
C77   H54   S    
C14   H6    S    
C83   H68   S    
C12   H4    S    
N6    C61   A    
O27   C83   S    
N10   C58   A    
C14   C22   A    
N5    C62   A    
C7    C50   S    
N9    C57   A    
C71   H39   S    
C75   C76   S    
C40   C48   A    
C87   H76   S    
C72   H41   S    
C84   H70   S    
C66   H28   S    
C44   H20   S    
C36   O24   S    
N13   C61   A    
C23   C31   A    
C83   C84   S    
N15   C63   A    
