data_mof_unit_32481.cif
_audit_creation_date              2012-12-10T19:01:50-0500
_audit_creation_method            fapswitch 2.2
_symmetry_space_group_name_H-M    P1
_symmetry_Int_Tables_number       1
_space_group_crystal_system       triclinic
_cell_length_a                    11.694648
_cell_length_b                    10.818985
_cell_length_c                    9.578293
_cell_angle_alpha                 90.691463
_cell_angle_beta                  90.024388
_cell_angle_gamma                 90.350589
_cell_volume                      1211.77497545

loop_
_atom_site_label
_atom_site_type_symbol
_atom_type_description
_atom_site_fract_x
_atom_site_fract_y
_atom_site_fract_z
_atom_type_partial_charge
C1    C     C_R   0.497637 0.262738 0.498711 0.833243
C2    C     C_R   0.500069 0.129667 0.492837 -0.135442
C3    C     C_R   0.436287 0.061455 0.392490 0.239777
C4    C     C_R   0.437292 0.931831 0.397035 -0.272422
C5    C     C_R   0.503708 0.870794 0.497149 -0.122651
C6    C     C_R   0.580459 0.940336 0.577810 0.026881
C7    C     C_3   0.615603 0.937663 0.728616 -0.232190
C8    C     C_3   0.606030 0.080010 0.728767 -0.219829
C9    C     C_R   0.599962 0.501358 0.073077 0.200521
C10   C     C_R   0.400901 0.488836 0.073880 -0.094908
C11   C     C_R   0.400809 0.489898 0.925726 -0.092073
C12   C     C_R   0.284058 0.499577 0.499966 0.826959
C13   C     C_R   0.600249 0.496830 0.926076 0.200725
C14   C     C_3   0.697465 0.585637 0.915298 -0.450789
C15   C     C_3   0.693260 0.597416 0.073929 0.024170
C16   C     C_R   0.501731 0.737476 0.500352 0.800262
C17   C     C_R   0.715895 0.499587 0.500002 0.816377
C18   C     C_1   0.162316 0.498543 0.499874 -0.202550
C19   C     C_1   0.059801 0.497813 0.499706 -0.035128
C20   C     C_1   0.940004 0.497680 0.499572 -0.029153
C21   C     C_1   0.837524 0.498427 0.499833 -0.186626
C22   C     C_R   0.575430 0.066880 0.578054 -0.008145
Cu1   Cu    Cu3+1 0.499990 0.499980 0.640670 0.937884
Cu2   Cu    Cu3+1 0.500010 0.500020 0.359330 0.934332
H1    H     H_    0.675063 0.668679 0.855592 0.225290
H2    H     H_    0.773060 0.564803 0.124468 0.113560
H3    H     H_    0.382859 0.879404 0.326074 0.150625
H4    H     H_    0.548974 0.893527 0.793857 0.142906
H5    H     H_    0.531884 0.112847 0.791705 0.145544
H6    H     H_    0.320165 0.481181 0.127713 0.150223
H7    H     H_    0.319940 0.483527 0.871715 0.144981
H8    H     H_    0.776451 0.539865 0.877109 0.177057
N1    N     N_R   0.500710 0.500930 0.147930 -0.175939
N2    N     N_R   0.500710 0.500890 0.852020 -0.177722
O1    O     O_R   0.500000 0.319640 0.618810 -0.583712
O2    O     O_R   0.500010 0.319680 0.381230 -0.553815
O3    O     O_R   0.337190 0.499990 0.618790 -0.588515
O4    O     O_R   0.337200 0.500030 0.381210 -0.580695
O5    O     O_R   0.499990 0.680320 0.618770 -0.581823
O6    O     O_R   0.500000 0.680360 0.381190 -0.587581
O7    O     O_R   0.662800 0.499970 0.618790 -0.563937
O8    O     O_R   0.662810 0.500010 0.381210 -0.594830
N3    N     N_2   0.363343 0.121893 0.296384 -0.416449
H9    H     H_    0.281243 0.086468 0.295666 0.238530
C23   C     C_3   0.409615 0.130793 0.156732 -0.665944
H10   H     H_    0.496934 0.171891 0.159069 0.239751
H11   H     H_    0.412844 0.037873 0.106330 0.197563
H12   H     H_    0.353979 0.191025 0.093195 0.220182
N4    N     N_2   0.659226 0.719827 0.124412 -0.392036
H13   H     H_    0.678419 0.736534 0.227981 0.264441
C24   C     C_3   0.552778 0.775557 0.079159 -0.628346
H14   H     H_    0.558344 0.877094 0.094993 0.196456
H15   H     H_    0.479512 0.740819 0.140224 0.248865
H16   H     H_    0.534344 0.756228 0.968052 0.213060
C25   C     C_R   0.734930 0.888112 0.755990 0.145422
C26   C     C_R   0.800547 0.829050 0.651540 -0.143211
C27   C     C_R   0.910496 0.786903 0.681618 -0.147810
C28   C     C_R   0.955318 0.800562 0.816061 -0.125304
C29   C     C_R   0.890702 0.857642 0.920677 -0.119599
C30   C     C_R   0.781371 0.901469 0.890838 -0.102071
H17   H     H_    0.767921 0.816000 0.546659 0.111012
H18   H     H_    0.961275 0.744012 0.600380 0.140963
H19   H     H_    0.040272 0.767244 0.839015 0.124104
H20   H     H_    0.925463 0.868418 0.024878 0.124234
H21   H     H_    0.732985 0.946839 0.972740 0.134892
C31   C     C_R   0.714702 0.154484 0.755770 0.196217
C32   C     C_R   0.804876 0.159727 0.658204 -0.119753
C33   C     C_R   0.904655 0.226299 0.689299 -0.135586
C34   C     C_R   0.915687 0.288325 0.817330 -0.103620
C35   C     C_R   0.827187 0.283230 0.914951 -0.160635
C36   C     C_R   0.727076 0.217077 0.884291 -0.154063
H22   H     H_    0.798858 0.111388 0.558874 0.120660
H23   H     H_    0.973601 0.229631 0.614074 0.133365
H24   H     H_    0.992940 0.340058 0.841014 0.122902
H25   H     H_    0.835978 0.330884 0.014420 0.119131
H26   H     H_    0.659514 0.213724 0.961481 0.101836

loop_
_geom_bond_atom_site_label_1
_geom_bond_atom_site_label_2
_ccdc_geom_bond_type
C25   C26   A    
C8    C31   S    
Cu2   O8    S    
C19   C20   S    
C7    C25   S    
C7    C8    S    
C23   H10   S    
C3    N3    S    
C29   H20   S    
Cu2   O2    S    
C8    H5    S    
C32   H22   S    
C5    C6    A    
C6    C22   A    
C26   C27   A    
C1    C2    S    
C12   O3    A    
C9    C13   A    
C17   O8    A    
C5    C16   S    
C33   C34   A    
N4    C24   S    
C2    C22   A    
C8    C22   S    
Cu1   Cu2   S    
C35   C36   A    
C31   C32   A    
C11   H7    S    
C29   C30   A    
C13   C14   S    
C9    N1    A    
C23   H11   S    
C32   C33   A    
C27   H18   S    
C18   C19   T    
C15   H2    S    
C28   C29   A    
Cu1   O3    S    
C17   C21   S    
C7    H4    S    
C24   H14   S    
C24   H15   S    
N3    H9    S    
C10   H6    S    
Cu2   O4    S    
C31   C36   A    
Cu1   N2    S    
C34   H24   S    
N3    C23   S    
C16   O6    A    
C30   H21   S    
Cu1   O1    S    
C3    C4    A    
C4    H3    S    
C1    O1    A    
C23   H12   S    
C28   H19   S    
C14   C15   S    
C11   N2    A    
C14   H8    S    
C4    C5    A    
C6    C7    S    
Cu2   N1    S    
Cu1   O7    S    
C24   H16   S    
C2    C3    A    
C33   H23   S    
C13   N2    A    
C27   C28   A    
C36   H26   S    
Cu1   O5    S    
Cu2   O6    S    
C10   N1    A    
C15   N4    S    
C14   H1    S    
C12   O4    A    
C34   C35   A    
C17   O7    A    
C10   C11   A    
C16   O5    A    
C20   C21   T    
C1    O2    A    
N4    H13   S    
C12   C18   S    
C35   H25   S    
C26   H17   S    
C25   C30   A    
C9    C15   S    
