data_mof_unit_67270.cif
_audit_creation_date              2013-03-05T16:01:56-0500
_audit_creation_method            fapswitch 2.2
_symmetry_space_group_name_H-M    P1
_symmetry_Int_Tables_number       1
_space_group_crystal_system       triclinic
_cell_length_a                    8.275142
_cell_length_b                    14.394327
_cell_length_c                    14.985034
_cell_angle_alpha                 95.629509
_cell_angle_beta                  97.513076
_cell_angle_gamma                 91.694894
_cell_volume                      1759.45810439

loop_
_atom_site_label
_atom_site_type_symbol
_atom_site_description
_atom_site_fract_x
_atom_site_fract_y
_atom_site_fract_z
_atom_type_partial_charge
P1    P     P_3+3 0.018620 0.416870 0.295980 0.475274
O1    O     O_2   0.841250 0.444240 0.280450 -0.368703
O2    O     O_3   0.112870 0.447390 0.393710 -0.380476
O3    O     O_3   0.597960 0.615760 0.327700 -0.401642
O4    O     O_2   0.689403 0.549676 0.172152 -0.339492
O5    O     O_3   0.030216 0.295737 0.273852 -0.599259
O6    O     O_3   0.602501 0.722426 0.178724 -0.540586
H1    H     H_    0.634057 0.790537 0.308478 0.136551
C1    C     C_3   0.569543 0.885947 0.209482 -1.026812
H2    H     H_    0.697283 0.900761 0.198383 0.291778
H3    H     H_    0.488155 0.888362 0.144733 0.255595
P2    P     P_3+3 0.635650 0.716500 0.560900 0.507284
P3    P     P_3+3 0.042201 0.784293 0.364601 0.504473
O7    O     O_2   0.802240 0.729720 0.532850 -0.294063
O8    O     O_3   0.017190 0.664840 0.371090 -0.338578
O9    O     O_2   0.915666 0.832612 0.418635 -0.366458
O10   O     O_3   0.669412 0.750508 0.677039 -0.560430
O11   O     O_3   0.981700 0.805842 0.252661 -0.540233
C2    C     C_3   0.051029 0.740633 0.194279 0.496416
H4    H     H_    0.963263 0.680219 0.173544 0.123093
H5    H     H_    0.167660 0.714082 0.225228 -0.001044
C3    C     C_3   0.085583 0.786706 0.111166 -1.091254
H6    H     H_    0.124727 0.734114 0.060159 0.235842
H7    H     H_    0.974548 0.819417 0.080659 0.285559
C4    C     C_3   0.268784 0.755410 0.688470 0.642813
H8    H     H_    0.371927 0.716452 0.666007 0.027846
C5    C     C_3   0.337280 0.842254 0.751106 -0.209283
H9    H     H_    0.420562 0.819900 0.808647 0.092693
H10   H     H_    0.236210 0.878224 0.780066 0.136437
Ba1   Ba    Ba6+2 0.833410 0.543320 0.453520 1.602942
C6    C     C_3   0.924749 0.243067 0.317109 0.634310
H11   H     H_    0.881919 0.284613 0.375094 0.006156
C7    C     C_3   0.019908 0.161472 0.352948 -0.481870
H12   H     H_    0.939940 0.115601 0.385539 0.146896
H13   H     H_    0.118620 0.190297 0.406442 0.201993
C8    C     C_3   0.741088 0.681026 0.725857 0.324984
H14   H     H_    0.872798 0.682127 0.720285 0.116425
H15   H     H_    0.685486 0.610179 0.702034 0.107990
C9    C     C_3   0.713919 0.705483 0.824135 -0.485784
H16   H     H_    0.726041 0.782517 0.841860 0.219478
H17   H     H_    0.587226 0.682411 0.830666 0.200046
P4    P     P_3+3 0.171070 0.583210 0.704020 0.477118
O12   O     O_2   0.348460 0.555790 0.719610 -0.378579
O13   O     O_3   0.076820 0.552690 0.606290 -0.344444
O14   O     O_3   0.591740 0.384320 0.672310 -0.367298
O15   O     O_3   0.175361 0.703260 0.737912 -0.671041
P5    P     P_3+3 0.154751 0.213794 0.630229 0.511118
O16   O     O_3   0.629090 0.386360 0.459240 -0.380728
O17   O     O_3   0.172500 0.335240 0.628910 -0.343711
O18   O     O_2   0.284014 0.172109 0.574375 -0.363930
O19   O     O_3   0.229023 0.189254 0.740170 -0.464524
Ba2   Ba    Ba6+2 0.356410 0.456750 0.546480 1.601853
P6    P     P_3+3 0.558873 0.611241 0.210056 0.458568
C10   C     C_3   0.554060 0.790087 0.242851 0.500641
H18   H     H_    0.425210 0.777294 0.252851 -0.000058
H19   H     H_    0.534860 0.940435 0.260393 0.223103
O20   O     O_3   0.560600 0.613720 0.540760 -0.399235
C11   C     C_3   0.452637 0.311069 0.270395 0.251396
H20   H     H_    0.359271 0.350005 0.303680 0.098446
H21   H     H_    0.559334 0.358854 0.268337 0.150718
C12   C     C_3   0.378150 0.271085 0.174257 -0.202596
H22   H     H_    0.247336 0.251560 0.173938 0.153403
H23   H     H_    0.437412 0.205759 0.153712 0.148142
P7    P     P_3+3 0.557763 0.268981 0.432565 0.415847
O21   O     O_2   0.387470 0.270310 0.467210 -0.344803
O22   O     O_3   0.503665 0.235223 0.317177 -0.628844
H24   H     H_    0.184967 0.841227 0.130429 0.258823
C13   C     C_3   0.101517 0.179121 0.792731 0.240621
H25   H     H_    0.102229 0.242436 0.841666 0.096274
H26   H     H_    0.978819 0.172002 0.752899 -0.004288
C14   C     C_3   0.129016 0.092115 0.843575 -0.026523
H27   H     H_    0.160195 0.035344 0.793481 0.200982
P8    P     P_3+3 0.635533 0.400408 0.790420 0.493544
C15   C     C_3   0.643055 0.236364 0.850763 0.702543
H28   H     H_    0.769154 0.248741 0.834403 -0.046554
O23   O     O_2   0.543750 0.486260 0.822040 -0.363788
O24   O     O_3   0.539148 0.310818 0.837196 -0.448787
H29   H     H_    0.726301 0.157678 0.962998 0.205308
C16   C     C_3   0.660553 0.222031 0.950452 -1.016313
H30   H     H_    0.539153 0.216467 0.973547 0.305758
H31   H     H_    0.730690 0.282246 0.989901 0.258323
C17   C     C_R   0.349383 0.561383 0.168610 0.212151
H32   H     H_    0.319494 0.530594 0.303454 0.174911
H33   H     H_    0.459118 0.643647 0.032264 0.172506
C18   C     C_R   0.115305 0.476262 0.208991 0.309854
C19   C     C_R   0.940821 0.467272 0.765580 -0.433482
C20   C     C_R   0.850880 0.433172 0.828468 0.196980
C21   C     C_R   0.910543 0.444103 0.920639 -0.299085
C22   C     C_R   0.062216 0.491041 0.953107 0.113517
C23   C     C_R   0.147421 0.532641 0.888280 0.017662
C24   C     C_R   0.125971 0.503372 0.048485 0.080360
C25   C     C_R   0.277307 0.554443 0.076437 0.070022
C26   C     C_R   0.351911 0.598531 0.012139 -0.206856
C27   C     C_R   0.287651 0.589039 0.920908 -0.124721
C28   C     C_R   0.047678 0.464317 0.116856 -0.265453
C29   C     C_R   0.264894 0.524791 0.233398 -0.522063
C30   C     C_R   0.084882 0.520407 0.793210 0.250869
H34   H     H_    0.935814 0.422475 0.100570 0.155030
H35   H     H_    0.889204 0.460695 0.694956 0.155540
H36   H     H_    0.829996 0.422236 0.965927 0.156147
H37   H     H_    0.349637 0.627480 0.876464 0.159134
C31   C     C_R   0.711540 0.936472 0.540296 -0.020497
C32   C     C_R   0.514320 0.800068 0.494806 0.206816
C33   C     C_R   0.364932 0.766331 0.445840 -0.448137
C34   C     C_R   0.251730 0.827541 0.409606 0.301416
C35   C     C_R   0.295661 0.921747 0.411819 -0.289067
C36   C     C_R   0.451118 0.956276 0.451144 0.098913
C37   C     C_R   0.560957 0.896726 0.495908 0.007108
H38   H     H_    0.331616 0.692627 0.441519 0.186002
C38   C     C_R   0.645720 0.089568 0.490964 -0.011244
C39   C     C_R   0.757325 0.030717 0.535445 0.043752
C40   C     C_R   0.687700 0.186060 0.492894 0.205451
C41   C     C_R   0.838281 0.221729 0.538965 -0.483420
C42   C     C_R   0.951864 0.163192 0.578610 0.196789
C43   C     C_R   0.911882 0.067726 0.576716 -0.294636
C44   C     C_R   0.493827 0.050941 0.449083 -0.162528
H39   H     H_    0.207879 0.968594 0.384290 0.152793
H40   H     H_    0.999597 0.023395 0.609409 0.207278
H41   H     H_    0.870299 0.295415 0.540883 0.171047
H42   H     H_    0.793229 0.895312 0.580005 0.209658
H43   H     H_    0.406059 0.094314 0.415637 0.160884
N1    N     N_R   0.424279 0.907183 0.703710 0.242570
O25   O     O_R   0.578394 0.927396 0.729544 -0.440409
O26   O     O_R   0.343758 0.955515 0.645271 -0.401684
N2    N     N_2   0.784750 0.206052 0.253439 -0.108620
H44   H     H_    0.728878 0.145980 0.269498 0.168094
C45   C     C_3   0.792705 0.208151 0.157968 -0.820809
H45   H     H_    0.907445 0.179149 0.138609 0.255933
H46   H     H_    0.688710 0.165670 0.118786 0.225323
H47   H     H_    0.786851 0.281361 0.141661 0.284858
N3    N     N_2   0.090351 0.108874 0.280689 -0.074096
H48   H     H_    0.215400 0.105285 0.291702 0.201298
C46   C     C_3   0.005064 0.022355 0.240822 -0.850387
H49   H     H_    0.084596 0.981488 0.199105 0.251280
H50   H     H_    0.892919 0.036053 0.196266 0.251916
H51   H     H_    0.970115 0.980378 0.293958 0.277963
N4    N     N_2   0.829940 0.661893 0.885759 -0.109747
H52   H     H_    0.946670 0.690879 0.890419 0.190285
C47   C     C_3   0.777817 0.652710 0.972964 -0.786893
H53   H     H_    0.879622 0.629968 0.019956 0.231275
H54   H     H_    0.678366 0.598211 0.965489 0.278614
H55   H     H_    0.736451 0.720381 0.002517 0.252586
N5    N     N_R   0.394418 0.335898 0.106699 0.236596
O27   O     O_R   0.287262 0.329085 0.034544 -0.433513
O28   O     O_R   0.534929 0.377403 0.103659 -0.401102
N6    N     N_2   0.264183 0.110794 0.916335 -0.080967
H56   H     H_    0.244167 0.163309 0.964952 0.217325
C48   C     C_3   0.334649 0.030491 0.954870 -0.942031
H57   H     H_    0.244846 0.994079 0.989743 0.257876
H58   H     H_    0.442192 0.053776 0.005333 0.245001
H59   H     H_    0.376816 0.981892 0.901590 0.264835
N7    N     N_2   0.980738 0.066631 0.879664 -0.135818
H60   H     H_    0.973478 0.095126 0.944809 0.177502
C49   C     C_3   0.922223 0.970112 0.860459 -0.872009
H61   H     H_    0.802763 0.961582 0.885536 0.260962
H62   H     H_    0.009597 0.923617 0.894626 0.245009
H63   H     H_    0.905386 0.949413 0.786312 0.289841
N8    N     N_2   0.568092 0.153332 0.796951 -0.078988
H64   H     H_    0.569350 0.092493 0.828112 0.209389
C50   C     C_3   0.610783 0.139773 0.706702 -0.680890
H65   H     H_    0.516844 0.094597 0.663011 0.316790
H66   H     H_    0.728234 0.105073 0.708799 0.200748
H67   H     H_    0.618822 0.206937 0.676897 0.230060
N9    N     N_R   0.162476 0.780140 0.610452 0.222088
O29   O     O_R   0.119003 0.714201 0.545971 -0.354804
O30   O     O_R   0.068159 0.850057 0.619227 -0.428044

loop_
_geom_bond_atom_site_label_1
_geom_bond_atom_site_label_2
_geom_bond_distance
_ccdc_geom_bond_type
P5    C42   1.850716 S    
C20   C21   1.396650 A    
C9    N4    1.444186 S    
C26   C27   1.392601 A    
O3    P6    1.744646 S    
C5    H10   1.110129 S    
C47   H54   1.107113 S    
C2    H4    1.109447 S    
C48   H59   1.107379 S    
C42   C43   1.400573 A    
C28   H34   1.076249 S    
P5    O17   1.752216 S    
P1    Ba1   3.391644 S    
N4    C47   1.445365 S    
N2    H44   1.032302 S    
P3    O11   1.747079 S    
Ba1   O16   2.796529 S    
N9    O29   1.293404 A    
C2    H5    1.110032 S    
C48   H58   1.110309 S    
O11   C2    1.406252 S    
C33   H38   1.081806 S    
C47   H55   1.112140 S    
O12   Ba2   2.844637 S    
P7    C40   1.852442 S    
C35   C36   1.398448 A    
C4    N9    1.448679 S    
C11   H21   1.108605 S    
N5    O27   1.299359 A    
Ba1   O20   2.911976 S    
C17   C25   1.423883 A    
O14   P8    1.750519 S    
P1    O1    1.525309 D    
P4    O15   1.750652 S    
C12   H23   1.108803 S    
C19   C30   1.390127 A    
C38   C39   1.418061 A    
C33   C34   1.399391 A    
C41   C42   1.394762 A    
C41   H41   1.082327 S    
C12   N5    1.458382 S    
P8    C20   1.831658 S    
C14   N7    1.455477 S    
C27   H37   1.075956 S    
C13   H25   1.111665 S    
C15   O24   1.407409 S    
P2    O10   1.744739 S    
C46   H51   1.107708 S    
C36   C37   1.417857 A    
C6    C7    1.534868 S    
C31   C37   1.410291 A    
C32   C37   1.430757 A    
O10   C8    1.397284 S    
C22   C24   1.449157 A    
C1    H2    1.109102 S    
C23   C30   1.442564 A    
C49   H62   1.109898 S    
H33   C26   1.075757 S    
C7    N3    1.454599 S    
C11   C12   1.539720 S    
O5    C6    1.400672 S    
N8    C50   1.438426 S    
Ba1   O13   2.834369 S    
C31   C39   1.409018 A    
P4    O13   1.581402 S    
O7    Ba1   2.859037 S    
C40   C41   1.400208 A    
C5    N1    1.456140 S    
C11   O22   1.400598 S    
C23   C27   1.400969 A    
P5    O18   1.542182 D    
N6    C48   1.446505 S    
P1    C18   1.876463 S    
C3    H24   1.109452 S    
C17   C29   1.401729 A    
C15   H28   1.115880 S    
C15   N8    1.449056 S    
P1    O5    1.750484 S    
C50   H67   1.107819 S    
C2    C3    1.522071 S    
C48   H57   1.110082 S    
C49   H63   1.111233 S    
P3    C34   1.843013 S    
C44   H43   1.077720 S    
P4    C30   1.886893 S    
H1    C10   1.110691 S    
C24   C25   1.425528 A    
C16   H31   1.103437 S    
H29   C16   1.107537 S    
P5    O19   1.754682 S    
O14   Ba2   2.824927 S    
C4    H8    1.105747 S    
P6    C17   1.861026 S    
P1    O2    1.581402 S    
P7    O22   1.745320 S    
O2    Ba1   2.923372 S    
C45   H46   1.107047 S    
C6    H11   1.108771 S    
C47   H53   1.104158 S    
C43   H40   1.081578 S    
C7    H12   1.110996 S    
C1    H19   1.110285 S    
N7    H60   1.031044 S    
C19   H35   1.082199 S    
C1    H3    1.110554 S    
C49   H61   1.110192 S    
C21   H36   1.073166 S    
P2    C32   1.865778 S    
P2    O20   1.573084 S    
N7    C49   1.446668 S    
C15   C16   1.516828 S    
P3    O8    1.739485 S    
C35   H39   1.075986 S    
N8    H64   1.031774 S    
P8    O23   1.537304 D    
C3    H7    1.110374 S    
P4    O12   1.525731 D    
O6    P6    1.752073 S    
N1    O26   1.299709 A    
N3    H48   1.029990 S    
C38   C44   1.402429 A    
C9    H16   1.113037 S    
C31   H42   1.072254 S    
O8    Ba1   2.766962 S    
N2    C45   1.443927 S    
N6    H56   1.029810 S    
N4    H52   1.031908 S    
O4    P6    1.546927 D    
N5    O28   1.299646 A    
Ba1   Ba2   4.534478 S    
C10   H18   1.108528 S    
C8    H14   1.103715 S    
P2    Ba1   3.409453 S    
C19   C20   1.391223 A    
C8    C9    1.527378 S    
O17   Ba2   2.767502 S    
P2    O7    1.504995 D    
N3    C46   1.448368 S    
O2    Ba2   2.835026 S    
N1    O25   1.299151 A    
C4    C5    1.534166 S    
C34   C35   1.389595 A    
O1    Ba1   2.843952 S    
C50   H65   1.099669 S    
C8    H15   1.112211 S    
C11   H20   1.109680 S    
C45   H47   1.105894 S    
C14   H27   1.113822 S    
P7    O21   1.564189 D    
C18   C28   1.412300 A    
O13   Ba2   2.924348 S    
C46   H49   1.108291 S    
C18   C29   1.390819 A    
C13   C14   1.536070 S    
H32   C29   1.081532 S    
N9    O30   1.298712 A    
C25   C26   1.401637 A    
C7    H13   1.106994 S    
O19   C13   1.409146 S    
C12   H22   1.109598 S    
C38   C40   1.418319 A    
C36   C44   1.401893 A    
O16   P7    1.763427 S    
Ba2   O20   2.796016 S    
C24   C28   1.431974 A    
C16   H30   1.107704 S    
O16   Ba2   2.911020 S    
C14   N6    1.455322 S    
C21   C22   1.412154 A    
C9    H17   1.109790 S    
C13   H26   1.105011 S    
P3    O9    1.545991 D    
P4    Ba2   3.392315 S    
C32   C33   1.399925 A    
C46   H50   1.104764 S    
P8    O24   1.747345 S    
C3    H6    1.108130 S    
C39   C43   1.410774 A    
C1    C10   1.520561 S    
O6    C10   1.404582 S    
C22   C23   1.437935 A    
C4    O15   1.390911 S    
C6    N2    1.452940 S    
O3    Ba1   2.825510 S    
Ba2   O21   2.859094 S    
C45   H45   1.109810 S    
C50   H66   1.104042 S    
C5    H9    1.110914 S    
