data_mof_unit_55618.cif
_audit_creation_date              2012-12-10T18:04:53-0500
_audit_creation_method            fapswitch 2.2
_symmetry_space_group_name_H-M    P1
_symmetry_Int_Tables_number       1
_space_group_crystal_system       triclinic
_cell_length_a                    10.795749
_cell_length_b                    9.476946
_cell_length_c                    17.545296
_cell_angle_alpha                 90.507362
_cell_angle_beta                  89.852906
_cell_angle_gamma                 89.573485
_cell_volume                      1794.94571071

loop_
_atom_site_label
_atom_site_type_symbol
_atom_type_description
_atom_site_fract_x
_atom_site_fract_y
_atom_site_fract_z
_atom_type_partial_charge
C1    C     C_R   0.262609 0.500365 0.498723 0.850378
C2    C     C_R   0.501546 0.501201 0.645812 0.806760
C3    C     C_R   0.872047 0.497437 0.499897 -0.150643
C4    C     C_R   0.128881 0.500999 0.498911 -0.141312
C5    C     C_R   0.408575 0.610707 0.849284 0.136567
C6    C     C_R   0.467296 0.353705 0.154670 0.165103
C7    C     C_R   0.434486 0.609694 0.153447 0.164883
C8    C     C_R   0.464448 0.359715 0.845800 0.161740
C9    C     C_R   0.448363 0.625035 0.772420 0.110901
C10   C     C_R   0.518817 0.364322 0.228765 0.124797
C11   C     C_R   0.489599 0.621225 0.226378 0.115305
C12   C     C_R   0.737721 0.499513 0.500445 0.821657
C13   C     C_R   0.516324 0.376006 0.772225 0.124509
C14   C     C_R   0.492567 0.502858 0.731338 -0.220204
C15   C     C_R   0.510855 0.495875 0.268850 -0.232357
C16   C     C_R   0.423137 0.074529 0.452650 -0.029105
C17   C     C_R   0.576908 0.925717 0.547147 -0.015365
C18   C     C_R   0.577373 0.074637 0.546918 -0.024086
C19   C     C_R   0.423235 0.925435 0.452616 -0.034199
C20   C     C_R   0.417643 0.478544 0.885197 0.031589
C21   C     C_R   0.428487 0.476887 0.117061 0.019923
C22   C     C_3   0.358652 0.737369 0.894074 -0.877581
C23   C     C_1   0.405186 0.471458 0.967166 -0.005396
C24   C     C_3   0.451656 0.212514 0.114399 -0.873446
C25   C     C_3   0.380124 0.737092 0.113551 -0.871457
C26   C     C_3   0.459431 0.217022 0.884269 -0.867524
C27   C     C_3   0.457910 0.773925 0.739761 -0.338041
C28   C     C_3   0.339634 0.822998 0.699314 -0.811096
C29   C     C_3   0.598325 0.242802 0.259212 -0.347764
C30   C     C_3   0.712709 0.215894 0.209185 -0.873788
C31   C     C_3   0.540959 0.763420 0.253315 -0.353932
C32   C     C_3   0.631454 0.827349 0.195821 -0.867181
C33   C     C_3   0.609722 0.266196 0.742230 -0.358707
C34   C     C_1   0.408140 0.471372 0.035691 -0.006980
C35   C     C_3   0.722762 0.252009 0.794233 -0.872413
C36   C     C_3   0.139770 0.503734 0.644293 -0.400259
C37   C     C_3   0.163178 0.352952 0.671066 -0.828213
C38   C     C_3   0.861906 0.459625 0.355719 -0.386070
C39   C     C_3   0.847335 0.593187 0.308582 -0.835222
C40   C     C_3   0.863589 0.520625 0.645022 -0.385862
C41   C     C_3   0.846483 0.674736 0.669044 -0.852325
C42   C     C_3   0.139888 0.485915 0.353770 -0.385876
C43   C     C_3   0.183435 0.632378 0.330032 -0.846673
C44   C     C_R   0.066222 0.505791 0.569768 0.101972
C45   C     C_R   0.935118 0.484369 0.429165 0.097573
C46   C     C_R   0.935716 0.507818 0.570169 0.105067
C47   C     C_R   0.065797 0.491144 0.428465 0.104438
C48   C     C_R   0.508301 0.499229 0.354446 0.793423
Cu1   Cu    Cu3+1 0.500000 0.640660 0.500000 0.915114
Cu2   Cu    Cu3+1 0.500000 0.359340 0.500000 0.913155
H1    H     H_    0.361788 0.130967 0.414742 0.117484
H2    H     H_    0.356741 0.205249 0.090463 0.228854
H3    H     H_    0.368731 0.829875 0.151790 0.232626
H4    H     H_    0.439355 0.765956 0.064380 0.240918
H5    H     H_    0.285900 0.711729 0.092457 0.222732
H6    H     H_    0.478591 0.127386 0.845072 0.230204
H7    H     H_    0.526575 0.213621 0.931928 0.228827
H8    H     H_    0.364931 0.199792 0.907413 0.229128
H9    H     H_    0.331653 0.775961 0.641678 0.275659
H10   H     H_    0.255546 0.795227 0.732193 0.233031
H11   H     H_    0.341818 0.939395 0.692627 0.230096
H12   H     H_    0.638056 0.869801 0.584981 0.106281
H13   H     H_    0.478915 0.851362 0.785602 0.187572
H14   H     H_    0.540129 0.784594 0.702521 0.199417
H15   H     H_    0.688110 0.164960 0.154314 0.265788
H16   H     H_    0.761080 0.316616 0.197744 0.258391
H17   H     H_    0.778187 0.144643 0.239169 0.230499
H18   H     H_    0.636954 0.264999 0.315934 0.217760
H19   H     H_    0.543187 0.145298 0.265628 0.194634
H20   H     H_    0.692574 0.744473 0.170545 0.258255
H21   H     H_    0.582352 0.883383 0.149649 0.259522
H22   H     H_    0.690863 0.905730 0.225220 0.243967
H23   H     H_    0.640007 0.130878 0.584002 0.110429
H24   H     H_    0.464605 0.838818 0.266737 0.185378
H25   H     H_    0.597481 0.752538 0.305241 0.230976
H26   H     H_    0.762747 0.357568 0.806265 0.255415
H27   H     H_    0.699431 0.200503 0.848702 0.264935
H28   H     H_    0.794612 0.185987 0.765391 0.231652
H29   H     H_    0.565036 0.162388 0.733014 0.192266
H30   H     H_    0.650106 0.296204 0.687114 0.201636
H31   H     H_    0.074447 0.297130 0.680237 0.240045
H32   H     H_    0.219030 0.293164 0.628367 0.271157
H33   H     H_    0.215127 0.355319 0.725624 0.242599
H34   H     H_    0.361959 0.869220 0.414671 0.113124
H35   H     H_    0.230186 0.556519 0.637962 0.199965
H36   H     H_    0.093472 0.564799 0.690339 0.209817
H37   H     H_    0.778012 0.574275 0.263146 0.243549
H38   H     H_    0.814814 0.682505 0.345030 0.258054
H39   H     H_    0.935202 0.621444 0.280304 0.259912
H40   H     H_    0.902425 0.372249 0.321215 0.186496
H41   H     H_    0.767837 0.421498 0.367795 0.194701
H42   H     H_    0.936645 0.724863 0.681779 0.243343
H43   H     H_    0.801212 0.734459 0.622773 0.255954
H44   H     H_    0.787128 0.681171 0.720777 0.234975
H45   H     H_    0.295043 0.801807 0.859066 0.241076
H46   H     H_    0.770914 0.472757 0.640154 0.181808
H47   H     H_    0.908302 0.460484 0.691427 0.209367
H48   H     H_    0.263666 0.665741 0.364367 0.264867
H49   H     H_    0.212744 0.629742 0.269318 0.239381
H50   H     H_    0.108666 0.712371 0.337258 0.252953
H51   H     H_    0.221236 0.414287 0.359097 0.188263
H52   H     H_    0.087490 0.440465 0.305698 0.204868
H53   H     H_    0.302750 0.706531 0.944215 0.234905
H54   H     H_    0.436659 0.803651 0.914073 0.225977
H55   H     H_    0.519657 0.202548 0.067177 0.230557
H56   H     H_    0.462346 0.120850 0.152393 0.230974
N1    N     N_R   0.500000 0.852070 0.500000 -0.156941
N2    N     N_R   0.500000 0.147930 0.500000 -0.155630
O1    O     O_R   0.319640 0.618740 0.499990 -0.590123
O2    O     O_R   0.680360 0.381260 0.500010 -0.600671
O3    O     O_R   0.680360 0.618740 0.500010 -0.570737
O4    O     O_R   0.319640 0.381260 0.499990 -0.581668
O5    O     O_R   0.500000 0.618830 0.391250 -0.588923
O6    O     O_R   0.500000 0.381170 0.608750 -0.584182
O7    O     O_R   0.500000 0.618830 0.608750 -0.574707
O8    O     O_R   0.500000 0.381170 0.391250 -0.591218

loop_
_geom_bond_atom_site_label_1
_geom_bond_atom_site_label_2
_ccdc_geom_bond_type
C24   H2    S    
Cu1   O5    S    
C8    C13   A    
C8    C26   S    
C22   H45   S    
C16   H1    S    
C39   H37   S    
C12   O2    A    
C32   H22   S    
C5    C20   A    
C40   C46   S    
C8    C20   A    
C15   C48   S    
C36   C37   S    
C43   H49   S    
C10   C15   A    
C17   N1    A    
C1    O4    A    
C38   C39   S    
Cu2   O2    S    
C22   H54   S    
C38   C45   S    
C3    C12   S    
C1    O1    A    
C11   C15   A    
C41   H43   S    
C5    C22   S    
C31   C32   S    
C43   H48   S    
C30   H17   S    
Cu1   O3    S    
C28   H11   S    
C45   C47   A    
C11   C31   S    
C13   C14   A    
Cu2   N2    S    
C37   H31   S    
C39   H38   S    
C40   H46   S    
C42   H52   S    
C44   C46   A    
C32   H21   S    
C29   H19   S    
C28   H10   S    
C35   H26   S    
C25   H4    S    
Cu1   N1    S    
C40   H47   S    
C33   H29   S    
C31   H24   S    
C32   H20   S    
C21   C34   S    
C4    C44   A    
C36   H36   S    
C7    C21   A    
C6    C21   A    
C38   H41   S    
C3    C45   A    
C22   H53   S    
Cu2   O6    S    
C7    C11   A    
C9    C14   A    
C5    C9    A    
C29   C30   S    
C17   H12   S    
C29   H18   S    
C2    O7    A    
C31   H25   S    
C41   H44   S    
C20   C23   S    
C23   C34   T    
C6    C24   S    
Cu2   O4    S    
C17   C18   A    
C43   H50   S    
C26   H8    S    
C30   H16   S    
C27   H13   S    
C40   C41   S    
Cu1   O7    S    
Cu1   Cu2   S    
C18   H23   S    
C37   H32   S    
C36   C44   S    
C24   H56   S    
C42   C43   S    
C19   H34   S    
C42   H51   S    
C9    C27   S    
Cu1   O1    S    
C28   H9    S    
C35   H28   S    
C25   H5    S    
C25   H3    S    
C26   H6    S    
C6    C10   A    
C33   H30   S    
C36   H35   S    
C38   H40   S    
C3    C46   A    
C7    C25   S    
C48   O8    A    
C1    C4    S    
C2    O6    A    
C10   C29   S    
C16   C19   A    
C33   C35   S    
C35   H27   S    
Cu2   O8    S    
C42   C47   S    
C2    C14   S    
C26   H7    S    
C18   N2    A    
C30   H15   S    
C27   H14   S    
C16   N2    A    
C41   H42   S    
C13   C33   S    
C27   C28   S    
C37   H33   S    
C24   H55   S    
C39   H39   S    
C12   O3    A    
C48   O5    A    
C4    C47   A    
C19   N1    A    
