data_mof_unit_24756.cif
_audit_creation_date              2012-10-26T20:19:32-0400
_audit_creation_method            fapswitch 2.2
_symmetry_space_group_name_H-M    P1
_symmetry_Int_Tables_number       1
_space_group_crystal_system       triclinic
_cell_length_a                    10.732244
_cell_length_b                    10.861135
_cell_length_c                    9.576591
_cell_angle_alpha                 90.485424
_cell_angle_beta                  90.005553
_cell_angle_gamma                 92.707629
_cell_volume                      1115.00272587

loop_
_atom_site_label
_atom_site_type_symbol
_atom_type_description
_atom_site_fract_x
_atom_site_fract_y
_atom_site_fract_z
_atom_type_partial_charge
C1    C     C_R   0.510217 0.263199 0.500150 0.545420
C2    C     C_R   0.537831 0.066209 0.629783 0.024536
C3    C     C_R   0.522072 0.129544 0.502401 -0.013916
C4    C     C_R   0.259882 0.499697 0.499787 0.548386
C5    C     C_R   0.500366 0.062826 0.378502 -0.168931
C6    C     C_R   0.489781 0.935592 0.380403 -0.169766
C7    C     C_R   0.489398 0.872472 0.507403 -0.013224
C8    C     C_R   0.666315 0.664082 0.145638 -0.100509
C9    C     C_R   0.747734 0.743932 0.073923 -0.185282
C10   C     C_R   0.747864 0.743629 0.930061 -0.172493
C11   C     C_R   0.666347 0.663689 0.857117 -0.094145
C12   C     C_3   0.878152 0.500347 0.499119 0.053228
C13   C     C_R   0.581753 0.580586 0.925852 0.146907
C14   C     C_R   0.581719 0.580646 0.075561 0.154339
C15   C     C_R   0.422450 0.423078 0.073219 -0.013959
C16   C     C_R   0.493559 0.737671 0.501702 0.532585
C17   C     C_R   0.422490 0.423109 0.925158 -0.012841
C18   C     C_R   0.740127 0.500425 0.499817 0.530775
C19   C     C_3   0.066141 0.383696 0.573606 -0.235119
C20   C     C_3   0.922273 0.383587 0.572960 -0.232042
C21   C     C_3   0.077702 0.616458 0.575658 -0.231802
C22   C     C_3   0.071319 0.499971 0.346956 -0.231070
C23   C     C_3   0.933840 0.616219 0.576607 -0.240620
C24   C     C_3   0.121844 0.499941 0.499054 0.048553
C25   C     C_3   0.928736 0.501044 0.347011 -0.229583
C26   C     C_R   0.587395 0.124198 0.752269 -0.099433
C27   C     C_R   0.575525 0.066981 0.881478 -0.133528
C28   C     C_R   0.514078 0.952039 0.890691 -0.127294
C29   C     C_R   0.476249 0.889045 0.769339 -0.102215
C30   C     C_R   0.500532 0.940279 0.635547 0.022407
Cu1   Cu    Cu3+1 0.499990 0.499990 0.640660 0.893727
Cu2   Cu    Cu3+1 0.500010 0.500010 0.359340 0.903545
H1    H     H_    0.099964 0.381487 0.683402 0.122838
H2    H     H_    0.479479 0.886705 0.281677 0.135545
H3    H     H_    0.358934 0.360085 0.128019 0.109698
H4    H     H_    0.097136 0.299035 0.520167 0.107868
H5    H     H_    0.674397 0.671971 0.255732 0.183377
H6    H     H_    0.811223 0.806562 0.130742 0.112372
H7    H     H_    0.811137 0.806290 0.874204 0.117239
H8    H     H_    0.673280 0.672007 0.747141 0.185861
H9    H     H_    0.359039 0.360087 0.869084 0.117716
H10   H     H_    0.883615 0.299322 0.518346 0.105919
H11   H     H_    0.887428 0.380400 0.682415 0.125919
H12   H     H_    0.899460 0.584648 0.291680 0.121036
H13   H     H_    0.112711 0.619396 0.685109 0.127284
H14   H     H_    0.900510 0.617547 0.686578 0.122961
H15   H     H_    0.109921 0.582433 0.290392 0.128703
H16   H     H_    0.100841 0.416754 0.289339 0.119775
H17   H     H_    0.890061 0.418979 0.288219 0.130972
H18   H     H_    0.116149 0.700902 0.522866 0.108143
H19   H     H_    0.902516 0.701185 0.525709 0.098668
H20   H     H_    0.491182 0.108908 0.279380 0.133005
H21   H     H_    0.637542 0.212816 0.749552 0.140948
H22   H     H_    0.610603 0.113530 0.974912 0.109246
H23   H     H_    0.497944 0.910310 0.991779 0.114345
H24   H     H_    0.423967 0.802927 0.783866 0.149314
N1    N     N_R   0.501200 0.501210 0.147910 -0.243198
N2    N     N_R   0.501250 0.501290 0.852040 -0.249735
O1    O     O_R   0.499990 0.319640 0.618810 -0.507409
O2    O     O_R   0.500000 0.319660 0.381240 -0.503175
O3    O     O_R   0.317680 0.499970 0.618790 -0.506609
O4    O     O_R   0.317700 0.499990 0.381210 -0.505561
O5    O     O_R   0.500000 0.680340 0.618760 -0.533540
O6    O     O_R   0.500010 0.680360 0.381190 -0.521890
O7    O     O_R   0.682300 0.500010 0.618790 -0.528896
O8    O     O_R   0.682320 0.500030 0.381210 -0.525375

loop_
_geom_bond_atom_site_label_1
_geom_bond_atom_site_label_2
_ccdc_geom_bond_type
C8    C9    A    
C22   H16   S    
C5    H20   S    
C6    C7    A    
C16   O5    A    
C4    O4    A    
C2    C3    A    
C18   O8    A    
C11   C13   A    
C9    C10   A    
Cu1   O3    S    
C23   H19   S    
Cu1   Cu2   S    
C12   C25   S    
C2    C30   A    
C12   C20   S    
C19   C20   S    
C21   C23   S    
C19   C24   S    
C27   H22   S    
Cu2   O4    S    
C2    C26   A    
C23   H14   S    
C13   C14   A    
C17   N2    A    
C20   H10   S    
C15   N1    A    
C12   C23   S    
Cu2   O6    S    
C26   C27   A    
C29   C30   A    
Cu2   N1    S    
Cu1   N2    S    
C15   H3    S    
C28   C29   A    
C29   H24   S    
C28   H23   S    
C22   H15   S    
C21   H13   S    
C19   H4    S    
C1    O1    A    
C19   H1    S    
C5    C6    A    
C4    C24   S    
C22   C24   S    
C21   C24   S    
C17   H9    S    
C8    H5    S    
Cu2   O2    S    
Cu1   O1    S    
C11   H8    S    
C26   H21   S    
Cu1   O5    S    
C20   H11   S    
C9    H6    S    
C25   H12   S    
Cu2   O8    S    
C10   C11   A    
C1    O2    A    
C12   C18   S    
C27   C28   A    
C15   C17   A    
C14   N1    A    
Cu1   O7    S    
C21   H18   S    
C8    C14   A    
C13   N2    A    
C16   O6    A    
C3    C5    A    
C18   O7    A    
C4    O3    A    
C22   C25   S    
C7    C16   S    
C6    H2    S    
C10   H7    S    
C1    C3    S    
C25   H17   S    
C7    C30   A    
