data_mof_unit_62882.cif
_audit_creation_date              2012-12-10T19:03:57-0500
_audit_creation_method            fapswitch 2.2
_symmetry_space_group_name_H-M    P1
_symmetry_Int_Tables_number       1
_space_group_crystal_system       triclinic
_cell_length_a                    19.445751
_cell_length_b                    19.160086
_cell_length_c                    13.06392
_cell_angle_alpha                 90.035342
_cell_angle_beta                  96.007153
_cell_angle_gamma                 89.880532
_cell_volume                      4840.6463468

loop_
_atom_site_label
_atom_site_type_symbol
_atom_type_description
_atom_site_fract_x
_atom_site_fract_y
_atom_site_fract_z
_atom_type_partial_charge
C1    C     C_R   0.408126 0.093188 0.481370 0.891319
C2    C     C_1   0.519898 0.000054 0.147482 0.148072
C3    C     C_1   0.980113 0.499975 0.852521 0.148398
C4    C     C_1   0.019904 0.500048 0.147485 0.147988
C5    C     C_1   0.638620 0.149050 0.532202 -0.082973
C6    C     C_1   0.357251 0.855391 0.466281 -0.079180
C7    C     C_1   0.361876 0.149608 0.467943 -0.083658
C8    C     C_1   0.647433 0.859775 0.534717 -0.087320
C9    C     C_1   0.142893 0.644453 0.533778 -0.075460
C10   C     C_1   0.853005 0.359387 0.465440 -0.087027
C11   C     C_1   0.861760 0.649491 0.467898 -0.086314
C12   C     C_R   0.592107 0.907055 0.518698 0.882922
C13   C     C_1   0.147491 0.359827 0.534728 -0.085575
C14   C     C_2   0.722977 0.255217 0.540353 -0.120065
C15   C     C_2   0.262259 0.759409 0.455315 -0.123884
C16   C     C_2   0.278530 0.256785 0.460163 -0.119455
C17   C     C_2   0.753490 0.775445 0.549263 -0.119421
C18   C     C_2   0.238194 0.740124 0.544964 -0.123848
C19   C     C_2   0.747791 0.274218 0.451190 -0.120132
C20   C     C_2   0.778235 0.756512 0.460001 -0.119518
C21   C     C_2   0.253621 0.275571 0.549369 -0.119285
C22   C     C_1   0.313926 0.811646 0.457870 0.056453
C23   C     C_R   0.591886 0.093136 0.518661 0.892343
C24   C     C_1   0.676982 0.197488 0.539159 0.057765
C25   C     C_1   0.695661 0.821264 0.544677 0.054577
C26   C     C_1   0.324023 0.198557 0.461039 0.056485
C27   C     C_1   0.805195 0.320462 0.455753 0.055768
C28   C     C_1   0.186366 0.688044 0.542293 0.058112
C29   C     C_1   0.195756 0.321357 0.544718 0.055725
C30   C     C_1   0.823814 0.698360 0.460939 0.054572
C31   C     C_2   0.527694 0.000139 0.036400 0.036649
C32   C     C_2   0.472311 0.999885 0.963602 0.035954
C33   C     C_2   0.027706 0.500124 0.036405 0.037396
C34   C     C_R   0.408121 0.907075 0.481279 0.884906
C35   C     C_2   0.972323 0.499922 0.963605 0.036257
C36   C     C_2   0.722008 0.245760 0.347704 0.949629
C37   C     C_2   0.260568 0.771485 0.648020 0.949571
C38   C     C_2   0.279460 0.246915 0.652718 0.949719
C39   C     C_2   0.756571 0.789364 0.357913 0.948548
C40   C     C_2   0.239931 0.727945 0.352323 0.948407
C41   C     C_2   0.744602 0.287851 0.642608 0.950731
C42   C     C_2   0.779504 0.746967 0.652652 0.949580
C43   C     C_2   0.257099 0.289868 0.358168 0.950559
C44   C     C_R   0.908107 0.593163 0.481363 0.888200
C45   C     C_R   0.092120 0.407064 0.518700 0.887108
C46   C     C_R   0.091886 0.592916 0.518724 0.894192
C47   C     C_R   0.907925 0.407056 0.481286 0.883211
C48   C     C_1   0.480105 0.999959 0.852518 0.148244
H1    H     H_    0.377743 0.043426 0.962931 0.204069
H2    H     H_    0.300182 0.853619 0.731274 0.350590
H3    H     H_    0.357957 0.204141 0.745477 0.352318
H4    H     H_    0.719619 0.873948 0.277752 0.349995
H5    H     H_    0.200774 0.645540 0.269247 0.351079
H6    H     H_    0.781612 0.372130 0.723244 0.350219
H7    H     H_    0.858142 0.704345 0.745305 0.352055
H8    H     H_    0.220390 0.374655 0.278278 0.350904
H9    H     H_    0.378347 0.955387 0.962820 0.202562
H10   H     H_    0.622280 0.956623 0.037126 0.202454
H11   H     H_    0.621641 0.044660 0.037130 0.203568
H12   H     H_    0.877801 0.543569 0.962934 0.203577
H13   H     H_    0.878309 0.455531 0.962828 0.202727
H14   H     H_    0.122246 0.456509 0.037117 0.202773
H15   H     H_    0.121704 0.544544 0.037181 0.202155
H16   H     H_    0.643699 0.203050 0.254787 0.352272
N1    N     N_1   0.515180 0.000000 0.235860 -0.081365
N2    N     N_1   0.484820 0.000000 0.764140 -0.081212
N3    N     N_1   0.015180 0.500000 0.235860 -0.081423
N4    N     N_1   0.984820 0.500000 0.764140 -0.081350
N5    N     N_3   0.403790 0.999516 0.994886 -0.438630
N6    N     N_3   0.596215 0.000508 0.005116 -0.439431
N7    N     N_3   0.903801 0.499633 0.994891 -0.439656
N8    N     N_3   0.096231 0.500428 0.005131 -0.438754
O1    O     O_R   0.435400 0.070190 0.403000 -0.602450
O2    O     O_R   0.574340 0.929830 0.427410 -0.591081
O3    O     O_R   0.574340 0.070170 0.427410 -0.587808
O4    O     O_R   0.425660 0.929830 0.572590 -0.587611
O5    O     O_R   0.925660 0.570170 0.572590 -0.587747
O6    O     O_R   0.074340 0.429830 0.427410 -0.588446
O7    O     O_R   0.074340 0.570170 0.427410 -0.585586
O8    O     O_R   0.925660 0.429830 0.572590 -0.590398
O9    O     O_2   0.759579 0.246773 0.278206 -0.599575
O10   O     O_R   0.654547 0.220296 0.328078 -0.792601
O11   O     O_2   0.253069 0.738256 0.726031 -0.595580
O12   O     O_R   0.564600 0.929810 0.597000 -0.605597
O13   O     O_R   0.287706 0.839013 0.657050 -0.798568
O14   O     O_2   0.241823 0.247683 0.722145 -0.599585
O15   O     O_R   0.347063 0.221549 0.672286 -0.792157
O16   O     O_2   0.762456 0.756620 0.278844 -0.599314
O17   O     O_R   0.732011 0.858062 0.351406 -0.795667
O18   O     O_2   0.247072 0.761253 0.274255 -0.596944
O19   O     O_R   0.213272 0.660219 0.343436 -0.794761
O20   O     O_2   0.738592 0.255047 0.721504 -0.598504
O21   O     O_R   0.769272 0.356403 0.649498 -0.795044
O22   O     O_2   0.741993 0.747857 0.722232 -0.599275
O23   O     O_R   0.564600 0.070190 0.597000 -0.603088
O24   O     O_R   0.847126 0.721628 0.672071 -0.794177
O25   O     O_2   0.263114 0.257290 0.278994 -0.598507
O26   O     O_R   0.232615 0.358598 0.351887 -0.791077
O27   O     O_R   0.435400 0.929810 0.403000 -0.608312
O28   O     O_R   0.935400 0.570190 0.403000 -0.606492
O29   O     O_R   0.064600 0.429810 0.597000 -0.605576
O30   O     O_R   0.064600 0.570190 0.597000 -0.605397
O31   O     O_R   0.935400 0.429810 0.403000 -0.605830
O32   O     O_R   0.425660 0.070170 0.572590 -0.588867
Zn1   Zn    Zn3+2 0.506520 0.000000 0.386760 1.020539
Zn2   Zn    Zn3+2 0.493480 0.000000 0.613240 1.021553
Zn3   Zn    Zn3+2 0.006520 0.500000 0.386760 1.021025
Zn4   Zn    Zn3+2 0.993480 0.500000 0.613240 1.020763

loop_
_geom_bond_atom_site_label_1
_geom_bond_atom_site_label_2
_ccdc_geom_bond_type
C10   C27   T    
C15   C18   D    
C16   C21   D    
C12   O2    A    
C3    N4    T    
C43   O26   S    
H8    O26   S    
C2    N1    T    
C1    O1    A    
O32   Zn2   S    
C20   C30   S    
C46   O30   A    
C7    C26   T    
C38   O14   D    
C42   O24   S    
C39   O16   D    
C13   C29   T    
C44   O5    A    
C18   C37   S    
C19   C36   S    
C46   O7    A    
C6    C22   T    
C17   C20   D    
C12   O12   A    
C14   C24   S    
C17   C42   S    
H6    O21   S    
C33   N8    S    
C1    C7    S    
C15   C22   S    
C41   O21   S    
C21   C38   S    
C11   C30   T    
C36   O10   S    
C5    C23   S    
H5    O19   S    
O12   Zn2   S    
O30   Zn4   S    
C45   O6    A    
C19   C27   S    
H2    O13   S    
H13   N7    S    
O29   Zn4   S    
C35   N7    S    
C9    C46   S    
H1    N5    S    
C8    C25   T    
C32   C48   S    
H4    O17   S    
C47   O8    A    
N2    Zn2   S    
N1    Zn1   S    
C31   N6    S    
C16   C26   S    
O27   Zn1   S    
C47   O31   A    
H14   N8    S    
C18   C28   S    
H3    O15   S    
C20   C39   S    
H10   N6    S    
H12   N7    S    
C21   C29   S    
C6    C34   S    
O6    Zn3   S    
O23   Zn2   S    
O1    Zn1   S    
C31   C32   D    
C16   C43   S    
C3    C35   S    
C36   O9    D    
C8    C12   S    
C34   O27   A    
O7    Zn3   S    
C11   C44   S    
C1    O32   A    
H16   O10   S    
C45   O29   A    
C14   C41   S    
O3    Zn1   S    
H9    N5    S    
C37   O13   S    
C4    C33   S    
O28   Zn3   S    
O4    Zn2   S    
C42   O22   D    
C14   C19   D    
O5    Zn4   S    
C37   O11   D    
C43   O25   D    
C23   O3    A    
H7    O24   S    
C4    N3    T    
C32   N5    S    
O8    Zn4   S    
C38   O15   S    
C48   N2    T    
C17   C25   S    
O2    Zn1   S    
C13   C45   S    
C44   O28   A    
N3    Zn3   S    
C5    C24   T    
C33   C35   D    
C23   O23   A    
C40   O19   S    
C15   C40   S    
H11   N6    S    
C41   O20   D    
H15   N8    S    
C10   C47   S    
C2    C31   S    
O31   Zn3   S    
N4    Zn4   S    
C40   O18   D    
C39   O17   S    
C9    C28   T    
C34   O4    A    
