data_mof_unit_14913.cif
_audit_creation_date              2012-12-11T20:50:49-0500
_audit_creation_method            fapswitch 2.2
_symmetry_space_group_name_H-M    P1
_symmetry_Int_Tables_number       1
_space_group_crystal_system       triclinic
_cell_length_a                    30.47989
_cell_length_b                    33.454211
_cell_length_c                    8.742057
_cell_angle_alpha                 89.999889
_cell_angle_beta                  90.082645
_cell_angle_gamma                 89.999924
_cell_volume                      8914.0972771

loop_
_atom_site_label
_atom_site_type_symbol
_atom_type_description
_atom_site_fract_x
_atom_site_fract_y
_atom_site_fract_z
_atom_type_partial_charge
Ba1   Ba    Ba6+2 0.999930 0.472870 0.844940 1.733408
Ba2   Ba    Ba6+2 0.999930 0.527130 0.344940 1.733408
Ba3   Ba    Ba6+2 0.499930 0.972870 0.844940 1.733408
Ba4   Ba    Ba6+2 0.499930 0.027130 0.344940 1.733407
C1    C     C_3   0.010224 0.272978 0.557923 -0.078579
C2    C     C_3   0.010226 0.727021 0.057910 -0.078580
C3    C     C_3   0.510225 0.772978 0.557917 -0.078578
C4    C     C_3   0.510227 0.227020 0.057907 -0.078580
C5    C     C_R   0.245137 0.696515 0.025181 -0.047852
C6    C     C_R   0.245137 0.303482 0.525154 -0.047854
C7    C     C_R   0.745137 0.196515 0.025186 -0.047852
C8    C     C_R   0.745136 0.803484 0.525175 -0.047853
C9    C     C_R   0.212297 0.669276 0.976003 0.681972
C10   C     C_R   0.212296 0.330722 0.475985 0.681973
C11   C     C_R   0.712297 0.169276 0.976006 0.681973
C12   C     C_R   0.712296 0.830723 0.475999 0.681973
C13   C     C_R   0.160700 0.722738 0.951680 0.598999
C14   C     C_R   0.160697 0.277261 0.451703 0.599000
C15   C     C_R   0.660701 0.222738 0.951675 0.598998
C16   C     C_R   0.660698 0.777261 0.451688 0.598998
C17   C     C_R   0.193032 0.750710 0.997317 -0.056287
C18   C     C_R   0.193028 0.249289 0.497345 -0.056285
C19   C     C_R   0.693032 0.250710 0.997312 -0.056287
C20   C     C_R   0.693030 0.749290 0.497326 -0.056285
C21   C     C_R   0.235294 0.737475 0.038028 -0.049783
C22   C     C_R   0.235292 0.262524 0.538027 -0.049779
C23   C     C_R   0.735294 0.237474 0.038028 -0.049784
C24   C     C_R   0.735293 0.762525 0.538028 -0.049782
C25   C     C_R   0.287354 0.683343 0.063663 -0.044271
C26   C     C_R   0.287357 0.316652 0.563594 -0.044269
C27   C     C_R   0.787353 0.183343 0.063674 -0.044270
C28   C     C_R   0.787354 0.816656 0.563646 -0.044272
C29   C     C_R   0.819699 0.209722 0.118057 0.049700
C30   C     C_R   0.819701 0.790276 0.618022 0.049703
C31   C     C_R   0.319700 0.709723 0.118042 0.049701
C32   C     C_R   0.319705 0.290272 0.617961 0.049699
C33   C     C_R   0.810021 0.251427 0.133944 0.002505
C34   C     C_R   0.810021 0.748572 0.633927 0.002504
C35   C     C_R   0.310021 0.751428 0.133938 0.002505
C36   C     C_R   0.310022 0.248570 0.633903 0.002512
C37   C     C_R   0.767672 0.265230 0.090493 -0.094549
C38   C     C_R   0.767671 0.734770 0.590491 -0.094548
C39   C     C_R   0.267672 0.765230 0.090492 -0.094549
C40   C     C_R   0.267670 0.234769 0.590491 -0.094546
C41   C     C_R   0.183515 0.791632 0.004825 -0.074015
C42   C     C_R   0.183509 0.208369 0.504885 -0.074012
C43   C     C_R   0.683516 0.291632 0.004816 -0.074014
C44   C     C_R   0.683513 0.708368 0.504843 -0.074014
C45   C     C_3   0.979781 0.329949 0.049712 0.349351
C46   C     C_3   0.979780 0.670050 0.549700 0.349352
C47   C     C_3   0.479781 0.829949 0.049707 0.349355
C48   C     C_3   0.479780 0.170050 0.549697 0.349356
C49   C     C_R   0.714664 0.319398 0.054145 0.314882
C50   C     C_R   0.714662 0.680601 0.554172 0.314880
C51   C     C_R   0.214663 0.819399 0.054154 0.314881
C52   C     C_R   0.214657 0.180602 0.554217 0.314880
C53   C     C_R   0.757309 0.306607 0.100045 -0.086680
C54   C     C_R   0.757308 0.693392 0.600056 -0.086679
C55   C     C_R   0.257309 0.806608 0.100049 -0.086679
C56   C     C_R   0.257306 0.193392 0.600078 -0.086680
C57   C     C_R   0.789807 0.333561 0.154594 0.672275
C58   C     C_R   0.789806 0.666439 0.654603 0.672277
C59   C     C_R   0.289806 0.833561 0.154598 0.672276
C60   C     C_R   0.289804 0.166439 0.654620 0.672280
C61   C     C_R   0.841028 0.279841 0.190313 0.565648
C62   C     C_R   0.841029 0.720158 0.690299 0.565650
C63   C     C_R   0.341029 0.779841 0.190309 0.565649
C64   C     C_R   0.341030 0.220158 0.690286 0.565650
C65   C     C_2   0.108261 0.654651 0.792277 -0.058276
C66   C     C_2   0.108259 0.345347 0.292283 -0.058279
C67   C     C_2   0.608262 0.154651 0.792275 -0.058274
C68   C     C_2   0.608260 0.845348 0.292281 -0.058277
C69   C     C_3   0.069822 0.630209 0.780586 -0.094631
C70   C     C_3   0.069820 0.369791 0.280589 -0.094631
C71   C     C_3   0.569822 0.130208 0.780586 -0.094632
C72   C     C_3   0.569821 0.869792 0.280588 -0.094633
C73   C     C_1   0.095039 0.589688 0.001142 0.090504
C74   C     C_1   0.095038 0.410311 0.501143 0.090506
C75   C     C_1   0.595039 0.089688 0.001141 0.090504
C76   C     C_1   0.595038 0.910311 0.501143 0.090508
C77   C     C_2   0.123031 0.621651 0.040469 0.220143
C78   C     C_2   0.123030 0.378348 0.540471 0.220138
C79   C     C_2   0.623031 0.121651 0.040468 0.220143
C80   C     C_2   0.623030 0.878348 0.540472 0.220140
C81   C     C_2   0.134312 0.653150 0.924354 0.197353
C82   C     C_2   0.134310 0.346849 0.424358 0.197360
C83   C     C_2   0.634312 0.153150 0.924352 0.197352
C84   C     C_2   0.634310 0.846849 0.424357 0.197354
C85   C     C_R   0.883820 0.346594 0.382006 -0.031154
C86   C     C_R   0.883820 0.653407 0.882003 -0.031152
C87   C     C_R   0.383820 0.846593 0.382006 -0.031152
C88   C     C_R   0.383821 0.153407 0.882003 -0.031152
C89   C     C_3   0.958008 0.290522 0.007972 -0.314558
C90   C     C_3   0.958007 0.709477 0.507957 -0.314541
C91   C     C_3   0.458009 0.790522 0.007966 -0.314551
C92   C     C_3   0.458007 0.209477 0.507952 -0.314545
C93   C     C_R   0.917836 0.375965 0.427734 -0.047229
C94   C     C_R   0.917836 0.624034 0.927733 -0.047226
C95   C     C_R   0.417836 0.875965 0.427734 -0.047228
C96   C     C_R   0.417836 0.124035 0.927733 -0.047225
C97   C     C_R   0.906972 0.410531 0.184531 0.083797
C98   C     C_R   0.906972 0.589468 0.684531 0.083798
C99   C     C_R   0.406972 0.910531 0.184531 0.083797
C100  C     C_R   0.406972 0.089468 0.684531 0.083796
C101  C     C_R   0.875884 0.381160 0.143650 -0.083495
C102  C     C_R   0.875884 0.618840 0.643649 -0.083495
C103  C     C_R   0.375884 0.881160 0.143651 -0.083493
C104  C     C_R   0.375884 0.118840 0.643651 -0.083493
C105  C     C_R   0.864599 0.349130 0.242502 0.222112
C106  C     C_R   0.864599 0.650870 0.742500 0.222114
C107  C     C_R   0.364599 0.849130 0.242502 0.222113
C108  C     C_R   0.364599 0.150870 0.742501 0.222114
C109  C     C_2   0.074981 0.591665 0.855970 -0.201817
C110  C     C_2   0.074980 0.408335 0.355971 -0.201816
C111  C     C_2   0.574981 0.091665 0.855970 -0.201818
C112  C     C_2   0.574980 0.908335 0.355971 -0.201817
C113  C     C_3   0.169585 0.488645 0.125068 0.723069
C114  C     C_3   0.169585 0.511354 0.625067 0.723068
C115  C     C_3   0.669585 0.988645 0.125068 0.723070
C116  C     C_3   0.669585 0.011354 0.625067 0.723070
C117  C     C_3   0.218418 0.499765 0.116664 -0.197724
C118  C     C_3   0.218418 0.500235 0.616666 -0.197724
C119  C     C_3   0.718418 0.999765 0.116666 -0.197726
C120  C     C_3   0.718419 0.000235 0.616665 -0.197726
C121  C     C_3   0.860377 0.526601 0.093936 0.421054
C122  C     C_3   0.860377 0.473399 0.593938 0.421051
C123  C     C_3   0.360377 0.026601 0.093936 0.421059
C124  C     C_3   0.360377 0.973399 0.593937 0.421053
C125  C     C_3   0.826696 0.539949 0.215859 0.475013
C126  C     C_3   0.826695 0.460051 0.715860 0.475016
C127  C     C_3   0.326696 0.039949 0.215859 0.475009
C128  C     C_3   0.326696 0.960051 0.715860 0.475015
C129  C     C_3   0.985554 0.311949 0.523779 0.307853
C130  C     C_3   0.985557 0.688049 0.023770 0.307862
C131  C     C_3   0.485557 0.811950 0.523776 0.307860
C132  C     C_3   0.485558 0.188048 0.023769 0.307864
C133  C     C_R   0.929142 0.407465 0.317332 -0.260064
C134  C     C_R   0.929141 0.592534 0.817333 -0.260064
C135  C     C_R   0.429142 0.907465 0.317333 -0.260065
C136  C     C_R   0.429141 0.092535 0.817333 -0.260064
H1    H     H_    0.007525 0.332722 0.460540 -0.047539
H2    H     H_    0.007529 0.667275 0.960543 -0.047538
H3    H     H_    0.507529 0.832723 0.460546 -0.047536
H4    H     H_    0.507531 0.167274 0.960545 -0.047538
H5    H     H_    0.227687 0.518548 0.216440 0.144378
H6    H     H_    0.227686 0.481450 0.716439 0.144383
H7    H     H_    0.727687 0.018547 0.216445 0.144377
H8    H     H_    0.727686 0.981449 0.716437 0.144385
H9    H     H_    0.239655 0.472718 0.116672 0.118275
H10   H     H_    0.239655 0.527281 0.616683 0.118273
H11   H     H_    0.739655 0.972718 0.116672 0.118273
H12   H     H_    0.739655 0.027281 0.616685 0.118273
H13   H     H_    0.226164 0.516969 0.012137 0.151188
H14   H     H_    0.226165 0.483032 0.512135 0.151186
H15   H     H_    0.726165 0.016970 0.012141 0.151190
H16   H     H_    0.726165 0.983033 0.512132 0.151184
H17   H     H_    0.893581 0.538469 0.119494 0.002696
H18   H     H_    0.893581 0.461531 0.619497 0.002700
H19   H     H_    0.393581 0.038469 0.119493 0.002694
H20   H     H_    0.393581 0.961530 0.619496 0.002698
H21   H     H_    0.838551 0.531177 0.328846 0.086427
H22   H     H_    0.838550 0.468823 0.828847 0.086427
H23   H     H_    0.338551 0.031177 0.328846 0.086427
H24   H     H_    0.338551 0.968823 0.828847 0.086427
H25   H     H_    0.956944 0.304201 0.450769 0.012443
H26   H     H_    0.956948 0.695795 0.950752 0.012433
H27   H     H_    0.456948 0.804204 0.450759 0.012434
H28   H     H_    0.456950 0.195794 0.950748 0.012428
H29   H     H_    0.967680 0.266959 0.090733 0.116096
H30   H     H_    0.967674 0.733039 0.590731 0.116099
H31   H     H_    0.467680 0.766959 0.090733 0.116094
H32   H     H_    0.467673 0.233039 0.590727 0.116099
H33   H     H_    0.151279 0.802406 0.972493 0.151710
H34   H     H_    0.151270 0.197596 0.472578 0.151705
H35   H     H_    0.651280 0.302406 0.972481 0.151711
H36   H     H_    0.651276 0.697594 0.472518 0.151709
H37   H     H_    0.874500 0.323217 0.461182 0.106912
H38   H     H_    0.874501 0.676784 0.961178 0.106910
H39   H     H_    0.374501 0.823217 0.461182 0.106912
H40   H     H_    0.374502 0.176784 0.961177 0.106909
H41   H     H_    0.295138 0.651850 0.053131 0.128469
H42   H     H_    0.295143 0.348144 0.553032 0.128466
H43   H     H_    0.795137 0.151849 0.053147 0.128468
H44   H     H_    0.795138 0.848150 0.553107 0.128468
H45   H     H_    0.115677 0.676497 0.704076 0.123893
H46   H     H_    0.115674 0.323501 0.204086 0.123885
H47   H     H_    0.615678 0.176496 0.704074 0.123895
H48   H     H_    0.615675 0.823502 0.204082 0.123890
H49   H     H_    0.858792 0.384188 0.035814 0.144440
H50   H     H_    0.858792 0.615812 0.535814 0.144438
H51   H     H_    0.358792 0.884188 0.035815 0.144439
H52   H     H_    0.358791 0.115811 0.535817 0.144434
H53   H     H_    0.951977 0.430452 0.352463 0.067101
H54   H     H_    0.951976 0.569547 0.852465 0.067100
H55   H     H_    0.451977 0.930452 0.352463 0.067100
H56   H     H_    0.451976 0.069548 0.852464 0.067100
H57   H     H_    0.988298 0.252864 0.624363 0.113676
H58   H     H_    0.988299 0.747135 0.124347 0.113681
H59   H     H_    0.488298 0.752864 0.624355 0.113680
H60   H     H_    0.488300 0.247135 0.124344 0.113682
H61   H     H_    0.963252 0.354116 0.984186 0.086333
H62   H     H_    0.963253 0.645884 0.484168 0.086343
H63   H     H_    0.463253 0.854115 0.984180 0.086335
H64   H     H_    0.463254 0.145883 0.484165 0.086345
H65   H     H_    0.975301 0.335069 0.174567 -0.095745
H66   H     H_    0.975298 0.664930 0.674553 -0.095747
H67   H     H_    0.475301 0.835068 0.174561 -0.095748
H68   H     H_    0.475298 0.164930 0.674550 -0.095746
H69   H     H_    0.921876 0.294195 0.009388 0.111590
H70   H     H_    0.921875 0.705803 0.509353 0.111583
H71   H     H_    0.421877 0.794194 0.009375 0.111586
H72   H     H_    0.421875 0.205802 0.509343 0.111581
H73   H     H_    0.967791 0.280913 0.891610 0.138970
H74   H     H_    0.967795 0.719089 0.391602 0.138968
H75   H     H_    0.467795 0.780911 0.891607 0.138968
H76   H     H_    0.467796 0.219089 0.391599 0.138968
N1    N     N_R   0.169738 0.682140 0.949308 -0.417359
N2    N     N_R   0.169736 0.317859 0.449312 -0.417358
N3    N     N_R   0.669739 0.182140 0.949307 -0.417359
N4    N     N_R   0.669737 0.817859 0.449311 -0.417359
N5    N     N_R   0.831134 0.320225 0.195831 -0.437049
N6    N     N_R   0.831134 0.679774 0.695829 -0.437051
N7    N     N_R   0.331134 0.820226 0.195831 -0.437049
N8    N     N_R   0.331134 0.179774 0.695831 -0.437052
O1    O     O_2   0.914200 0.445720 0.903420 -0.482304
O2    O     O_2   0.914200 0.554280 0.403420 -0.482305
O3    O     O_2   0.414200 0.945720 0.903420 -0.482305
O4    O     O_2   0.414200 0.054280 0.403420 -0.482304
O5    O     O_3   0.146115 0.474318 0.625139 -0.555497
O6    O     O_3   0.146115 0.525681 0.125144 -0.555497
O7    O     O_3   0.646115 0.974318 0.625137 -0.555498
O8    O     O_3   0.646115 0.025681 0.125143 -0.555496
O9    O     O_3   0.024441 0.328273 0.010821 -0.603119
O10   O     O_3   0.024441 0.671727 0.510818 -0.603121
O11   O     O_3   0.524442 0.828273 0.010818 -0.603118
O12   O     O_3   0.524441 0.171727 0.510817 -0.603121
O13   O     O_3   0.049930 0.518940 0.045960 -0.530853
O14   O     O_3   0.049930 0.481060 0.545960 -0.530852
O15   O     O_3   0.549930 0.018940 0.045960 -0.530853
O16   O     O_3   0.549930 0.981060 0.545960 -0.530852
O17   O     O_2   0.221543 0.634039 0.957955 -0.521693
O18   O     O_2   0.221543 0.365958 0.457922 -0.521689
O19   O     O_2   0.721544 0.134039 0.957959 -0.521694
O20   O     O_2   0.721542 0.865960 0.457945 -0.521690
O21   O     O_2   0.124341 0.734650 0.915140 -0.625617
O22   O     O_2   0.124336 0.265350 0.415174 -0.625622
O23   O     O_2   0.624342 0.234650 0.915131 -0.625616
O24   O     O_2   0.624339 0.765350 0.415151 -0.625618
O25   O     O_2   0.781303 0.369012 0.168088 -0.454098
O26   O     O_2   0.781303 0.630988 0.668103 -0.454096
O27   O     O_2   0.281303 0.869012 0.168094 -0.454098
O28   O     O_2   0.281301 0.130989 0.668130 -0.454089
O29   O     O_2   0.876998 0.268798 0.234603 -0.633903
O30   O     O_2   0.876999 0.731202 0.734584 -0.633900
O31   O     O_2   0.376998 0.768798 0.234598 -0.633901
O32   O     O_2   0.377000 0.231202 0.734569 -0.633899
O33   O     O_3   0.950020 0.480960 0.143730 -0.510233
O34   O     O_3   0.950020 0.519040 0.643730 -0.510232
O35   O     O_3   0.450020 0.980960 0.143730 -0.510233
O36   O     O_3   0.450020 0.019040 0.643730 -0.510232
O37   O     O_3   0.985090 0.412220 0.642040 -0.476833
O38   O     O_3   0.985090 0.587780 0.142040 -0.476834
O39   O     O_3   0.485090 0.912220 0.642040 -0.476833
O40   O     O_3   0.485090 0.087780 0.142040 -0.476834
O41   O     O_2   0.912339 0.380102 0.749490 -0.454055
O42   O     O_2   0.912340 0.619899 0.249490 -0.454059
O43   O     O_2   0.412340 0.880101 0.749491 -0.454056
O44   O     O_2   0.412340 0.119899 0.249490 -0.454058
O45   O     O_3   0.859202 0.484498 0.082331 -0.591111
O46   O     O_3   0.859201 0.515502 0.582332 -0.591111
O47   O     O_3   0.359201 0.984498 0.082332 -0.591111
O48   O     O_3   0.359202 0.015502 0.582332 -0.591113
O49   O     O_3   0.971138 0.329455 0.660981 -0.601925
O50   O     O_3   0.971139 0.670546 0.160974 -0.601928
O51   O     O_3   0.471139 0.829455 0.660978 -0.601926
O52   O     O_3   0.471140 0.170545 0.160973 -0.601928
O53   O     O_2   0.085560 0.445380 0.786390 -0.383595
O54   O     O_2   0.085560 0.554620 0.286390 -0.383593
O55   O     O_2   0.585560 0.945380 0.786390 -0.383595
O56   O     O_2   0.585560 0.054620 0.286390 -0.383592
O57   O     O_3   0.014550 0.412170 0.047860 -0.509729
O58   O     O_3   0.014550 0.587830 0.547860 -0.509732
O59   O     O_3   0.514550 0.912170 0.047860 -0.509730
O60   O     O_3   0.514550 0.087830 0.547860 -0.509732
O61   O     O_2   0.088124 0.379127 0.966070 -0.373613
O62   O     O_2   0.088123 0.620873 0.466068 -0.373611
O63   O     O_2   0.588124 0.879127 0.966071 -0.373611
O64   O     O_2   0.588123 0.120873 0.466068 -0.373611
P1    P     P_3+3 0.909970 0.458430 0.077330 1.025962
P2    P     P_3+3 0.909970 0.541570 0.577330 1.025961
P3    P     P_3+3 0.409970 0.958430 0.077330 1.025961
P4    P     P_3+3 0.409970 0.041570 0.577330 1.025959
P5    P     P_3+3 0.089830 0.458070 0.612460 1.092937
P6    P     P_3+3 0.089830 0.541930 0.112460 1.092936
P7    P     P_3+3 0.589830 0.958070 0.612460 1.092937
P8    P     P_3+3 0.589830 0.041930 0.112460 1.092937
P9    P     P_3+3 0.049604 0.371922 0.076581 0.991027
P10   P     P_3+3 0.049603 0.628078 0.576580 0.991022
P11   P     P_3+3 0.549604 0.871922 0.076581 0.991026
P12   P     P_3+3 0.549603 0.128078 0.576580 0.991021
P13   P     P_3+3 0.945463 0.625174 0.117558 0.968029
P14   P     P_3+3 0.945463 0.374826 0.617560 0.968033
P15   P     P_3+3 0.445464 0.125175 0.117557 0.968029
P16   P     P_3+3 0.445463 0.874826 0.617559 0.968031
Br1   Br    Br    0.838651 0.548593 0.904604 -0.500889
Br2   Br    Br    0.838652 0.451407 0.404605 -0.500895
Br3   Br    Br    0.338651 0.048593 0.904604 -0.500885
Br4   Br    Br    0.338652 0.951407 0.404605 -0.500893
Br5   Br    Br    0.769420 0.515057 0.186231 -0.177702
Br6   Br    Br    0.769420 0.484944 0.686229 -0.177699
Br7   Br    Br    0.269420 0.015057 0.186231 -0.177705
Br8   Br    Br    0.269420 0.984943 0.686229 -0.177698
Br9   Br    Br    0.817150 0.597407 0.226235 -0.450577
Br10  Br    Br    0.817149 0.402593 0.726237 -0.450572
Br11  Br    Br    0.317150 0.097407 0.226235 -0.450583
Br12  Br    Br    0.317150 0.902593 0.726236 -0.450574
C137  C     C_3   0.021927 0.251719 0.408033 -0.377111
H77   H     H_    0.991483 0.242767 0.347074 0.112752
H78   H     H_    0.041219 0.271721 0.332145 0.162226
H79   H     H_    0.041192 0.224203 0.431520 0.172053
C138  C     C_3   0.021929 0.748279 0.908018 -0.377119
H80   H     H_    0.991486 0.757228 0.847054 0.112754
H81   H     H_    0.041192 0.775795 0.931501 0.172050
H82   H     H_    0.041222 0.728277 0.832135 0.162231
C139  C     C_3   0.521928 0.751720 0.408026 -0.377119
H83   H     H_    0.491484 0.742770 0.347064 0.112753
H84   H     H_    0.541221 0.771721 0.332142 0.162230
H85   H     H_    0.541191 0.724203 0.431510 0.172049
C140  C     C_3   0.521930 0.248278 0.908014 -0.377117
H86   H     H_    0.491486 0.257228 0.847051 0.112754
H87   H     H_    0.541193 0.275795 0.931496 0.172050
H88   H     H_    0.541223 0.228276 0.832133 0.162231
C141  C     C_3   0.051440 0.280976 0.653794 -0.277334
H89   H     H_    0.042168 0.291936 0.768585 0.169621
H90   H     H_    0.072329 0.303925 0.598718 0.133648
H91   H     H_    0.070660 0.253059 0.669375 0.139993
C142  C     C_3   0.051442 0.719024 0.153782 -0.277349
H92   H     H_    0.042171 0.708064 0.268573 0.169622
H93   H     H_    0.070661 0.746942 0.169361 0.139992
H94   H     H_    0.072333 0.696076 0.098706 0.133645
C143  C     C_3   0.551441 0.780974 0.653790 -0.277346
H95   H     H_    0.542169 0.791934 0.768581 0.169620
H96   H     H_    0.572331 0.803922 0.598715 0.133649
H97   H     H_    0.570660 0.753056 0.669368 0.139991
C144  C     C_3   0.551443 0.219024 0.153780 -0.277354
H98   H     H_    0.542172 0.208064 0.268571 0.169622
H99   H     H_    0.570662 0.246942 0.169359 0.139990
H100  H     H_    0.572334 0.196077 0.098704 0.133645
Br13  Br    Br    0.694945 0.374174 0.051956 -0.328638
Br14  Br    Br    0.694940 0.625826 0.552006 -0.328641
Br15  Br    Br    0.194943 0.874174 0.051971 -0.328639
Br16  Br    Br    0.194933 0.125829 0.552093 -0.328653
C145  C     C_3   0.864026 0.191884 0.155694 -0.312306
H101  H     H_    0.871345 0.195802 0.279222 0.160035
H102  H     H_    0.865364 0.159295 0.131777 0.096434
H103  H     H_    0.889857 0.206183 0.084892 0.143513
C146  C     C_3   0.864031 0.808114 0.655624 -0.312307
H104  H     H_    0.871354 0.804202 0.779153 0.160036
H105  H     H_    0.889858 0.793808 0.584820 0.143507
H106  H     H_    0.865371 0.840701 0.631678 0.096434
C147  C     C_3   0.364028 0.691885 0.155664 -0.312309
H107  H     H_    0.371349 0.695801 0.279192 0.160036
H108  H     H_    0.365367 0.659297 0.131735 0.096435
H109  H     H_    0.389858 0.706187 0.084862 0.143510
C148  C     C_3   0.364038 0.308104 0.655503 -0.312340
H110  H     H_    0.371369 0.304206 0.779022 0.160048
H111  H     H_    0.389857 0.293786 0.584719 0.143508
H112  H     H_    0.365381 0.340685 0.631490 0.096436
Br17  Br    Br    0.154609 0.624134 0.228841 -0.429851
Br18  Br    Br    0.154612 0.375867 0.728837 -0.429847
Br19  Br    Br    0.654608 0.124135 0.228842 -0.429853
Br20  Br    Br    0.654609 0.875866 0.728841 -0.429850
C149  C     C_3   0.065339 0.553490 0.767363 -0.189604
H113  H     H_    0.078384 0.554877 0.649620 0.149171
H114  H     H_    0.081865 0.526735 0.811666 0.109937
H115  H     H_    0.029594 0.547762 0.768341 0.116849
C150  C     C_3   0.065339 0.446510 0.267363 -0.189605
H116  H     H_    0.078384 0.445123 0.149620 0.149170
H117  H     H_    0.029594 0.452238 0.268340 0.116850
H118  H     H_    0.081865 0.473265 0.311665 0.109936
C151  C     C_3   0.565339 0.053490 0.767363 -0.189604
H119  H     H_    0.578384 0.054876 0.649620 0.149171
H120  H     H_    0.581865 0.026735 0.811666 0.109938
H121  H     H_    0.529594 0.047762 0.768341 0.116849
C152  C     C_3   0.565339 0.946510 0.267363 -0.189603
H122  H     H_    0.578384 0.945123 0.149620 0.149171
H123  H     H_    0.529594 0.952238 0.268340 0.116850
H124  H     H_    0.581865 0.973265 0.311665 0.109937
Br21  Br    Br    0.167270 0.455206 0.301292 -0.615110
Br22  Br    Br    0.167269 0.544793 0.801292 -0.615125
Br23  Br    Br    0.667270 0.955205 0.301291 -0.615113
Br24  Br    Br    0.667269 0.044793 0.801291 -0.615126
Br25  Br    Br    0.159451 0.453775 0.961446 -0.472444
Br26  Br    Br    0.159452 0.546225 0.461445 -0.472444
Br27  Br    Br    0.659452 0.953775 0.961445 -0.472447
Br28  Br    Br    0.659452 0.046225 0.461444 -0.472444

loop_
_geom_bond_atom_site_label_1
_geom_bond_atom_site_label_2
_ccdc_geom_bond_type
C100  P4    S    
C146  H104  S    
C51   C55   A    
C124  O48   S    
C59   O27   D    
C62   N6    Am   
C38   C54   A    
C86   H38   S    
C142  H92   S    
C1    C137  S    
C3    C143  S    
C141  H89   S    
Ba2   O2    S    
O9    P9    S    
C94   C134  S    
C109  C149  S    
C70   C110  A    
C113  O6    S    
C47   O11   S    
C71   P12   S    
C5    C9    A    
O2    P2    D    
C150  H118  S    
C88   H40   S    
C73   P6    S    
C7    C11   A    
C76   C112  A    
C61   O29   D    
C66   C70   A    
C42   H34   S    
C43   C49   A    
C115  Br27  S    
C108  N8    S    
C73   C109  A    
C61   N5    Am   
C4    C140  S    
C145  H102  S    
C135  H55   S    
C11   O19   D    
C19   C23   A    
C46   H62   S    
C147  H109  S    
C90   H74   S    
C101  H49   S    
C19   C43   A    
C149  H115  S    
C124  H20   S    
C97   C133  D    
C127  Br7   S    
C13   C17   A    
C100  C136  D    
C28   C30   A    
C137  H79   S    
C15   C19   A    
Ba1   O53   S    
C41   H33   S    
C147  H108  S    
C74   C78   A    
Ba3   O55   S    
C7    C23   A    
O64   P12   D    
Ba1   P1    S    
C144  H100  S    
C63   N7    Am   
C117  H13   S    
C146  H106  S    
C6    C10   A    
C151  H119  S    
Ba4   O56   S    
C71   C111  A    
C65   H45   S    
C142  H94   S    
C105  N5    S    
C48   O12   S    
Ba1   O34   S    
C141  H91   S    
C110  C150  S    
C122  O46   S    
C2    C138  S    
C80   C84   S    
C67   H47   S    
C53   C57   A    
C115  C119  S    
C25   C31   A    
C55   C59   A    
C92   H76   S    
C26   C32   A    
C56   C60   A    
C87   H39   S    
C128  Br12  S    
C148  H110  S    
C90   H30   S    
Ba1   O57   S    
Ba2   O38   S    
O55   P7    D    
Ba4   O15   S    
C117  H9    S    
C131  O51   S    
C118  H6    S    
C123  C127  S    
C49   Br13  S    
C121  C125  S    
C58   O26   D    
C132  H4    S    
C138  H80   S    
C121  O45   S    
C10   N2    Am   
C99   C103  A    
C113  C117  S    
C45   C89   S    
C47   C91   S    
C152  H123  S    
O36   P4    S    
C124  Br4   S    
C75   C111  A    
C21   C39   A    
C22   C40   A    
C1    C129  S    
O3    P3    D    
O12   P12   S    
C47   H67   S    
O54   P6    D    
C137  H78   S    
C82   N2    S    
C52   Br16  S    
C14   O22   D    
C60   O28   D    
C113  Br25  S    
C33   C61   A    
C151  H121  S    
C39   C55   A    
Ba3   O16   S    
C126  H22   S    
C131  H3    S    
C123  O47   S    
C140  H87   S    
C95   C135  S    
C64   N8    Am   
O44   P15   D    
C93   C133  S    
C16   N4    Am   
C17   C41   A    
C143  H96   S    
C45   H61   S    
C129  O49   S    
C20   C44   A    
C59   N7    Am   
O49   P14   S    
O10   P10   S    
C148  H112  S    
C77   Br17  S    
C32   C148  S    
C125  Br5   S    
O51   P16   S    
C46   C90   S    
C74   P5    S    
C1    H57   S    
O15   P8    S    
Ba1   O13   S    
O16   P7    S    
O45   P1    S    
O59   P11   S    
C13   O21   D    
Ba4   O40   S    
C138  H82   S    
C113  Br21  S    
C125  H21   S    
C12   O20   D    
C90   H70   S    
O1    P1    D    
C36   C64   A    
C4    H60   S    
C102  H50   S    
C11   N3    Am   
Ba3   Ba4   S    
C14   N2    Am   
C46   H66   S    
C65   C81   A    
C126  Br6   S    
O58   P10   S    
C101  C105  A    
O33   P1    S    
C103  C107  A    
C112  C152  S    
C20   C24   A    
Ba2   O54   S    
C72   P11   S    
Ba2   O13   S    
C125  Br9   S    
O37   P14   S    
Ba1   P5    S    
C91   H71   S    
O39   P16   S    
Ba2   P2    S    
Ba3   P7    S    
Ba4   O60   S    
C12   N4    Am   
C58   N6    Am   
C33   C37   A    
C150  H117  S    
O52   P15   S    
O13   P6    S    
C66   H46   S    
C36   C40   A    
Ba2   O33   S    
C52   C56   A    
C41   C51   A    
C57   O25   D    
C42   C52   A    
C131  H27   S    
C104  H52   S    
C93   P14   S    
C87   C95   S    
C43   H35   S    
C95   P16   S    
C44   H36   S    
C54   C58   A    
C79   C83   S    
C126  Br10  S    
C92   H72   S    
C4    C132  S    
C26   H42   S    
C76   C80   A    
C97   P1    S    
C145  H101  S    
C5    C21   A    
Ba2   O58   S    
C119  H15   S    
C120  H8    S    
C89   H29   S    
O63   P11   D    
C8    C24   A    
C118  H10   S    
C149  H114  S    
C102  C106  A    
C121  H17   S    
C122  C126  S    
C114  O5    S    
C69   C109  A    
C60   N8    Am   
O47   P3    S    
C46   O10   S    
C17   C21   A    
C62   O30   D    
C3    C139  S    
C130  H26   S    
C65   C69   A    
C144  H99   S    
C111  C151  S    
O34   P2    S    
C141  H90   S    
O41   P14   D    
C146  H105  S    
C14   C18   A    
O43   P16   D    
C74   C110  A    
C8    C12   A    
C64   O32   D    
C142  H93   S    
C47   H63   S    
C29   C145  S    
C134  H54   S    
C119  H11   S    
C50   Br14  S    
C89   H73   S    
O57   P9    S    
C49   C53   A    
C88   C108  D    
C78   C82   S    
O60   P12   S    
C29   C33   A    
C84   N4    S    
C48   H64   S    
C30   C34   A    
C31   C35   A    
C128  H24   S    
C129  H25   S    
C75   P8    S    
C130  H2    S    
C76   P7    S    
C73   C77   A    
C123  Br3   S    
Ba4   O16   S    
C107  N7    S    
C115  O8    S    
C67   C83   A    
C18   C42   A    
C45   H65   S    
Ba4   O35   S    
C106  N6    S    
O50   P13   S    
Ba3   O3    S    
C3    C131  S    
C100  C104  A    
C145  H103  S    
C152  H122  S    
Ba1   O1    S    
O61   P9    D    
C69   P10   S    
O46   P2    S    
C34   C38   A    
C116  Br28  S    
C63   O31   D    
C129  H1    S    
C114  Br22  S    
C96   P15   S    
O40   P15   S    
C37   C53   A    
C80   Br20  S    
C114  Br26  S    
C75   C79   A    
C40   C56   A    
Ba4   O4    S    
C139  H83   S    
C57   N5    Am   
C104  C108  A    
O6    P6    S    
C18   C22   A    
C151  H120  S    
C9    N1    Am   
C91   H31   S    
Ba3   O15   S    
C31   C147  S    
O38   P13   S    
C91   H75   S    
C140  H86   S    
Ba2   P6    S    
Ba3   P3    S    
C68   C72   A    
Ba4   P4    S    
C15   O23   D    
C143  H95   S    
C44   C50   A    
C25   H41   S    
C122  Br2   S    
C83   N3    S    
C148  H111  S    
C114  C118  S    
O14   P5    S    
C1    C141  S    
Ba3   O36   S    
C85   C105  D    
C139  H84   S    
Ba1   Ba2   S    
C98   C134  D    
C87   C107  D    
C94   P13   S    
C6    C26   A    
C68   H48   S    
C81   N1    S    
C96   C136  S    
O56   P8    D    
C99   P3    S    
C9    O17   D    
C16   C20   A    
C138  H81   S    
C127  Br11  S    
C45   O9    S    
C27   C29   A    
C98   C102  A    
C85   H37   S    
C5    C25   A    
C98   P2    S    
C152  H124  S    
C6    C22   A    
Ba3   O59   S    
C120  H12   S    
C7    C27   A    
C10   O18   D    
C8    C28   A    
C121  Br1   S    
C118  H14   S    
C132  O52   S    
C124  C128  S    
C116  O7    S    
C68   C84   A    
C122  H18   S    
C97   C101  A    
C133  H53   S    
C34   C62   A    
C32   C36   A    
C2    H58   S    
Ba2   O14   S    
C35   C39   A    
C4    C144  S    
C132  H28   S    
C85   C93   S    
C139  H85   S    
O7    P7    S    
C99   C135  D    
O8    P8    S    
C23   C37   A    
O35   P3    S    
O42   P13   D    
O4    P4    D    
O11   P11   S    
C128  Br8   S    
O5    P5    S    
C136  H56   S    
C78   Br18  S    
C150  H116  S    
Ba1   O37   S    
C51   Br15  S    
C119  H7    S    
Ba3   O39   S    
C120  H16   S    
C89   H69   S    
C130  O50   S    
C140  H88   S    
C117  H5    S    
C15   N3    Am   
C86   C106  D    
C103  H51   S    
C66   C82   A    
C123  H19   S    
C13   N1    Am   
C88   C96   S    
C50   C54   A    
C143  H97   S    
C27   H43   S    
C48   H68   S    
C35   C63   A    
C28   H44   S    
Ba4   P8    S    
Ba1   O14   S    
C147  H107  S    
C2    C130  S    
C2    C142  S    
C149  H113  S    
O48   P4    S    
C67   C71   A    
C24   C38   A    
C72   C112  A    
C48   C92   S    
C3    H59   S    
C137  H77   S    
C77   C81   S    
C30   C146  S    
C79   Br19  S    
C16   O24   D    
O53   P5    D    
C127  H23   S    
C92   H32   S    
O62   P10   D    
C70   P9    S    
C144  H98   S    
C86   C94   S    
C115  Br23  S    
C116  C120  S    
C116  Br24  S    
