data_mof_unit_8698.cif
_audit_creation_date              2012-12-11T15:18:33-0500
_audit_creation_method            fapswitch 2.2
_symmetry_space_group_name_H-M    P1
_symmetry_Int_Tables_number       1
_space_group_crystal_system       triclinic
_cell_length_a                    6.945301
_cell_length_b                    19.953855
_cell_length_c                    23.719904
_cell_angle_alpha                 93.561758
_cell_angle_beta                  91.38345
_cell_angle_gamma                 88.372717
_cell_volume                      3278.73750907

loop_
_atom_site_label
_atom_site_type_symbol
_atom_type_description
_atom_site_fract_x
_atom_site_fract_y
_atom_site_fract_z
_atom_type_partial_charge
O1    O     O_R   0.620100 0.812200 0.810870 -0.541145
O2    O     O_R   0.379900 0.187800 0.189130 -0.531645
O3    O     O_R   0.296960 0.671650 0.794750 -0.537751
O4    O     O_R   0.703040 0.328350 0.205250 -0.539174
O5    O     O_R   0.120160 0.687800 0.689130 -0.540455
O6    O     O_R   0.879840 0.312200 0.310870 -0.541893
C1    C     C_R   0.468980 0.646936 0.804379 0.699129
C2    C     C_R   0.531026 0.353084 0.195642 0.690738
O7    O     O_R   0.290810 0.810670 0.817290 -0.539057
O8    O     O_R   0.709190 0.189330 0.182710 -0.545908
O9    O     O_R   0.113980 0.827820 0.711840 -0.538377
O10   O     O_R   0.886020 0.172180 0.288160 -0.542852
C3    C     C_R   0.459407 0.831205 0.834699 0.693912
C4    C     C_R   0.540573 0.167918 0.165904 0.725882
O11   O     O_R   0.626290 0.672180 0.788160 -0.535975
O12   O     O_R   0.373710 0.327820 0.211840 -0.538931
O13   O     O_3   0.451520 0.755460 0.715370 -0.373039
O14   O     O_3   0.548480 0.244540 0.284630 -0.369580
V1    V     V_3+5 0.179200 0.748980 0.756420 1.412884
V2    V     V_3+5 0.820800 0.251020 0.243580 1.413657
O15   O     O_R   0.783880 0.828350 0.705250 -0.546703
O16   O     O_R   0.216120 0.171650 0.294750 -0.519616
C5    C     C_R   0.949135 0.853095 0.695150 0.742101
C6    C     C_R   0.051049 0.146915 0.304735 0.751413
O17   O     O_R   0.790030 0.689320 0.682700 -0.543777
O18   O     O_R   0.209970 0.310680 0.317300 -0.546446
C7    C     C_R   0.959030 0.668223 0.665661 0.706794
C8    C     C_R   0.040969 0.331788 0.334333 0.699614
V3    V     V_3+5 0.678400 0.751010 0.743570 1.401828
V4    V     V_3+5 0.321600 0.248990 0.256430 1.443437
O19   O     O_3   0.955950 0.744540 0.784620 -0.365558
O20   O     O_3   0.044050 0.255460 0.215380 -0.371072
C9    C     C_R   0.180942 0.425746 0.396214 -0.223062
C10   C     C_R   0.819043 0.574283 0.603768 -0.222658
C11   C     C_R   0.030759 0.380827 0.383931 -0.079970
C12   C     C_R   0.969233 0.619197 0.616054 -0.082130
C13   C     C_R   0.868633 0.383820 0.418632 -0.224057
C14   C     C_R   0.131346 0.616214 0.581349 -0.224304
C15   C     C_R   0.856507 0.430546 0.465298 0.089699
C16   C     C_R   0.143464 0.569493 0.534679 0.090041
C17   C     C_R   0.006307 0.476078 0.476794 0.052667
C18   C     C_R   0.993663 0.523961 0.523182 0.052804
C19   C     C_R   0.168582 0.473877 0.441933 0.090699
C20   C     C_R   0.831391 0.526160 0.558044 0.090701
C21   C     C_R   0.697106 0.432603 0.500700 -0.192443
C22   C     C_R   0.302861 0.567438 0.499274 -0.192655
C23   C     C_R   0.684838 0.479893 0.546699 -0.184601
C24   C     C_R   0.315131 0.520146 0.453276 -0.184778
H1    H     H_    0.305639 0.424164 0.369471 0.120748
H2    H     H_    0.694351 0.575861 0.630512 0.121396
H3    H     H_    0.752639 0.349226 0.409667 0.125485
H4    H     H_    0.247338 0.650808 0.590316 0.125788
H5    H     H_    0.581052 0.397879 0.492605 0.133139
H6    H     H_    0.418914 0.602162 0.507370 0.133051
H7    H     H_    0.559798 0.480561 0.573204 0.134525
H8    H     H_    0.440171 0.519478 0.426772 0.134383
C25   C     C_R   0.944794 0.914750 0.663244 -0.147089
C26   C     C_R   0.057468 0.084295 0.335174 -0.128546
C27   C     C_R   0.860945 0.032893 0.657855 -0.232231
C28   C     C_R   0.181289 0.970306 0.342526 -0.251471
C29   C     C_R   0.873795 0.975665 0.688865 0.395813
C30   C     C_R   0.155937 0.027424 0.311246 0.405883
C31   C     C_R   0.993610 0.911635 0.605692 -0.288270
C32   C     C_R   0.988919 0.083959 0.390519 -0.291173
C33   C     C_R   0.971357 0.968951 0.572672 0.091872
C34   C     C_R   0.024099 0.027814 0.424092 0.092111
C35   C     C_R   0.901703 0.029593 0.600202 0.078718
C36   C     C_R   0.115590 0.969928 0.398035 0.086593
C37   C     C_R   0.015030 0.968564 0.513590 0.069596
C38   C     C_R   0.978912 0.027874 0.482984 0.071401
C39   C     C_R   0.906496 0.086144 0.512854 -0.184845
C40   C     C_R   0.097768 0.911527 0.484400 -0.189395
C41   C     C_R   0.871359 0.087005 0.570203 -0.183064
C42   C     C_R   0.148617 0.912640 0.428158 -0.179711
H9    H     H_    0.817865 0.133355 0.591313 0.122186
H10   H     H_    0.217316 0.868142 0.408154 0.122688
H11   H     H_    0.916291 0.129285 0.406721 0.119140
H12   H     H_    0.041722 0.863335 0.587641 0.116312
H13   H     H_    0.815586 0.080259 0.678926 0.123991
H14   H     H_    0.261752 0.927221 0.324354 0.121004
H15   H     H_    0.879536 0.132937 0.493433 0.120657
H16   H     H_    0.131147 0.865501 0.504417 0.121391
C43   C     C_R   0.490770 0.585584 0.835547 -0.045152
C44   C     C_R   0.509270 0.414462 0.164498 -0.042832
C45   C     C_R   0.608267 0.470636 0.837951 -0.162161
C46   C     C_R   0.391968 0.529441 0.162123 -0.163033
C47   C     C_R   0.568109 0.527389 0.808118 -0.166262
C48   C     C_R   0.431952 0.472656 0.191937 -0.166486
C49   C     C_R   0.454378 0.586869 0.893606 -0.216156
C50   C     C_R   0.545803 0.413213 0.106451 -0.216699
C51   C     C_R   0.499290 0.530092 0.925551 0.085654
C52   C     C_R   0.501056 0.470018 0.074525 0.085633
C53   C     C_R   0.576593 0.471620 0.896194 0.139545
C54   C     C_R   0.423778 0.528489 0.103887 0.139731
C55   C     C_R   0.474035 0.529586 0.985447 0.057640
C56   C     C_R   0.526415 0.470544 0.014636 0.057635
C57   C     C_R   0.601409 0.413946 0.982927 -0.187490
C58   C     C_R   0.399156 0.586198 0.017164 -0.187585
C59   C     C_R   0.625224 0.414631 0.925080 -0.200959
C60   C     C_R   0.375313 0.585505 0.075013 -0.201614
H17   H     H_    0.684312 0.369953 0.902698 0.123649
H18   H     H_    0.316303 0.630192 0.097401 0.123006
H19   H     H_    0.602152 0.366518 0.087474 0.096194
H20   H     H_    0.397986 0.633562 0.912576 0.096878
H21   H     H_    0.400724 0.473848 0.236540 0.105126
H22   H     H_    0.599244 0.526175 0.763507 0.105528
H23   H     H_    0.668260 0.426134 0.815572 0.113495
H24   H     H_    0.332000 0.573942 0.184509 0.113070
H25   H     H_    0.644416 0.367871 0.001532 0.123321
H26   H     H_    0.356288 0.632291 0.998564 0.123503
C61   C     C_R   0.684597 0.073059 0.104719 -0.237255
C62   C     C_R   0.312030 0.923391 0.897872 -0.235695
C63   C     C_R   0.529516 0.118204 0.116768 -0.082710
C64   C     C_R   0.468948 0.879362 0.884947 -0.091797
C65   C     C_R   0.361117 0.114476 0.082525 -0.215129
C66   C     C_R   0.636208 0.882368 0.919689 -0.215734
C67   C     C_R   0.348232 0.067246 0.036237 0.084328
C68   C     C_R   0.647211 0.928544 0.966799 0.091825
C69   C     C_R   0.503625 0.021761 0.024788 0.053762
C70   C     C_R   0.491271 0.973761 0.978475 0.056425
C71   C     C_R   0.671518 0.024288 0.059497 0.097988
C72   C     C_R   0.323484 0.971336 0.943713 0.086233
C73   C     C_R   0.182901 0.064817 0.001026 -0.193321
C74   C     C_R   0.811701 0.930557 0.002372 -0.193503
C75   C     C_R   0.170828 0.017398 0.955117 -0.184147
C76   C     C_R   0.823333 0.977873 0.048369 -0.187089
H27   H     H_    0.813866 0.074965 0.131266 0.119653
H28   H     H_    0.182952 0.921684 0.871225 0.141094
H29   H     H_    0.240832 0.149026 0.091437 0.125983
H30   H     H_    0.757233 0.848293 0.910363 0.128728
H31   H     H_    0.062374 0.099483 0.009099 0.134898
H32   H     H_    0.932375 0.895949 0.994315 0.134624
H33   H     H_    0.041500 0.016600 0.928620 0.143896
H34   H     H_    0.952147 0.978760 0.074925 0.128133
O21   O     O_3   0.252848 0.032566 0.261292 -0.572624
C77   C     C_3   0.192883 0.984376 0.218658 0.057465
H35   H     H_    0.107912 0.011240 0.186299 0.130274
H36   H     H_    0.099917 0.944589 0.233497 0.096754
C78   C     C_3   0.372009 0.951319 0.191336 -0.277878
H37   H     H_    0.471923 0.990745 0.180272 0.211984
H38   H     H_    0.447559 0.919384 0.222130 0.181103
C79   C     C_3   0.321458 0.908342 0.137877 -0.837356
H39   H     H_    0.216212 0.869819 0.147106 0.227090
H40   H     H_    0.453987 0.882621 0.121169 0.235949
H41   H     H_    0.260142 0.940418 0.104982 0.233144
O22   O     O_3   0.833360 0.981218 0.745850 -0.585594
C80   C     C_3   0.634378 0.972130 0.753623 0.097164
H42   H     H_    0.620495 0.952584 0.796049 0.150751
H43   H     H_    0.570529 0.934110 0.722701 0.115019
C81   C     C_3   0.518790 0.038701 0.752140 -0.370737
H44   H     H_    0.594448 0.078583 0.778088 0.212163
H45   H     H_    0.504971 0.053840 0.707948 0.189148
C82   C     C_3   0.316540 0.032149 0.774566 -0.772063
H46   H     H_    0.243494 0.989120 0.752114 0.244485
H47   H     H_    0.230234 0.078799 0.767886 0.235976
H48   H     H_    0.324110 0.024551 0.820498 0.232951

loop_
_geom_bond_atom_site_label_1
_geom_bond_atom_site_label_2
_ccdc_geom_bond_type
C26   C30   A    
C43   C47   A    
C31   C33   A    
C58   H26   S    
C61   C71   A    
O13   V3    S    
C17   C18   A    
C1    C43   S    
C55   C56   A    
C24   H8    S    
O4    C2    A    
V1    O19   S    
C62   C64   A    
C55   C58   A    
O21   C77   S    
C15   C17   A    
C16   C22   A    
O9    V1    S    
C44   C50   A    
O16   C6    A    
C23   H7    S    
C80   H43   S    
O3    C1    A    
C67   C69   A    
V2    O20   S    
C13   H3    S    
C78   C79   S    
C46   C48   A    
C73   C75   A    
C14   H4    S    
C34   C36   A    
C36   C42   A    
C52   C56   A    
C74   H32   S    
C28   C30   A    
C32   H11   S    
C21   C23   A    
O7    C3    A    
C46   C54   A    
C27   C35   A    
O5    C7    A    
C45   C53   A    
O7    V1    S    
O6    C8    A    
C80   H42   S    
C8    C11   S    
O8    V2    S    
C33   C35   A    
C81   C82   S    
O3    V1    S    
C38   C39   A    
C35   C41   A    
C49   C51   A    
C19   C24   A    
C53   C59   A    
C10   C12   A    
C3    C64   S    
C20   C23   A    
C15   C21   A    
C73   H31   S    
C45   C47   A    
C21   H5    S    
C2    O12   A    
C26   C32   A    
C41   H9    S    
C79   H41   S    
C22   H6    S    
C18   C20   A    
C77   C78   S    
O1    V3    S    
C57   C59   A    
C70   C72   A    
O11   V3    S    
C69   C71   A    
O17   V3    S    
C43   C49   A    
C22   C24   A    
C10   H2    S    
C27   C29   A    
C9    C19   A    
C6    C26   S    
C80   C81   S    
C10   C20   A    
C40   C42   A    
O8    C4    A    
C27   H13   S    
C39   C41   A    
C77   H35   S    
C1    O11   A    
C65   C67   A    
O15   V3    S    
C32   C34   A    
C30   O21   S    
C37   C40   A    
C29   O22   S    
C62   C72   A    
V4    O20   S    
C51   C53   A    
C57   H25   S    
C50   C52   A    
C54   C60   A    
C69   C70   A    
C56   C57   A    
O10   V2    S    
C60   H18   S    
C66   H30   S    
C61   C63   A    
C68   C74   A    
C82   H48   S    
C76   H34   S    
C42   H10   S    
O14   V4    S    
C77   H36   S    
C59   H17   S    
O18   V4    S    
C58   C60   A    
O15   C5    A    
C49   H20   S    
C61   H27   S    
C81   H45   S    
C82   H47   S    
O12   V4    S    
C79   H40   S    
C74   C76   A    
O22   C80   S    
C65   H29   S    
C75   H33   S    
C5    C25   S    
C28   H14   S    
O16   V4    S    
C11   C13   A    
C2    C44   S    
C46   H24   S    
C17   C19   A    
C44   C48   A    
C25   C31   A    
C16   C18   A    
C64   C66   A    
C78   H37   S    
C25   C29   A    
O5    V1    S    
C7    C12   S    
O17   C7    A    
C4    C63   S    
O6    V2    S    
O10   C6    A    
O18   C8    A    
C81   H44   S    
O2    V4    S    
C72   C75   A    
C12   C14   A    
C67   C73   A    
C71   C76   A    
V3    O19   S    
C14   C16   A    
C48   H21   S    
C78   H38   S    
C9    C11   A    
C52   C54   A    
C34   C38   A    
C47   H22   S    
C33   C37   A    
O9    C5    A    
O13   V1    S    
C66   C68   A    
O14   V2    S    
C37   C38   A    
O2    C4    A    
C68   C70   A    
C50   H19   S    
C62   H28   S    
C51   C55   A    
O4    V2    S    
O1    C3    A    
C28   C36   A    
C13   C15   A    
C79   H39   S    
C63   C65   A    
C82   H46   S    
C45   H23   S    
C9    H1    S    
C40   H16   S    
C39   H15   S    
C31   H12   S    
