data_mof_unit_45702.cif
_audit_creation_date              2012-12-10T16:57:51-0500
_audit_creation_method            fapswitch 2.2
_symmetry_space_group_name_H-M    P1
_symmetry_Int_Tables_number       1
_space_group_crystal_system       triclinic
_cell_length_a                    10.646304
_cell_length_b                    10.93185
_cell_length_c                    9.761108
_cell_angle_alpha                 89.400578
_cell_angle_beta                  88.607241
_cell_angle_gamma                 90.861102
_cell_volume                      1135.50433268

loop_
_atom_site_label
_atom_site_type_symbol
_atom_type_description
_atom_site_fract_x
_atom_site_fract_y
_atom_site_fract_z
_atom_type_partial_charge
C1    C     C_R   0.504199 0.265826 0.500428 0.818246
C2    C     C_3   0.967339 0.479659 0.371834 0.389792
C3    C     C_3   0.044594 0.390421 0.457361 -0.212367
C4    C     C_3   0.123360 0.500108 0.504394 -0.131799
C5    C     C_2   0.515515 0.934712 0.394592 -0.134816
C6    C     C_2   0.472413 0.864556 0.500170 -0.166096
C7    C     C_2   0.503484 0.067818 0.389990 -0.152206
C8    C     C_2   0.518042 0.134620 0.502673 -0.274220
C9    C     C_2   0.508079 0.401926 0.923276 0.010640
C10   C     C_2   0.483301 0.403330 0.076155 0.022686
C11   C     C_R   0.259770 0.500197 0.501572 0.820673
C12   C     C_R   0.494443 0.734162 0.499681 0.851380
C13   C     C_R   0.740460 0.498709 0.498300 0.874390
C14   C     C_3   0.036099 0.518575 0.630121 -0.115670
C15   C     C_3   0.954230 0.409149 0.582283 -0.246550
C16   C     C_3   0.877509 0.497877 0.494849 -0.200674
C17   C     C_3   0.958609 0.605494 0.541774 0.434249
C18   C     C_3   0.048227 0.589243 0.417210 -0.284614
Cu1   Cu    Cu3+1 0.500030 0.500020 0.638630 1.045106
Cu2   Cu    Cu3+1 0.499970 0.499980 0.361370 1.091078
H1    H     H_    0.913895 0.335078 0.649275 0.196771
H2    H     H_    0.543232 0.092613 0.599240 0.169424
H3    H     H_    0.533566 0.316005 0.876609 0.147911
H4    H     H_    0.445106 0.567030 0.888125 0.255321
H5    H     H_    0.452779 0.317819 0.124262 0.103123
H6    H     H_    0.066493 0.535735 0.736297 0.200652
H7    H     H_    0.088216 0.663626 0.350379 0.193125
H8    H     H_    0.082560 0.301673 0.422434 0.181853
H9    H     H_    0.562456 0.893209 0.307070 0.205411
H10   H     H_    0.488246 0.110970 0.291158 0.180073
N1    N     N_2   0.498620 0.498660 0.846910 -0.231463
N2    N     N_2   0.498590 0.498630 0.153040 -0.017700
O1    O     O_R   0.500020 0.321960 0.617040 -0.602940
O2    O     O_R   0.499980 0.321920 0.382900 -0.599766
O3    O     O_R   0.316870 0.499990 0.617050 -0.591421
O4    O     O_R   0.316830 0.499950 0.382910 -0.603737
O5    O     O_R   0.500020 0.678080 0.617100 -0.551308
O6    O     O_R   0.499980 0.678040 0.382960 -0.530140
O7    O     O_R   0.683170 0.500050 0.617090 -0.538377
O8    O     O_R   0.683130 0.500010 0.382950 -0.490383
S1    S     S_3+6 0.596349 0.620271 0.092362 0.164747
O9    O     O_2   0.688057 0.579811 0.982904 -0.186549
O10   O     O_2   0.516231 0.720663 0.037056 -0.320976
O11   O     O_3   0.683722 0.681489 0.215887 -0.439762
H11   H     H_    0.726577 0.753619 0.172587 0.373964
S2    S     S_3+6 0.901262 0.749631 0.596678 0.027121
O12   O     O_2   0.823139 0.804283 0.486114 -0.307032
O13   O     O_2   0.822368 0.732147 0.725339 -0.221573
O14   O     O_3   0.023890 0.843107 0.627625 -0.520461
H12   H     H_    0.985883 0.921501 0.655316 0.382598
S3    S     S_3+6 0.936105 0.451700 0.196164 0.069753
O15   O     O_2   0.820834 0.371898 0.184546 -0.226070
O16   O     O_2   0.917257 0.571093 0.122654 -0.218225
O17   O     O_3   0.059293 0.380390 0.123583 -0.510798
H13   H     H_    0.132347 0.435442 0.138540 0.337749
C19   C     C_1   0.392454 0.910482 0.610152 0.299685
N3    N     N_1   0.328475 0.946638 0.697852 -0.219830

loop_
_geom_bond_atom_site_label_1
_geom_bond_atom_site_label_2
_ccdc_geom_bond_type
C8    H2    S    
N2    S1    S    
C2    C18   S    
C1    C8    S    
Cu2   O6    S    
S1    O9    D    
Cu1   Cu2   S    
S2    O14   S    
S3    O17   S    
C4    C18   S    
C17   S2    S    
C11   O3    A    
C17   C18   S    
C13   C16   S    
H4    N1    S    
Cu1   N1    S    
C7    C8    D    
C7    H10   S    
Cu1   O3    S    
C3    C4    S    
O11   H11   S    
C4    C11   S    
C6    C12   S    
S1    O10   D    
C14   C17   S    
Cu1   O7    S    
C10   H5    S    
C3    H8    S    
C1    O2    A    
C2    C3    S    
C5    H9    S    
C4    C14   S    
C5    C6    D    
Cu2   O8    S    
S1    O11   S    
S2    O13   D    
C13   O7    A    
S2    O12   D    
C2    S3    S    
C9    N1    D    
C1    O1    A    
S3    O15   D    
Cu2   O4    S    
C12   O6    A    
C10   N2    D    
C15   H1    S    
C2    C16   S    
C19   N3    T    
O14   H12   S    
Cu2   N2    S    
Cu2   O2    S    
C6    C19   S    
C12   O5    A    
C5    C7    S    
O17   H13   S    
C9    H3    S    
C3    C15   S    
Cu1   O5    S    
S3    O16   D    
Cu1   O1    S    
C14   C15   S    
C14   H6    S    
C18   H7    S    
C15   C16   S    
C9    C10   S    
C16   C17   S    
C13   O8    A    
C11   O4    A    
