data_mof_unit_33304.cif
_audit_creation_date              2012-12-10T17:34:59-0500
_audit_creation_method            fapswitch 2.2
_symmetry_space_group_name_H-M    P1
_symmetry_Int_Tables_number       1
_space_group_crystal_system       triclinic
_cell_length_a                    12.342725
_cell_length_b                    13.172809
_cell_length_c                    13.867578
_cell_angle_alpha                 105.225891
_cell_angle_beta                  73.879065
_cell_angle_gamma                 116.788715
_cell_volume                      1908.56613207

loop_
_atom_site_label
_atom_site_type_symbol
_atom_type_description
_atom_site_fract_x
_atom_site_fract_y
_atom_site_fract_z
_atom_type_partial_charge
C1    C     C_R   0.144488 0.713775 0.509304 0.765960
C2    C     C_1   0.973416 0.502765 0.790906 -0.159577
C3    C     C_R   0.733719 0.984460 0.348102 -0.189095
C4    C     C_R   0.775665 0.164508 0.464054 -0.100324
C5    C     C_R   0.179318 0.917814 0.574280 -0.194560
C6    C     C_R   0.256704 0.034165 0.589553 -0.148945
C7    C     C_R   0.383055 0.070394 0.552923 -0.107550
C8    C     C_R   0.434432 0.990305 0.499454 0.095210
C9    C     C_R   0.352905 0.875636 0.468905 0.078537
C10   C     C_R   0.563783 0.022637 0.468222 -0.003855
C11   C     C_R   0.607417 0.949208 0.388748 0.119721
C12   C     C_R   0.984059 0.503780 0.686255 0.831661
C13   C     C_R   0.524452 0.841965 0.349631 -0.219737
C14   C     C_R   0.399290 0.804761 0.390082 -0.192677
C15   C     C_R   0.651871 0.124504 0.513360 0.282820
C16   C     C_R   0.816801 0.093419 0.382959 -0.260075
C17   C     C_R   0.226258 0.837163 0.515049 -0.105840
C18   C     C_R   0.642727 0.677105 0.660753 -0.283085
C19   C     C_R   0.251380 0.350731 0.364588 0.091345
C20   C     C_R   0.349782 0.317864 0.335508 -0.255846
C21   C     C_R   0.448965 0.374442 0.386785 -0.176311
C22   C     C_R   0.450963 0.465223 0.468533 -0.007708
C23   C     C_R   0.856143 0.286294 0.486136 0.859671
C24   C     C_R   0.347568 0.495120 0.495966 0.236492
C25   C     C_R   0.550920 0.526821 0.523946 -0.077279
C26   C     C_R   0.545851 0.617644 0.605280 0.096270
C27   C     C_R   0.443797 0.646878 0.631523 0.192258
C28   C     C_R   0.346698 0.584294 0.577680 -0.220591
C29   C     C_R   0.656861 0.502298 0.502161 0.069802
C30   C     C_R   0.743378 0.648497 0.635390 0.082385
C31   C     C_R   0.016373 0.496699 0.313737 0.811922
C32   C     C_1   0.029331 0.499081 0.208944 -0.197284
C33   C     C_2   0.057660 0.504871 0.014297 0.289918
C34   C     C_2   0.960231 0.496192 0.982121 -0.231309
C35   C     C_1   0.965974 0.500379 0.878444 0.011716
C36   C     C_1   0.042354 0.501789 0.120492 -0.032445
Cu1   Cu    Cu3+1 0.899780 0.525060 0.522890 0.964758
Cu2   Cu    Cu3+1 0.100220 0.474940 0.477110 0.924662
H1    H     H_    0.873560 0.485679 0.034752 0.141778
H2    H     H_    0.339234 0.722480 0.354413 0.173592
H3    H     H_    0.817801 0.694563 0.677931 0.120795
H4    H     H_    0.641394 0.745132 0.724322 0.156903
H5    H     H_    0.668592 0.435493 0.441701 0.115941
H6    H     H_    0.174774 0.306360 0.324390 0.121300
H7    H     H_    0.522416 0.345184 0.360739 0.132909
H8    H     H_    0.349229 0.248314 0.272961 0.146765
H9    H     H_    0.271573 0.608536 0.601015 0.220697
H10   H     H_    0.912563 0.123273 0.344901 0.160884
H11   H     H_    0.556544 0.786028 0.287953 0.145071
H12   H     H_    0.767418 0.929852 0.286174 0.145105
H13   H     H_    0.082487 0.890990 0.608877 0.155551
H14   H     H_    0.438675 0.162029 0.562877 0.182124
H15   H     H_    0.218994 0.096431 0.631675 0.151716
N1    N     N_R   0.748810 0.563010 0.557590 -0.177313
N2    N     N_R   0.250540 0.437620 0.443020 -0.197680
O1    O     O_R   0.025040 0.682470 0.528790 -0.583969
O2    O     O_R   0.194310 0.640150 0.490130 -0.606544
O3    O     O_R   0.903380 0.524130 0.659910 -0.555383
O4    O     O_R   0.072660 0.481800 0.621240 -0.599071
O5    O     O_R   0.805690 0.359850 0.509870 -0.548413
O6    O     O_R   0.974960 0.317530 0.471210 -0.592550
O7    O     O_R   0.927340 0.518200 0.378760 -0.581499
O8    O     O_R   0.096620 0.475870 0.340090 -0.588283
N3    N     N_2   0.442421 0.742153 0.710361 -0.427619
H16   H     H_    0.515305 0.819792 0.697580 0.266332
C37   C     C_3   0.326865 0.751398 0.761046 -0.650895
H17   H     H_    0.341717 0.816949 0.830806 0.240292
H18   H     H_    0.256718 0.667884 0.783987 0.234080
H19   H     H_    0.293022 0.779309 0.710597 0.215968
N4    N     N_2   0.173819 0.520604 0.946809 -0.419375
H20   H     H_    0.169976 0.486759 0.871199 0.259254
C38   C     C_3   0.267513 0.510172 0.982423 -0.646525
H21   H     H_    0.352637 0.528175 0.923161 0.231566
H22   H     H_    0.234404 0.421450 0.998166 0.223877
H23   H     H_    0.291204 0.573734 0.052216 0.234439
Cl1   Cl    Cl    0.617843 0.189902 0.640812 -0.642837

loop_
_geom_bond_atom_site_label_1
_geom_bond_atom_site_label_2
_ccdc_geom_bond_type
C2    C35   T    
C37   H18   S    
C28   H9    S    
C19   C20   A    
C18   C26   A    
C2    C12   S    
C16   H10   S    
Cu1   O7    S    
C7    C8    A    
C24   N2    A    
C30   N1    A    
C26   C27   A    
C32   C36   T    
C1    O1    A    
C7    H14   S    
C10   C15   A    
C18   H4    S    
C5    C6    A    
C37   H19   S    
C5    C17   A    
C29   N1    A    
C33   C36   S    
C34   C35   S    
C12   O4    A    
Cu2   N2    S    
C8    C9    A    
C22   C25   A    
C30   H3    S    
N4    H20   S    
C18   C30   A    
Cu1   O3    S    
Cu2   O6    S    
C12   O3    A    
C15   Cl1   S    
C21   C22   A    
C29   H5    S    
Cu1   O1    S    
C31   O7    A    
C38   H23   S    
C3    H12   S    
C21   H7    S    
C25   C29   A    
C23   O5    A    
C34   H1    S    
C31   O8    A    
C38   H22   S    
C27   N3    S    
C4    C23   S    
C25   C26   A    
N3    C37   S    
C4    C16   A    
C9    C14   A    
Cu1   Cu2   S    
C1    O2    A    
Cu2   O2    S    
C31   C32   S    
C33   C34   D    
C33   N4    S    
C13   H11   S    
Cu1   N1    S    
C9    C17   A    
C22   C24   A    
C6    H15   S    
C19   H6    S    
Cu2   O8    S    
C19   N2    A    
C24   C28   A    
C38   H21   S    
C6    C7    A    
C1    C17   S    
N3    H16   S    
C4    C15   A    
C11   C13   A    
C37   H17   S    
Cu1   O5    S    
C3    C11   A    
C10   C11   A    
C14   H2    S    
Cu2   O4    S    
C23   O6    A    
C20   C21   A    
C8    C10   A    
C27   C28   A    
C5    H13   S    
N4    C38   S    
C13   C14   A    
C20   H8    S    
C3    C16   A    
