data_mof_unit_38345.cif
_audit_creation_date              2012-12-10T17:55:06-0500
_audit_creation_method            fapswitch 2.2
_symmetry_space_group_name_H-M    P1
_symmetry_Int_Tables_number       1
_space_group_crystal_system       triclinic
_cell_length_a                    8.714181
_cell_length_b                    10.826611
_cell_length_c                    9.526708
_cell_angle_alpha                 89.869375
_cell_angle_beta                  97.699685
_cell_angle_gamma                 90.590981
_cell_volume                      890.646359021

loop_
_atom_site_label
_atom_site_type_symbol
_atom_type_description
_atom_site_fract_x
_atom_site_fract_y
_atom_site_fract_z
_atom_type_partial_charge
C1    C     C_R   0.499824 0.262098 0.500040 0.784847
C2    C     C_R   0.500313 0.737903 0.499980 0.785729
C3    C     C_R   0.203792 0.500279 0.463853 0.874690
C4    C     C_R   0.796121 0.502675 0.536011 0.886586
C5    C     C_2   0.037986 0.498403 0.443850 -0.366142
C6    C     C_2   0.961694 0.509619 0.555317 -0.382694
C7    C     C_R   0.496622 0.064096 0.372078 -0.196803
C8    C     C_R   0.503880 0.935897 0.627998 -0.197831
C9    C     C_R   0.497015 0.936351 0.372020 -0.185710
C10   C     C_R   0.503485 0.063645 0.628055 -0.178961
C11   C     C_R   0.500501 0.871762 0.499963 -0.011208
C12   C     C_R   0.499899 0.128235 0.500099 -0.014867
C13   C     C_R   0.405495 0.421664 0.063506 -0.238557
C14   C     C_R   0.596279 0.577294 0.936517 -0.263760
C15   C     C_R   0.403239 0.421726 0.913377 0.565448
C16   C     C_R   0.597059 0.578944 0.087639 0.573253
Cu1   Cu    Cu3+1 0.500000 0.500020 0.640660 0.970232
Cu2   Cu    Cu3+1 0.500000 0.499980 0.359340 0.975594
H1    H     H_    0.978454 0.485500 0.337011 0.180805
H2    H     H_    0.021024 0.524696 0.661735 0.162387
H3    H     H_    0.493615 0.112325 0.271994 0.149286
H4    H     H_    0.506881 0.887663 0.728081 0.147006
H5    H     H_    0.494358 0.888482 0.271964 0.155778
H6    H     H_    0.506129 0.111509 0.728111 0.170954
H7    H     H_    0.333658 0.357840 0.113394 0.157292
H8    H     H_    0.672862 0.635241 0.884584 0.163011
N1    N     N_R   0.500040 0.500030 0.852080 -0.205364
N2    N     N_R   0.499960 0.499970 0.147920 -0.206790
O1    O     O_R   0.499990 0.319660 0.618740 -0.540820
O2    O     O_R   0.500010 0.680340 0.381260 -0.549758
O3    O     O_R   0.499990 0.319630 0.381170 -0.599614
O4    O     O_R   0.500010 0.680370 0.618830 -0.600150
O5    O     O_R   0.274840 0.500010 0.591370 -0.548770
O6    O     O_R   0.725160 0.499990 0.408630 -0.528262
O7    O     O_R   0.274830 0.499980 0.353800 -0.597922
O8    O     O_R   0.725170 0.500020 0.646200 -0.600289
O9    O     O_3   0.318191 0.334306 0.828250 -0.587425
C17   C     C_3   0.162711 0.323697 0.855628 0.029999
H9    H     H_    0.087677 0.329851 0.752327 0.178913
H10   H     H_    0.125350 0.399038 0.922947 0.110750
C18   C     C_3   0.133655 0.196461 0.918146 -0.362865
H11   H     H_    0.160049 0.123576 0.843155 0.229886
H12   H     H_    0.210674 0.182831 0.019440 0.205730
C19   C     C_3   0.965354 0.182098 0.944531 -0.906672
H13   H     H_    0.937129 0.252761 0.021246 0.255547
H14   H     H_    0.946874 0.089161 0.989016 0.252798
H15   H     H_    0.886010 0.192272 0.843771 0.259075
O10   O     O_3   0.696637 0.652404 0.180671 -0.579005
C20   C     C_3   0.775854 0.748226 0.118172 0.008250
H16   H     H_    0.798926 0.822833 0.198349 0.173910
H17   H     H_    0.704654 0.792765 0.026619 0.111754
C21   C     C_3   0.933089 0.703047 0.083807 -0.354415
H18   H     H_    0.004996 0.674212 0.183464 0.229625
H19   H     H_    0.917779 0.621560 0.012632 0.204387
C22   C     C_3   0.019350 0.804323 0.013801 -0.916201
H20   H     H_    0.949906 0.835084 0.913715 0.256742
H21   H     H_    0.131458 0.768214 0.988956 0.255171
H22   H     H_    0.043198 0.884345 0.086464 0.255422

loop_
_geom_bond_atom_site_label_1
_geom_bond_atom_site_label_2
_ccdc_geom_bond_type
C16   N2    A    
C8    H4    S    
C22   H20   S    
C21   C22   S    
C13   N2    A    
O9    C17   S    
C5    H1    S    
Cu1   O8    S    
C14   N1    A    
C6    H2    S    
Cu2   O7    S    
C15   N1    A    
C19   H15   S    
C3    O7    A    
C2    O2    A    
C20   C21   S    
C13   H7    S    
C16   O10   S    
C1    O1    A    
Cu1   Cu2   S    
Cu2   N2    S    
C21   H18   S    
C14   H8    S    
C17   H10   S    
C18   H12   S    
C9    C11   A    
C17   H9    S    
C1    C12   S    
Cu1   O5    S    
Cu2   O6    S    
C8    C11   A    
Cu2   O2    S    
C2    C11   S    
C10   C12   A    
C8    C10   A    
O10   C20   S    
C21   H19   S    
C14   C16   A    
C22   H21   S    
C13   C15   A    
C5    C6    D    
C18   C19   S    
C4    O6    A    
C7    C12   A    
C4    C6    S    
C3    O5    A    
Cu1   N1    S    
C3    C5    S    
C1    O3    A    
Cu1   O1    S    
C4    O8    A    
C17   C18   S    
C2    O4    A    
C20   H16   S    
C18   H11   S    
C22   H22   S    
C7    C9    A    
Cu1   O4    S    
C9    H5    S    
Cu2   O3    S    
C10   H6    S    
C7    H3    S    
C15   O9    S    
C19   H13   S    
C19   H14   S    
C20   H17   S    
