data_mof_unit_40393.cif
_audit_creation_date              2012-12-10T19:05:19-0500
_audit_creation_method            fapswitch 2.2
_symmetry_space_group_name_H-M    P1
_symmetry_Int_Tables_number       1
_space_group_crystal_system       triclinic
_cell_length_a                    9.663722
_cell_length_b                    10.829221
_cell_length_c                    17.111158
_cell_angle_alpha                 92.228448
_cell_angle_beta                  86.317237
_cell_angle_gamma                 89.976868
_cell_volume                      1785.63582396

loop_
_atom_site_label
_atom_site_type_symbol
_atom_type_description
_atom_site_fract_x
_atom_site_fract_y
_atom_site_fract_z
_atom_type_partial_charge
C1    C     C_R   0.499972 0.736918 0.496480 0.796183
C2    C     C_R   0.546609 0.474358 0.786719 0.553294
C3    C     C_R   0.410066 0.657689 0.166198 0.386147
C4    C     C_R   0.408885 0.618544 0.243073 0.549981
C5    C     C_R   0.643432 0.546904 0.218585 -0.124980
C6    C     C_R   0.627330 0.551316 0.137842 0.526158
C7    C     C_R   0.513803 0.614250 0.110339 -0.258103
C8    C     C_2   0.411455 0.630533 0.978469 -0.146043
C9    C     C_2   0.519140 0.640045 0.025068 0.658901
C10   C     C_R   0.521971 0.552805 0.268559 -0.356788
C11   C     C_R   0.377469 0.935649 0.481074 0.064763
C12   C     C_R   0.481756 0.504857 0.649870 0.857629
C13   C     C_R   0.500175 0.868959 0.485140 -0.187582
C14   C     C_R   0.625540 0.932934 0.477008 -0.296159
C15   C     C_R   0.627252 0.061263 0.484534 0.648500
C16   C     C_R   0.501522 0.128253 0.491314 -0.165585
C17   C     C_R   0.378059 0.063000 0.483317 -0.160180
C18   C     C_3   0.241770 0.069904 0.530086 0.413078
C19   C     C_3   0.241245 0.929346 0.526563 0.384038
C20   C     C_R   0.930822 0.400772 0.469214 0.102719
C21   C     C_R   0.923417 0.585831 0.543739 0.075361
C22   C     C_R   0.071308 0.586701 0.541605 0.032046
C23   C     C_R   0.500202 0.262396 0.499269 0.885508
C24   C     C_R   0.076982 0.402631 0.467822 -0.012523
C25   C     C_3   0.094043 0.348312 0.386572 0.330871
C26   C     C_3   0.936833 0.342344 0.388423 1.011931
C27   C     C_R   0.517480 0.513777 0.350797 0.905510
C28   C     C_R   0.468842 0.535286 0.733628 -0.130376
C29   C     C_R   0.377911 0.630897 0.760267 -0.267914
C30   C     C_R   0.363491 0.665236 0.839312 -0.148475
C31   C     C_R   0.438645 0.603431 0.893340 0.069458
C32   C     C_R   0.530233 0.507428 0.866441 -0.155016
Cu1   Cu    Cu3+1 0.359330 0.500020 0.500000 1.057396
Cu2   Cu    Cu3+1 0.640670 0.499980 0.500000 1.050575
H1    H     H_    0.318752 0.680051 0.719544 0.164222
H2    H     H_    0.722438 0.884021 0.469830 0.181102
H3    H     H_    0.157983 0.113099 0.498830 0.130919
H4    H     H_    0.245693 0.885510 0.584056 0.091709
H5    H     H_    0.124490 0.656739 0.575141 0.131434
H6    H     H_    0.146958 0.256963 0.382744 0.069651
H7    H     H_    0.586430 0.456161 0.907395 0.207964
H8    H     H_    0.292579 0.739473 0.858047 0.155597
N1    N     N_R   0.852130 0.499070 0.499500 -0.197352
N2    N     N_R   0.148040 0.499110 0.499500 -0.145592
O1    O     O_R   0.381190 0.680360 0.500000 -0.562250
O2    O     O_R   0.618770 0.680320 0.499990 -0.602092
O3    O     O_R   0.367430 0.500040 0.613600 -0.591795
O4    O     O_R   0.605020 0.500000 0.613590 -0.565747
O5    O     O_R   0.381230 0.319680 0.500010 -0.582438
O6    O     O_R   0.618810 0.319640 0.500000 -0.509286
O7    O     O_R   0.394980 0.500000 0.386410 -0.473693
O8    O     O_R   0.632570 0.499960 0.386400 -0.538357
F1    F     F_    0.728307 0.504501 0.086556 -0.671809
F2    F     F_    0.751125 0.117140 0.492306 -0.615289
F3    F     F_    0.254810 0.118240 0.605381 -0.654745
F4    F     F_    0.140898 0.881502 0.479990 -0.679536
C33   C     C_R   0.853923 0.674803 0.600721 0.110722
C34   C     C_R   0.858083 0.801268 0.586302 -0.149748
C35   C     C_R   0.807028 0.888340 0.643471 -0.108072
C36   C     C_R   0.757622 0.849965 0.717070 -0.107913
C37   C     C_R   0.763084 0.725042 0.734093 -0.148578
C38   C     C_R   0.813784 0.638102 0.676667 -0.118107
H9    H     H_    0.903594 0.832169 0.531235 0.202805
H10   H     H_    0.808173 0.985630 0.631179 0.198609
H11   H     H_    0.718819 0.917291 0.761551 0.164524
H12   H     H_    0.730118 0.695915 0.792125 0.178681
H13   H     H_    0.823091 0.542307 0.691573 0.191992
F5    F     F_    0.148142 0.431761 0.333645 -0.599133
F6    F     F_    0.306717 0.659444 0.295592 -0.612166
F7    F     F_    0.879244 0.413921 0.334805 -0.639808
F8    F     F_    0.888900 0.222429 0.385559 -0.633116
C39   C     C_R   0.773442 0.602613 0.245898 0.217607
C40   C     C_R   0.766477 0.709203 0.296327 -0.151392
C41   C     C_R   0.886249 0.774811 0.312324 -0.166817
C42   C     C_R   0.014037 0.736397 0.277546 0.038377
C43   C     C_R   0.022878 0.629980 0.228562 -0.007065
C44   C     C_R   0.903603 0.563509 0.212767 -0.025744
H14   H     H_    0.667809 0.744859 0.321039 0.134477
H15   H     H_    0.879563 0.857574 0.349910 0.187129
H16   H     H_    0.105402 0.790421 0.288151 0.236327
H17   H     H_    0.121491 0.599110 0.201573 0.210024
H18   H     H_    0.913168 0.480971 0.175177 0.189552
F9    F     F_    0.647562 0.653234 0.988678 -0.664805
F10   F     F_    0.317926 0.745382 0.150107 -0.669760
F11   F     F_    0.634306 0.380916 0.761880 -0.656856
C45   C     C_R   0.264901 0.644524 0.006580 0.109976
C46   C     C_R   0.205324 0.763267 0.012273 -0.010388
C47   C     C_R   0.062961 0.777766 0.028567 -0.143870
C48   C     C_R   0.978740 0.673891 0.035899 -0.058175
C49   C     C_R   0.036689 0.555239 0.027037 -0.108480
C50   C     C_R   0.179690 0.540441 0.012951 -0.180806
H19   H     H_    0.269559 0.844277 0.004002 0.143901
H20   H     H_    0.017696 0.869353 0.034417 0.153059
H21   H     H_    0.868883 0.686268 0.048624 0.239376
H22   H     H_    0.971350 0.474461 0.030814 0.211911
H23   H     H_    0.223541 0.448408 0.004968 0.148812

loop_
_geom_bond_atom_site_label_1
_geom_bond_atom_site_label_2
_ccdc_geom_bond_type
C19   F4    S    
C10   C27   S    
C46   C47   A    
Cu1   O1    S    
C40   C41   A    
C12   O4    A    
C49   C50   A    
C49   H22   S    
C11   C19   S    
C35   H10   S    
C29   C30   A    
C38   H13   S    
C12   C28   S    
C21   C22   A    
C28   C29   A    
C18   H3    S    
C5    C39   S    
C3    C7    A    
C45   C50   A    
C25   H6    S    
C14   H2    S    
C30   C31   A    
C1    O2    A    
C23   O5    A    
Cu1   O5    S    
C15   C16   A    
C2    F11   S    
C2    C32   A    
C18   C19   S    
C48   H21   S    
C50   H23   S    
C21   N1    A    
C37   H12   S    
C22   N2    A    
C20   C24   A    
C8    C9    D    
C32   H7    S    
Cu2   O2    S    
C42   H16   S    
C35   C36   A    
C13   C14   A    
C26   F8    S    
C8    C31   S    
C25   F5    S    
C12   O3    A    
C4    F6    S    
C27   O7    A    
C17   C18   S    
Cu2   O6    S    
C41   C42   A    
C15   F2    S    
C33   C38   A    
C24   C25   S    
C45   C46   A    
C16   C17   A    
C23   O6    A    
C34   C35   A    
C36   C37   A    
C42   C43   A    
C21   C33   S    
C39   C44   A    
C19   H4    S    
C31   C32   A    
C40   H14   S    
Cu1   Cu2   S    
C43   C44   A    
C18   F3    S    
C9    F9    S    
C24   N2    A    
C36   H11   S    
C16   C23   S    
C41   H15   S    
Cu1   O3    S    
Cu2   O4    S    
C6    F1    S    
C4    C10   A    
C3    C4    A    
C20   N1    A    
C27   O8    A    
C34   H9    S    
C7    C9    S    
C47   H20   S    
C11   C17   A    
Cu1   N2    S    
Cu2   N1    S    
C39   C40   A    
C43   H17   S    
C6    C7    A    
Cu1   O7    S    
C29   H1    S    
Cu2   O8    S    
C25   C26   S    
C5    C10   A    
C11   C13   A    
C1    O1    A    
C33   C34   A    
C5    C6    A    
C20   C26   S    
C44   H18   S    
C26   F7    S    
C22   H5    S    
C8    C45   S    
C37   C38   A    
C1    C13   S    
C47   C48   A    
C3    F10   S    
C14   C15   A    
C30   H8    S    
C2    C28   A    
C48   C49   A    
C46   H19   S    
