data_mof_unit_64331.cif
_audit_creation_date              2012-12-10T18:50:53-0500
_audit_creation_method            fapswitch 2.2
_symmetry_space_group_name_H-M    P1
_symmetry_Int_Tables_number       1
_space_group_crystal_system       triclinic
_cell_length_a                    37.066038
_cell_length_b                    30.27933
_cell_length_c                    21.73081
_cell_angle_alpha                 89.47753
_cell_angle_beta                  125.262446
_cell_angle_gamma                 90.410024
_cell_volume                      19913.3307783

loop_
_atom_site_label
_atom_site_type_symbol
_atom_type_description
_atom_site_fract_x
_atom_site_fract_y
_atom_site_fract_z
_atom_type_partial_charge
C1    C     C_R   0.413855 0.499981 0.913917 0.896596
C2    C     C_R   0.586142 0.500048 0.086250 0.896812
C3    C     C_R   0.913856 0.999981 0.913918 0.896612
C4    C     C_R   0.086142 0.000048 0.086250 0.896838
C5    C     C_2   0.506247 0.502263 0.821389 -0.320117
C6    C     C_2   0.493780 0.497749 0.178641 -0.324470
C7    C     C_2   0.006246 0.002263 0.821389 -0.320090
C8    C     C_2   0.993781 0.997749 0.178642 -0.324536
C9    C     C_R   0.296904 0.530237 0.834789 0.442480
C10   C     C_R   0.703638 0.529555 0.165868 0.486489
C11   C     C_R   0.796909 0.030285 0.834741 0.442535
C12   C     C_R   0.203631 0.029612 0.165919 0.486554
C13   C     C_R   0.342574 0.527263 0.883985 0.389777
C14   C     C_R   0.657855 0.527712 0.117074 0.384843
C15   C     C_R   0.842577 0.027298 0.883951 0.389744
C16   C     C_R   0.157851 0.027752 0.117111 0.384819
C17   C     C_R   0.365924 0.500169 0.865446 -0.406791
C18   C     C_R   0.634058 0.500171 0.134881 -0.465687
C19   C     C_R   0.865925 0.000173 0.865444 -0.406832
C20   C     C_R   0.134058 0.000176 0.134881 -0.465738
C21   C     C_R   0.343087 0.474282 0.799216 0.296720
C22   C     C_R   0.656546 0.472817 0.199801 0.402111
C23   C     C_R   0.843085 0.974268 0.799235 0.296711
C24   C     C_R   0.156550 0.972802 0.199776 0.402113
C25   C     C_R   0.296739 0.474001 0.753942 0.404102
C26   C     C_R   0.702392 0.470924 0.243778 0.410358
C27   C     C_R   0.796737 0.973997 0.753957 0.403969
C28   C     C_R   0.202396 0.970920 0.243753 0.410230
C29   C     C_R   0.274027 0.502438 0.771189 -0.239114
C30   C     C_R   0.726116 0.500107 0.228024 -0.307064
C31   C     C_R   0.774029 0.002464 0.771170 -0.239303
C32   C     C_R   0.226114 0.000141 0.228039 -0.307229
C33   C     C_R   0.203027 0.515107 0.649002 -0.158374
C34   C     C_R   0.796791 0.514087 0.349788 -0.225589
C35   C     C_R   0.703024 0.015075 0.648964 -0.158291
C36   C     C_R   0.296795 0.014053 0.349830 -0.225612
C37   C     C_R   0.157278 0.514168 0.603485 -0.229639
C38   C     C_R   0.842547 0.513674 0.395583 -0.215770
C39   C     C_R   0.657275 0.014129 0.603453 -0.229522
C40   C     C_R   0.342550 0.013630 0.395620 -0.215662
C41   C     C_R   0.134253 0.499863 0.633237 -0.112374
C42   C     C_R   0.865781 0.499442 0.366604 -0.108576
C43   C     C_R   0.634255 0.999872 0.633238 -0.112381
C44   C     C_R   0.365780 0.999455 0.366602 -0.108590
C45   C     C_R   0.501608 0.500341 0.882608 0.901252
C46   C     C_R   0.498391 0.499660 0.117391 0.902549
C47   C     C_R   0.001608 0.000341 0.882607 0.901239
C48   C     C_R   0.998391 0.999660 0.117391 0.902568
C49   C     C_R   0.157193 0.485684 0.708365 -0.306139
C50   C     C_R   0.843078 0.484869 0.292011 -0.303140
C51   C     C_R   0.657199 0.985753 0.708398 -0.306278
C52   C     C_R   0.343071 0.984955 0.291966 -0.303347
C53   C     C_R   0.203169 0.485101 0.753602 0.549813
C54   C     C_R   0.797122 0.483702 0.246607 0.567177
C55   C     C_R   0.703174 0.985183 0.753635 0.549910
C56   C     C_R   0.297116 0.983804 0.246560 0.567327
C57   C     C_R   0.225946 0.500963 0.723978 0.084523
C58   C     C_R   0.774160 0.499348 0.275486 0.002982
C59   C     C_R   0.725947 0.000989 0.723970 0.084465
C60   C     C_R   0.274158 0.999384 0.275489 0.002988
C61   C     C_R   0.499979 0.413688 0.499950 0.870420
C62   C     C_R   0.999979 0.913688 0.499949 0.870417
C63   C     C_R   0.499614 0.498399 0.618629 0.931851
C64   C     C_R   0.500384 0.501654 0.381370 0.933485
C65   C     C_R   0.999614 0.998399 0.618629 0.932128
C66   C     C_R   0.000384 0.001654 0.381370 0.933704
C67   C     C_R   0.500040 0.586452 0.500100 0.948456
C68   C     C_R   0.000040 0.086449 0.500100 0.949434
C69   C     C_R   0.000003 0.413895 0.500260 0.966415
C70   C     C_R   0.500004 0.913896 0.500261 0.965723
C71   C     C_R   0.086358 0.499928 0.586062 0.889655
C72   C     C_R   0.913653 0.499893 0.413929 0.884692
C73   C     C_R   0.586359 0.999928 0.586063 0.889308
C74   C     C_R   0.413652 0.999895 0.413929 0.884360
C75   C     C_R   0.999806 0.586293 0.499585 0.987460
C76   C     C_R   0.499805 0.086292 0.499585 0.987589
C77   C     C_R   0.461231 0.296603 0.449907 -0.155220
C78   C     C_R   0.539559 0.297050 0.551674 -0.083791
C79   C     C_R   0.961221 0.796603 0.449962 -0.155204
C80   C     C_R   0.039572 0.797051 0.551606 -0.083844
C81   C     C_R   0.000097 0.274776 0.501408 0.016661
C82   C     C_R   0.500097 0.774783 0.501417 0.016720
C83   C     C_R   0.460951 0.342399 0.449540 -0.195278
C84   C     C_R   0.539420 0.342805 0.551006 -0.210699
C85   C     C_R   0.960940 0.842399 0.449595 -0.195298
C86   C     C_R   0.039432 0.842805 0.550941 -0.210707
C87   C     C_R   0.500073 0.365691 0.500110 -0.036476
C88   C     C_R   0.000073 0.865692 0.500107 -0.036477
C89   C     C_R   0.500483 0.274035 0.501237 0.220504
C90   C     C_R   0.000485 0.774037 0.501230 0.220542
C91   C     C_R   0.025160 0.703978 0.481316 0.347923
C92   C     C_R   0.975669 0.702420 0.522225 0.300246
C93   C     C_R   0.525212 0.203976 0.481430 0.347946
C94   C     C_R   0.475613 0.202416 0.522119 0.300271
C95   C     C_R   0.025973 0.657583 0.482562 0.352208
C96   C     C_R   0.973695 0.656593 0.517058 0.447570
C97   C     C_R   0.526021 0.157580 0.482671 0.352194
C98   C     C_R   0.473645 0.156589 0.516953 0.447547
C99   C     C_R   0.999601 0.634211 0.499156 -0.409031
C100  C     C_R   0.499600 0.134209 0.499155 -0.408987
C101  C     C_R   0.000677 0.726046 0.502451 -0.246624
C102  C     C_R   0.500675 0.226043 0.502456 -0.246615
C103  C     C_R   0.462904 0.703868 0.484819 -0.270223
C104  C     C_R   0.537493 0.704423 0.517912 -0.269696
C105  C     C_R   0.963046 0.203851 0.485449 -0.270269
C106  C     C_R   0.037353 0.204414 0.517260 -0.269751
C107  C     C_R   0.462045 0.657879 0.482520 0.463864
C108  C     C_R   0.538248 0.658397 0.519227 0.463274
C109  C     C_R   0.962182 0.157858 0.483166 0.463683
C110  C     C_R   0.038112 0.158384 0.518571 0.463067
C111  C     C_R   0.500110 0.634823 0.500582 -0.278638
C112  C     C_R   0.000111 0.134814 0.500579 -0.278183
C113  C     C_R   0.033929 0.297596 0.564695 -0.257699
C114  C     C_R   0.966166 0.297587 0.437879 -0.258554
C115  C     C_R   0.533759 0.797599 0.564903 -0.257781
C116  C     C_R   0.466336 0.797592 0.437684 -0.258636
C117  C     C_R   0.500206 0.726895 0.501544 0.030105
C118  C     C_R   0.000207 0.226884 0.501531 0.030203
C119  C     C_R   0.999965 0.366331 0.500798 -0.268956
C120  C     C_R   0.499965 0.866332 0.500799 -0.269247
C121  C     C_R   0.034334 0.343531 0.564459 0.464806
C122  C     C_R   0.965616 0.343497 0.437519 0.467434
C123  C     C_R   0.534169 0.843531 0.564668 0.464964
C124  C     C_R   0.465782 0.843499 0.437315 0.467589
C125  C     C_2   0.529811 0.473966 0.746278 -0.149808
C126  C     C_2   0.470077 0.525979 0.253600 -0.144895
C127  C     C_2   0.029811 0.973966 0.746278 -0.149843
C128  C     C_2   0.970077 0.025978 0.253600 -0.144738
C129  C     C_2   0.497636 0.493688 0.682500 -0.321635
C130  C     C_2   0.502354 0.506425 0.317488 -0.319654
C131  C     C_2   0.997636 0.993688 0.682500 -0.321519
C132  C     C_2   0.002354 0.006425 0.317488 -0.319573
C133  C     C_2   0.525977 0.470112 0.809382 -0.140308
C134  C     C_2   0.473871 0.529808 0.190442 -0.139591
C135  C     C_2   0.025977 0.970112 0.809382 -0.140345
C136  C     C_2   0.973871 0.029808 0.190442 -0.139580
H1    H     H_    0.558037 0.459282 0.751194 0.170937
H2    H     H_    0.441772 0.540516 0.248599 0.172422
H3    H     H_    0.058036 0.959281 0.751193 0.170930
H4    H     H_    0.941772 0.040515 0.248598 0.172491
H5    H     H_    0.139934 0.525383 0.545579 0.174623
H6    H     H_    0.859726 0.525168 0.453063 0.174785
H7    H     H_    0.639929 0.025300 0.545524 0.174708
H8    H     H_    0.359732 0.025070 0.453130 0.174889
H9    H     H_    0.139601 0.474516 0.731750 0.191800
H10   H     H_    0.860844 0.473860 0.269187 0.190118
H11   H     H_    0.639613 0.974627 0.731814 0.191682
H12   H     H_    0.360831 0.973996 0.269105 0.189996
H13   H     H_    0.059916 0.279788 0.614131 0.168692
H14   H     H_    0.940232 0.279785 0.388647 0.168208
H15   H     H_    0.559613 0.779791 0.614490 0.168690
H16   H     H_    0.440535 0.779792 0.388303 0.168205
H17   H     H_    0.430990 0.278695 0.410631 0.154941
H18   H     H_    0.569938 0.279524 0.591583 0.148341
H19   H     H_    0.930970 0.778694 0.410733 0.154919
H20   H     H_    0.069960 0.779525 0.591467 0.148325
H21   H     H_    0.430317 0.359498 0.409589 0.168256
H22   H     H_    0.569928 0.360188 0.590674 0.164749
H23   H     H_    0.930297 0.859497 0.409692 0.168265
H24   H     H_    0.069950 0.860188 0.590562 0.164769
H25   H     H_    0.434590 0.721697 0.474328 0.163918
H26   H     H_    0.565802 0.722720 0.528613 0.163987
H27   H     H_    0.934860 0.221681 0.475476 0.163841
H28   H     H_    0.065535 0.222718 0.527444 0.163910
H29   H     H_    0.467117 0.503771 0.674580 0.165567
H30   H     H_    0.532921 0.496488 0.325454 0.166155
H31   H     H_    0.967117 0.003772 0.674580 0.165571
H32   H     H_    0.032921 0.996489 0.325454 0.166117
H33   H     H_    0.540719 0.441926 0.847322 0.172703
H34   H     H_    0.458941 0.557881 0.152278 0.180049
H35   H     H_    0.040719 0.941926 0.847321 0.172700
H36   H     H_    0.958941 0.057880 0.152278 0.180075
H37   H     H_    0.496119 0.532751 0.788757 0.165738
H38   H     H_    0.504086 0.467330 0.211473 0.167140
H39   H     H_    0.996120 0.032751 0.788757 0.165802
H40   H     H_    0.004086 0.967330 0.211473 0.167124
H41   H     H_    0.220656 0.527051 0.626104 0.176045
H42   H     H_    0.778921 0.525849 0.371995 0.185018
H43   H     H_    0.720650 0.026979 0.626036 0.176071
H44   H     H_    0.278928 0.025767 0.372073 0.185047
O1    O     O_R   0.434530 0.536960 0.934530 -0.603973
O2    O     O_R   0.565470 0.536960 0.065470 -0.596709
O3    O     O_R   0.934530 0.036960 0.934530 -0.603943
O4    O     O_R   0.065470 0.036960 0.065470 -0.596674
O5    O     O_R   0.065470 0.500010 0.514410 -0.627402
O6    O     O_R   0.934530 0.500010 0.485590 -0.629123
O7    O     O_R   0.565470 0.000010 0.514410 -0.627308
O8    O     O_R   0.434530 0.000010 0.485590 -0.629030
O9    O     O_R   0.065460 0.500010 0.616540 -0.617021
O10   O     O_R   0.934540 0.500010 0.383460 -0.616878
O11   O     O_R   0.565460 0.000010 0.616540 -0.617073
O12   O     O_R   0.434540 0.000010 0.383460 -0.616931
O13   O     O_R   0.000010 0.565480 0.448930 -0.580882
O14   O     O_R   0.999990 0.565480 0.551070 -0.588544
O15   O     O_R   0.500010 0.065480 0.448930 -0.580947
O16   O     O_R   0.499990 0.065480 0.551070 -0.588598
O17   O     O_R   0.434530 0.463040 0.934530 -0.594687
O18   O     O_R   0.565470 0.463040 0.065470 -0.600829
O19   O     O_R   0.934530 0.963040 0.934530 -0.594688
O20   O     O_R   0.065470 0.963040 0.065470 -0.600834
O21   O     O_R   0.500010 0.536960 0.909550 -0.618294
O22   O     O_R   0.499990 0.536960 0.090450 -0.613254
O23   O     O_R   0.000010 0.036960 0.909550 -0.618272
O24   O     O_R   0.999990 0.036960 0.090450 -0.613238
O25   O     O_R   0.500010 0.463040 0.909550 -0.614284
O26   O     O_R   0.499990 0.463040 0.090450 -0.618414
O27   O     O_R   0.000010 0.963040 0.909550 -0.614293
O28   O     O_R   0.999990 0.963040 0.090450 -0.618430
O29   O     O_R   0.536960 0.434530 0.536970 -0.628273
O30   O     O_R   0.463040 0.434530 0.463030 -0.626089
O31   O     O_R   0.036960 0.934530 0.536970 -0.628314
O32   O     O_R   0.963040 0.934530 0.463030 -0.626118
O33   O     O_R   0.536950 0.500000 0.627420 -0.622955
O34   O     O_R   0.463050 0.500000 0.372580 -0.622896
O35   O     O_R   0.036950 0.000000 0.627420 -0.622927
O36   O     O_R   0.963050 0.000000 0.372580 -0.622908
O37   O     O_R   0.463030 0.500000 0.553490 -0.610822
O38   O     O_R   0.536970 0.500000 0.446510 -0.609287
O39   O     O_R   0.963030 0.000000 0.553490 -0.610793
O40   O     O_R   0.036970 0.000000 0.446510 -0.609258
O41   O     O_R   0.536960 0.565470 0.536960 -0.584198
O42   O     O_R   0.463040 0.565470 0.463040 -0.588162
O43   O     O_R   0.036960 0.065470 0.536960 -0.584569
O44   O     O_R   0.963040 0.065470 0.463040 -0.588566
O45   O     O_R   0.000000 0.434540 0.448940 -0.599650
O46   O     O_R   0.000000 0.434540 0.551060 -0.600040
O47   O     O_R   0.500000 0.934540 0.448940 -0.599229
O48   O     O_R   0.500000 0.934540 0.551060 -0.599639
Zn1   Zn    Zn3+2 0.500000 0.549350 0.000000 1.011546
Zn2   Zn    Zn3+2 0.000000 0.049350 0.000000 1.011637
Zn3   Zn    Zn3+2 0.500000 0.450640 0.000000 1.010272
Zn4   Zn    Zn3+2 0.000000 0.950640 0.000000 1.010272
Zn5   Zn    Zn3+2 0.549360 0.500000 0.549360 0.991824
Zn6   Zn    Zn3+2 0.450640 0.500000 0.450640 0.989697
Zn7   Zn    Zn3+2 0.049360 0.000000 0.549360 0.991683
Zn8   Zn    Zn3+2 0.950640 0.000000 0.450640 0.989524
Zn9   Zn    Zn3+2 0.000010 0.500010 0.431810 1.021049
Zn10  Zn    Zn3+2 0.999990 0.500010 0.568190 1.020385
Zn11  Zn    Zn3+2 0.500010 0.000010 0.431810 1.021210
Zn12  Zn    Zn3+2 0.499990 0.000010 0.568190 1.020544
O49   O     O_3   0.225886 0.471712 0.828041 -0.585365
C137  C     C_3   0.228942 0.425280 0.830780 -0.279700
H45   H     H_    0.245617 0.413287 0.804834 0.172543
H46   H     H_    0.195813 0.409687 0.803234 0.155492
H47   H     H_    0.249237 0.414617 0.890696 0.204765
O50   O     O_3   0.774530 0.470133 0.172555 -0.579378
C138  C     C_3   0.772814 0.423617 0.171250 -0.300557
H48   H     H_    0.757173 0.410522 0.198711 0.158107
H49   H     H_    0.806282 0.409225 0.198086 0.158515
H50   H     H_    0.752202 0.412776 0.111657 0.209009
O51   O     O_3   0.725891 0.971867 0.828109 -0.585348
C139  C     C_3   0.729068 0.925444 0.830996 -0.279625
H51   H     H_    0.745808 0.913481 0.805147 0.172566
H52   H     H_    0.695975 0.909770 0.803443 0.155120
H53   H     H_    0.749358 0.914844 0.890943 0.204741
O52   O     O_3   0.274522 0.970325 0.172462 -0.579332
C140  C     C_3   0.272705 0.923813 0.170987 -0.300559
H54   H     H_    0.257023 0.910716 0.198379 0.158136
H55   H     H_    0.306143 0.909356 0.197790 0.158139
H56   H     H_    0.252081 0.913048 0.111353 0.209003
O53   O     O_3   0.047782 0.728753 0.459908 -0.742245
H57   H     H_    0.061124 0.709054 0.442100 0.376532
O54   O     O_3   0.952527 0.722535 0.546349 -0.714164
H58   H     H_    0.962998 0.753241 0.561758 0.340510
O55   O     O_3   0.547888 0.228751 0.460130 -0.742253
H59   H     H_    0.561272 0.209052 0.442399 0.376530
O56   O     O_3   0.452416 0.222529 0.546136 -0.714168
H60   H     H_    0.462883 0.253234 0.561570 0.340511
O57   O     O_3   0.051504 0.635072 0.465491 -0.580673
C141  C     C_3   0.093619 0.627806 0.532936 -0.279805
H61   H     H_    0.114321 0.610322 0.519239 0.191099
H62   H     H_    0.091572 0.606487 0.572823 0.147547
H63   H     H_    0.110474 0.659503 0.560443 0.165848
O58   O     O_3   0.948192 0.633507 0.534249 -0.539043
C142  C     C_3   0.905822 0.627104 0.467051 -0.198694
H64   H     H_    0.885156 0.609042 0.480788 0.180289
H65   H     H_    0.907322 0.606675 0.426252 0.115206
H66   H     H_    0.889292 0.659171 0.440676 0.176861
O59   O     O_3   0.551600 0.135068 0.465703 -0.580719
C143  C     C_3   0.593683 0.127793 0.533214 -0.279871
H67   H     H_    0.614424 0.110309 0.519601 0.191119
H68   H     H_    0.591583 0.106470 0.573039 0.147582
H69   H     H_    0.610529 0.159486 0.560759 0.165857
O60   O     O_3   0.448096 0.133499 0.534040 -0.539099
C144  C     C_3   0.405756 0.127091 0.466776 -0.198749
H70   H     H_    0.385054 0.109023 0.480429 0.180318
H71   H     H_    0.407308 0.106666 0.426030 0.115238
H72   H     H_    0.389232 0.159157 0.440375 0.176887
O61   O     O_3   0.067412 0.366075 0.627492 -0.587368
C145  C     C_3   0.103585 0.371165 0.622770 -0.298909
H73   H     H_    0.130014 0.389586 0.672889 0.187600
H74   H     H_    0.094358 0.390729 0.572013 0.156768
H75   H     H_    0.117434 0.338609 0.623019 0.162049
O62   O     O_3   0.932410 0.366003 0.374227 -0.585369
C146  C     C_3   0.896432 0.370783 0.379388 -0.311400
H76   H     H_    0.869860 0.389105 0.329016 0.184783
H77   H     H_    0.905838 0.390301 0.429828 0.155880
H78   H     H_    0.882689 0.338112 0.380051 0.162569
O63   O     O_3   0.567090 0.866068 0.627879 -0.587005
C147  C     C_3   0.603454 0.871190 0.623687 -0.298406
H79   H     H_    0.629756 0.889612 0.673942 0.187462
H80   H     H_    0.594421 0.890768 0.573050 0.156408
H81   H     H_    0.617383 0.838645 0.624118 0.161926
O64   O     O_3   0.432733 0.866000 0.373840 -0.585010
C148  C     C_3   0.396557 0.870808 0.378457 -0.310832
H82   H     H_    0.370118 0.889141 0.327953 0.184741
H83   H     H_    0.405766 0.890329 0.428786 0.155477
H84   H     H_    0.382729 0.838147 0.378914 0.162425
O65   O     O_3   0.425673 0.635377 0.469780 -0.579945
C149  C     C_3   0.389923 0.640624 0.393477 -0.241941
H85   H     H_    0.362726 0.618413 0.381755 0.190564
H86   H     H_    0.399089 0.631134 0.354757 0.153787
H87   H     H_    0.377028 0.674959 0.381391 0.145862
O66   O     O_3   0.574533 0.636480 0.531408 -0.580293
C150  C     C_3   0.610404 0.641026 0.607699 -0.235895
H88   H     H_    0.637500 0.619152 0.618937 0.190867
H89   H     H_    0.601341 0.630625 0.646458 0.157239
H90   H     H_    0.623394 0.675393 0.620181 0.145339
O67   O     O_3   0.926002 0.135325 0.471148 -0.580210
C151  C     C_3   0.889884 0.140671 0.395137 -0.242024
H91   H     H_    0.862847 0.118375 0.383894 0.190565
H92   H     H_    0.898628 0.131361 0.355779 0.153850
H93   H     H_    0.876957 0.174984 0.383486 0.145938
O68   O     O_3   0.074208 0.136446 0.530045 -0.580543
C152  C     C_3   0.110440 0.141109 0.606046 -0.235999
H94   H     H_    0.137378 0.119154 0.616820 0.190873
H95   H     H_    0.101793 0.130889 0.645437 0.157217
H96   H     H_    0.123459 0.175463 0.618087 0.145422
O69   O     O_3   0.275861 0.559765 0.852391 -0.666599
H97   H     H_    0.245444 0.565216 0.807602 0.328067
O70   O     O_3   0.725092 0.559701 0.149110 -0.667267
H98   H     H_    0.755707 0.564364 0.193736 0.335707
O71   O     O_3   0.775870 0.059845 0.852302 -0.666543
H99   H     H_    0.745461 0.065303 0.807495 0.328059
O72   O     O_3   0.225080 0.059796 0.149208 -0.667196
H100  H     H_    0.255686 0.064469 0.193856 0.335690
O73   O     O_3   0.363131 0.551665 0.949528 -0.679941
H101  H     H_    0.391289 0.537297 0.988915 0.324444
O74   O     O_3   0.637689 0.553608 0.052674 -0.673331
H102  H     H_    0.609241 0.539957 0.012769 0.331842
O75   O     O_3   0.863136 0.051717 0.949475 -0.679891
H103  H     H_    0.891279 0.037335 0.988885 0.324445
O76   O     O_3   0.137680 0.053669 0.052733 -0.673266
H104  H     H_    0.109249 0.040001 0.012802 0.331856
O77   O     O_3   0.364752 0.449517 0.776724 -0.748778
H105  H     H_    0.393673 0.463257 0.795666 0.347067
O78   O     O_3   0.634992 0.446978 0.222005 -0.674733
H106  H     H_    0.606287 0.460660 0.203978 0.330301
O79   O     O_3   0.864747 0.949477 0.776769 -0.748752
H107  H     H_    0.893663 0.963218 0.795679 0.347078
O80   O     O_3   0.135000 0.946931 0.221950 -0.674711
H108  H     H_    0.106301 0.960610 0.203960 0.330317
O81   O     O_3   0.272399 0.446905 0.691641 -0.750805
H109  H     H_    0.292260 0.427047 0.688237 0.389056
O82   O     O_3   0.722559 0.440688 0.302609 -0.693641
H110  H     H_    0.753440 0.435712 0.320040 0.331461
O83   O     O_3   0.772394 0.946879 0.691685 -0.750766
H111  H     H_    0.792253 0.927000 0.688311 0.389066
O84   O     O_3   0.222569 0.940659 0.302544 -0.693625
H112  H     H_    0.253447 0.935689 0.319952 0.331496

loop_
_geom_bond_atom_site_label_1
_geom_bond_atom_site_label_2
_ccdc_geom_bond_type
O83   H111  S    
C55   C59   A    
C145  H75   S    
O45   Zn9   S    
O73   H101  S    
O71   H99   S    
C77   C89   A    
C23   O79   S    
O60   C144  S    
C70   O48   A    
C104  H26   S    
C86   C88   A    
C96   C99   A    
O58   C142  S    
C31   C59   S    
O78   H106  S    
C9    C13   A    
C79   C90   A    
C80   C86   A    
C11   C15   A    
C12   C16   A    
O68   C152  S    
C137  H46   S    
C3    C19   S    
C116  C124  A    
C71   O5    A    
C106  C118  A    
C28   O84   S    
C103  C117  A    
O10   Zn9   S    
O33   Zn5   S    
C41   C49   A    
C78   C89   A    
C25   C29   A    
C149  H86   S    
C103  H25   S    
C137  H47   S    
C115  C123  A    
C27   C31   A    
C151  H93   S    
C28   C32   A    
C1    O1    A    
C6    H38   S    
O66   C150  S    
C62   C88   S    
C69   C119  S    
C17   C21   A    
O37   Zn6   S    
C19   C23   A    
O8    Zn12  S    
C76   O15   A    
C10   C30   A    
O82   H110  S    
C83   H21   S    
C16   C20   A    
C48   O28   A    
C42   C72   S    
C21   O77   S    
C44   C74   S    
O3    Zn2   S    
O28   Zn4   S    
O30   Zn6   S    
C141  H62   S    
C105  C118  A    
C114  H14   S    
C12   O72   S    
C13   O73   S    
C79   C85   A    
C147  H79   S    
C104  C117  A    
C138  H50   S    
O42   Zn6   S    
O26   Zn3   S    
C123  O63   S    
C129  H29   S    
C76   C100  S    
C108  C111  A    
C63   O37   A    
C144  H71   S    
C9    O69   S    
C49   C53   A    
O31   Zn7   S    
C95   C99   A    
C61   O30   A    
C110  O68   S    
C127  C131  D    
C82   C116  A    
O72   H100  S    
C4    C20   S    
C125  C129  D    
C94   C102  A    
C115  H15   S    
O84   H112  S    
C34   C58   A    
C126  C130  D    
C103  C107  A    
O20   Zn4   S    
C27   O83   S    
C139  H51   S    
C43   C73   S    
O79   H107  S    
C152  H96   S    
C96   O58   S    
O80   H108  S    
C80   C90   A    
C69   O46   A    
C146  H77   S    
C5    C133  D    
C94   O56   S    
C21   C25   A    
O15   Zn11  S    
C53   O49   S    
C82   C115  A    
O48   Zn12  S    
O53   H57   S    
C92   C96   A    
C140  H54   S    
C68   C112  S    
C152  H95   S    
C61   C87   S    
C77   H17   S    
C52   C56   A    
O5    Zn9   S    
C70   C120  S    
C148  H83   S    
C81   C114  A    
C51   H11   S    
C51   C55   A    
C91   O53   S    
C147  H81   S    
C41   C71   S    
C44   C52   A    
C54   O50   S    
C131  H31   S    
C52   H12   S    
C68   O44   A    
C91   C101  A    
C72   O10   A    
O32   Zn8   S    
C119  C121  A    
C35   H43   S    
C33   H41   S    
C142  H66   S    
C143  H67   S    
C10   C14   A    
C65   O39   A    
C84   H22   S    
O18   Zn3   S    
C79   H19   S    
C63   O33   A    
C151  H92   S    
C75   C99   S    
O61   C145  S    
O14   Zn10  S    
C126  C134  S    
C42   C50   A    
C139  H53   S    
C64   C130  S    
C26   C30   A    
C135  H35   S    
O22   Zn1   S    
O25   Zn3   S    
C93   C97   A    
C97   C100  A    
C85   C88   A    
O11   Zn12  S    
C46   O26   A    
C105  C109  A    
O50   C138  S    
C150  H90   S    
C62   O32   A    
O41   Zn5   S    
C18   C22   A    
C107  C111  A    
C1    O17   A    
C24   C28   A    
O38   Zn5   S    
O23   Zn2   S    
O56   H60   S    
C8    H40   S    
C48   O24   A    
C1    C17   S    
C13   C17   A    
C140  H56   S    
C56   O52   S    
C97   O59   S    
C107  O65   S    
C108  O66   S    
C37   C41   A    
C110  C112  A    
C91   C95   A    
C75   O14   A    
C4    O20   A    
C113  C121  A    
C134  H34   S    
C3    O3    A    
C83   C87   A    
C8    C136  D    
O40   Zn7   S    
C142  H64   S    
C36   H44   S    
C143  H69   S    
O81   H109  S    
O51   C139  S    
C15   C19   A    
C50   C54   A    
C37   H5    S    
C109  O67   S    
C127  C135  S    
C128  C136  S    
C106  C110  A    
O62   C146  S    
C98   O60   S    
O27   Zn4   S    
C93   O55   S    
C94   C98   A    
C35   C59   A    
C145  H73   S    
C10   O70   S    
C133  H33   S    
C66   O40   A    
C76   O16   A    
C136  H36   S    
O59   C143  S    
C105  H27   S    
C122  O62   S    
C106  H28   S    
C120  C123  A    
C50   H10   S    
O17   Zn3   S    
C150  H88   S    
C34   C38   A    
O57   C141  S    
C141  H63   S    
O34   Zn6   S    
C5    H37   S    
O9    Zn10  S    
C73   O7    A    
C147  H80   S    
C74   O8    A    
C138  H49   S    
C70   O47   A    
C146  H76   S    
C53   C57   A    
C78   H18   S    
C125  H1    S    
O65   C149  S    
C5    C45   S    
C81   C118  S    
C33   C37   A    
C56   C60   A    
C7    C47   S    
C35   C39   A    
O19   Zn4   S    
C8    C48   S    
C144  H70   S    
C130  H30   S    
O74   H102  S    
O47   Zn11  S    
C137  H45   S    
C47   O23   A    
C61   O29   A    
C71   O9    A    
C72   O6    A    
C92   C101  A    
C67   C111  S    
C29   C57   S    
C98   C100  A    
O36   Zn8   S    
C34   H42   S    
C32   C60   S    
C104  C108  A    
C139  H52   S    
C25   O81   S    
C149  H85   S    
C45   O25   A    
C11   O71   S    
C69   O45   A    
C93   C102  A    
C16   O76   S    
O7    Zn11  S    
C22   O78   S    
C65   O35   A    
C64   O38   A    
C26   O82   S    
C15   O75   S    
O44   Zn8   S    
O4    Zn2   S    
C43   C51   A    
C14   O74   S    
C63   C129  S    
C128  H4    S    
C152  H94   S    
C92   O54   S    
O67   C151  S    
C46   O22   A    
C148  H82   S    
C22   C26   A    
C81   C113  A    
C141  H61   S    
C85   H23   S    
C82   C117  S    
C86   H24   S    
C149  H87   S    
O76   H104  S    
O46   Zn10  S    
C89   C102  S    
C2    C18   S    
O69   H97   S    
C14   C18   A    
C84   C87   A    
O70   H98   S    
O75   H103  S    
C64   O34   A    
C142  H65   S    
C143  H68   S    
O49   C137  S    
C144  H72   S    
C77   C83   A    
C67   O41   A    
C2    O2    A    
O6    Zn10  S    
C20   C24   A    
O1    Zn1   S    
C7    H39   S    
C3    O19   A    
C62   O31   A    
C23   C27   A    
O55   H59   S    
C9    C29   A    
C11   C31   A    
C12   C32   A    
C66   O36   A    
C38   H6    S    
C127  H3    S    
C128  C132  D    
C65   C131  S    
C95   O57   S    
C146  H78   S    
C66   C132  S    
C150  H89   S    
C49   H9    S    
C113  H13   S    
C36   C40   A    
O35   Zn7   S    
C109  C112  A    
O63   C147  S    
O12   Zn11  S    
C39   C43   A    
C140  H55   S    
C67   O42   A    
C90   C101  S    
C7    C135  D    
C124  O64   S    
O2    Zn1   S    
C40   C44   A    
C148  H84   S    
O52   C140  S    
C4    O4    A    
O13   Zn9   S    
C73   O11   A    
O43   Zn7   S    
C74   O12   A    
C75   O13   A    
C45   O21   A    
O64   C148  S    
C39   H7    S    
C40   H8    S    
C55   O51   S    
C68   O43   A    
C116  H16   S    
C80   H20   S    
C54   C58   A    
C119  C122  A    
C125  C133  S    
C126  H2    S    
C33   C57   A    
C6    C46   S    
C2    O18   A    
O39   Zn8   S    
C132  H32   S    
C36   C60   A    
C138  H48   S    
C47   O27   A    
C121  O61   S    
C151  H91   S    
O54   H58   S    
C6    C134  D    
C30   C58   S    
O21   Zn1   S    
C145  H74   S    
O24   Zn2   S    
O29   Zn5   S    
C114  C122  A    
C38   C42   A    
C78   C84   A    
O16   Zn12  S    
C24   O80   S    
O77   H105  S    
C120  C124  A    
