data_mof_unit_29734.cif
_audit_creation_date              2012-12-10T17:56:16-0500
_audit_creation_method            fapswitch 2.2
_symmetry_space_group_name_H-M    P1
_symmetry_Int_Tables_number       1
_space_group_crystal_system       triclinic
_cell_length_a                    13.059198
_cell_length_b                    10.893504
_cell_length_c                    9.6552
_cell_angle_alpha                 90.279021
_cell_angle_beta                  97.407777
_cell_angle_gamma                 95.301978
_cell_volume                      1356.06511491

loop_
_atom_site_label
_atom_site_type_symbol
_atom_type_description
_atom_site_fract_x
_atom_site_fract_y
_atom_site_fract_z
_atom_type_partial_charge
C1    C     C_R   0.507077 0.263278 0.500916 0.827167
C2    C     C_R   0.699199 0.495284 0.527658 0.834820
C3    C     C_R   0.812665 0.487290 0.545956 -0.169322
C4    C     C_R   0.187335 0.512709 0.454041 -0.169315
C5    C     C_R   0.018088 0.479641 0.313263 0.325055
C6    C     C_R   0.981912 0.520356 0.686731 0.325081
C7    C     C_R   0.126996 0.482738 0.324404 0.270426
C8    C     C_R   0.873006 0.517262 0.675591 0.270430
C9    C     C_R   0.138221 0.547649 0.568356 0.069114
C10   C     C_R   0.861779 0.452349 0.431639 0.069106
C11   C     C_R   0.030255 0.518179 0.564359 -0.046105
C12   C     C_R   0.492922 0.736722 0.499084 0.827160
C13   C     C_R   0.969746 0.481817 0.435636 -0.046100
C14   C     C_R   0.510026 0.062460 0.374849 0.352401
C15   C     C_R   0.489975 0.937539 0.625151 0.352392
C16   C     C_R   0.486996 0.935645 0.371596 0.358992
C17   C     C_R   0.512994 0.064356 0.628402 0.358971
C18   C     C_3   0.802041 0.368801 0.316542 -0.637486
C19   C     C_3   0.197957 0.631203 0.683451 -0.637517
C20   C     C_3   0.359932 0.321703 0.121259 -0.664311
C21   C     C_3   0.640082 0.678283 0.878747 -0.664309
C22   C     C_3   0.354010 0.327020 0.827902 -0.715627
C23   C     C_R   0.484997 0.870670 0.497988 -0.425654
C24   C     C_3   0.645988 0.672983 0.172098 -0.715633
C25   C     C_R   0.514999 0.129330 0.502012 -0.425635
C26   C     C_R   0.433223 0.417975 0.062154 0.236958
C27   C     C_R   0.566777 0.582025 0.937847 0.236960
C28   C     C_R   0.432751 0.418349 0.913642 0.239265
C29   C     C_R   0.567248 0.581651 0.086358 0.239265
C30   C     C_R   0.300801 0.504716 0.472342 0.834814
Cu1   Cu    Cu3+1 0.500000 0.500020 0.640660 0.954346
Cu2   Cu    Cu3+1 0.500000 0.499980 0.359340 0.954338
H1    H     H_    0.739001 0.309868 0.357059 0.175500
H2    H     H_    0.000297 0.473740 0.881173 0.335863
H3    H     H_    0.588161 0.177429 0.269722 0.330494
H4    H     H_    0.411849 0.822574 0.730288 0.330490
H5    H     H_    0.405772 0.818982 0.242612 0.339172
H6    H     H_    0.594210 0.181003 0.757406 0.339186
H7    H     H_    0.279561 0.326051 0.070168 0.205482
H8    H     H_    0.383446 0.228431 0.102856 0.243369
H9    H     H_    0.354410 0.329964 0.231900 0.283543
H10   H     H_    0.720451 0.673881 0.929811 0.205512
H11   H     H_    0.645581 0.670047 0.768100 0.283542
H12   H     H_    0.768753 0.424100 0.228490 0.268236
H13   H     H_    0.616610 0.771564 0.897190 0.243325
H14   H     H_    0.355670 0.323633 0.716184 0.275328
H15   H     H_    0.364887 0.231623 0.862547 0.238496
H16   H     H_    0.274292 0.348746 0.840230 0.195861
H17   H     H_    0.644331 0.676365 0.283819 0.275327
H18   H     H_    0.725709 0.651264 0.159761 0.195855
H19   H     H_    0.635103 0.768383 0.137457 0.238496
H20   H     H_    0.852613 0.303285 0.277849 0.235862
H21   H     H_    0.261001 0.690125 0.642940 0.175509
H22   H     H_    0.147388 0.696729 0.722130 0.235844
H23   H     H_    0.231235 0.575911 0.771510 0.268245
H24   H     H_    0.874074 0.592962 0.858769 0.331633
H25   H     H_    0.125934 0.407071 0.141214 0.331677
H26   H     H_    0.999692 0.526275 0.118837 0.335870
N1    N     N_R   0.500030 0.500030 0.852080 -0.194110
N2    N     N_R   0.499970 0.499970 0.147920 -0.194112
O1    O     O_R   0.499990 0.319660 0.618740 -0.570890
O2    O     O_3   0.175306 0.457993 0.209776 -0.724912
O3    O     O_3   0.958429 0.480426 0.184326 -0.751067
O4    O     O_3   0.041571 0.519573 0.815669 -0.751040
O5    O     O_3   0.525875 0.117780 0.250453 -0.657825
O6    O     O_3   0.474145 0.882213 0.749552 -0.657788
O7    O     O_3   0.468154 0.878184 0.242120 -0.647612
O8    O     O_3   0.531817 0.121821 0.757874 -0.647636
O9    O     O_R   0.500010 0.680340 0.381260 -0.570902
O10   O     O_R   0.499990 0.319630 0.381170 -0.582077
O11   O     O_R   0.500010 0.680370 0.618830 -0.582064
O12   O     O_R   0.349000 0.499990 0.599490 -0.606618
O13   O     O_R   0.651000 0.500010 0.400510 -0.606624
O14   O     O_R   0.348990 0.499960 0.361920 -0.533796
O15   O     O_R   0.651010 0.500040 0.638080 -0.533791
O16   O     O_3   0.824698 0.542012 0.790217 -0.724899

loop_
_geom_bond_atom_site_label_1
_geom_bond_atom_site_label_2
_ccdc_geom_bond_type
C22   H16   S    
C12   O9    A    
H24   O16   S    
C27   C29   A    
Cu1   O1    S    
C20   H9    S    
C18   H20   S    
H25   O2    S    
C12   C23   S    
Cu2   O14   S    
C30   O14   A    
H4    O6    S    
H3    O5    S    
C6    O4    S    
C8    O16   S    
C5    O3    S    
Cu1   N1    S    
C24   C29   S    
C21   H11   S    
C9    C19   S    
C5    C13   A    
C19   H21   S    
C24   H19   S    
C15   C23   A    
C22   H15   S    
C21   C27   S    
C22   C28   S    
C1    C25   S    
C4    C7    A    
C21   H13   S    
C24   H18   S    
C3    C8    A    
Cu2   O13   S    
C5    C7    A    
C20   H7    S    
Cu2   O10   S    
C15   O6    S    
C7    O2    S    
C18   H12   S    
Cu1   O15   S    
Cu1   Cu2   S    
C29   N2    A    
H2    O4    S    
C16   O7    S    
C9    C11   A    
C2    O13   A    
C19   H22   S    
Cu1   O12   S    
C22   H14   S    
C12   O11   A    
H6    O8    S    
C16   C23   A    
C14   C16   A    
Cu2   N2    S    
C6    C11   A    
C28   N1    A    
C19   H23   S    
C24   H17   S    
C15   C17   A    
C17   O8    S    
H26   O3    S    
C30   O12   A    
C10   C13   A    
C1    O1    A    
C6    C8    A    
Cu2   O9    S    
C26   C28   A    
C1    O10   A    
C17   C25   A    
C2    C3    S    
C3    C10   A    
C27   N1    A    
C11   C13   A    
C20   C26   S    
C10   C18   S    
C20   H8    S    
H5    O7    S    
Cu1   O11   S    
C14   O5    S    
C14   C25   A    
C18   H1    S    
C21   H10   S    
C4    C9    A    
C26   N2    A    
C4    C30   S    
C2    O15   A    
