data_mof_unit_63279.cif
_audit_creation_date              2012-12-10T18:24:06-0500
_audit_creation_method            fapswitch 2.2
_symmetry_space_group_name_H-M    P1
_symmetry_Int_Tables_number       1
_space_group_crystal_system       triclinic
_cell_length_a                    16.107927
_cell_length_b                    16.084285
_cell_length_c                    16.13596
_cell_angle_alpha                 95.900886
_cell_angle_beta                  84.32931
_cell_angle_gamma                 90.094468
_cell_volume                      4137.92178798

loop_
_atom_site_label
_atom_site_type_symbol
_atom_type_description
_atom_site_fract_x
_atom_site_fract_y
_atom_site_fract_z
_atom_type_partial_charge
C1    C     C_R   0.510653 0.724313 0.510759 0.514989
C2    C     C_1   0.485081 0.186292 0.484997 0.026864
C3    C     C_1   0.515332 0.483261 0.185297 0.057061
C4    C     C_R   0.489318 0.275732 0.489279 0.505824
C5    C     C_2   0.523717 0.474249 0.019725 0.026177
C6    C     C_2   0.476573 0.525742 0.980275 0.026536
C7    C     C_1   0.481236 0.520640 0.889950 -0.016716
C8    C     C_1   0.519002 0.479317 0.110053 -0.016175
C9    C     C_1   0.484833 0.516694 0.814712 0.058054
C10   C     C_R   0.510821 0.488122 0.274755 0.519367
C11   C     C_R   0.489228 0.511868 0.725265 0.517968
C12   C     C_1   0.111540 0.522858 0.522944 -0.086071
C13   C     C_R   0.724207 0.488016 0.488030 0.514396
C14   C     C_R   0.275782 0.511948 0.511908 0.516867
C15   C     C_1   0.813437 0.484369 0.484338 0.064467
C16   C     C_2   0.978225 0.479976 0.479841 -0.090079
C17   C     C_2   0.021818 0.530932 0.531128 0.016778
C18   C     C_2   0.984008 0.595687 0.596371 0.261763
C19   C     C_2   0.417240 0.590527 0.024653 0.229683
C20   C     C_2   0.583067 0.409482 0.975340 0.230204
C21   C     C_1   0.888430 0.482082 0.482006 0.029784
C22   C     C_1   0.186535 0.517200 0.517213 0.016742
C23   C     C_1   0.514890 0.813758 0.515144 0.029723
C24   C     C_2   0.522822 0.978750 0.523312 -0.113056
C25   C     C_2   0.477132 0.021306 0.476918 -0.115482
C26   C     C_1   0.481496 0.111136 0.481360 -0.033095
C27   C     C_1   0.518471 0.888916 0.518837 -0.030729
H1    H     H_    0.011227 0.434381 0.433904 0.115487
H2    H     H_    0.436013 0.988843 0.435138 0.144194
H3    H     H_    0.563945 0.011210 0.565089 0.147106
H4    H     H_    0.024433 0.633697 0.634605 0.114270
H5    H     H_    0.382325 0.628561 0.988084 0.113600
H6    H     H_    0.617881 0.371351 0.011904 0.109662
O1    O     O_3   0.500000 0.500000 0.500000 -0.449545
O2    O     O_R   0.689040 0.536050 0.444000 -0.534306
O3    O     O_R   0.315570 0.560650 0.560630 -0.536164
O4    O     O_R   0.679800 0.444450 0.536560 -0.527902
O5    O     O_R   0.315590 0.458850 0.458810 -0.529335
O6    O     O_2   0.908791 0.607729 0.608579 -0.487570
O7    O     O_2   0.406131 0.602775 0.100856 -0.491419
O8    O     O_2   0.594320 0.397377 0.899135 -0.479521
O9    O     O_R   0.458170 0.444480 0.314880 -0.532459
O10   O     O_R   0.445130 0.560630 0.690220 -0.546745
O11   O     O_R   0.559450 0.679320 0.457680 -0.525926
O12   O     O_R   0.537250 0.315570 0.537220 -0.531996
O13   O     O_R   0.458120 0.689530 0.559970 -0.533802
O14   O     O_R   0.445170 0.315580 0.445130 -0.536818
O15   O     O_R   0.559480 0.536070 0.314410 -0.533048
O16   O     O_R   0.537220 0.458810 0.680490 -0.506425
Zn1   Zn    Zn3+2 0.430930 0.430930 0.430910 0.962147
Zn2   Zn    Zn3+2 0.575680 0.561790 0.430230 0.972266
Zn3   Zn    Zn3+2 0.562480 0.430910 0.562480 0.982283
Zn4   Zn    Zn3+2 0.430910 0.576380 0.576380 0.960121

loop_
_geom_bond_atom_site_label_1
_geom_bond_atom_site_label_2
_ccdc_geom_bond_type
C12   C17   S    
C16   H1    S    
C5    C8    S    
C2    C4    S    
C18   O6    D    
C11   O10   A    
C16   C21   S    
C11   O16   A    
C23   C27   T    
C10   O9    A    
C1    O11   A    
C13   O4    A    
C24   C27   S    
O16   Zn3   S    
C14   C22   S    
C17   C18   S    
O2    Zn2   S    
C2    C26   T    
C3    C10   S    
C14   O3    A    
C6    C19   S    
C9    C11   S    
C25   H2    S    
O1    Zn2   S    
C6    C7    S    
O9    Zn1   S    
C20   O8    D    
C20   H6    S    
O11   Zn2   S    
C18   H4    S    
C1    C23   S    
O14   Zn1   S    
C4    O12   A    
C13   C15   S    
C10   O15   A    
C5    C6    D    
O15   Zn2   S    
C24   H3    S    
C1    O13   A    
O1    Zn1   S    
C14   O5    A    
O5    Zn1   S    
C19   H5    S    
C12   C22   T    
C15   C21   T    
C24   C25   D    
O13   Zn4   S    
O1    Zn4   S    
C7    C9    T    
C3    C8    T    
C19   O7    D    
C5    C20   S    
O4    Zn3   S    
O3    Zn4   S    
O12   Zn3   S    
C25   C26   S    
O1    Zn3   S    
O10   Zn4   S    
C13   O2    A    
C16   C17   D    
C4    O14   A    
