data_mof_unit_35303.cif
_audit_creation_date              2012-12-11T17:07:52-0500
_audit_creation_method            fapswitch 2.2
_symmetry_space_group_name_H-M    P1
_symmetry_Int_Tables_number       1
_space_group_crystal_system       triclinic
_cell_length_a                    17.307825
_cell_length_b                    17.245889
_cell_length_c                    17.457691
_cell_angle_alpha                 90.397692
_cell_angle_beta                  89.992938
_cell_angle_gamma                 89.473985
_cell_volume                      5210.58052837

loop_
_atom_site_label
_atom_site_type_symbol
_atom_type_description
_atom_site_fract_x
_atom_site_fract_y
_atom_site_fract_z
_atom_type_partial_charge
C1    C     C_R   0.419988 0.329067 0.856380 0.541857
C2    C     C_R   0.171277 0.917496 0.356888 0.541999
C3    C     C_R   0.696173 0.801586 0.307428 -0.229732
C4    C     C_R   0.196704 0.259149 0.735647 -0.180206
C5    C     C_R   0.243085 0.862982 0.785889 -0.191806
C6    C     C_R   0.783181 0.795524 0.741474 -0.147125
C7    C     C_R   0.755830 0.136780 0.785938 -0.195905
C8    C     C_R   0.712491 0.180347 0.837535 -0.203239
C9    C     C_R   0.747081 0.753619 0.797867 -0.292051
C10   C     C_R   0.287548 0.818187 0.834908 -0.211900
C11   C     C_R   0.242253 0.303215 0.783338 -0.243346
C12   C     C_R   0.648551 0.756356 0.262041 -0.214579
C13   C     C_R   0.107889 0.197085 0.397347 0.531116
C14   C     C_R   0.783457 0.210694 0.130349 -0.275822
C15   C     C_R   0.335587 0.236484 0.242545 -0.233691
C16   C     C_R   0.180929 0.713296 0.163115 -0.209865
C17   C     C_3   0.422280 0.204067 0.896776 0.227817
C18   C     C_3   0.443057 0.121798 0.871757 -0.902182
C19   C     C_3   0.800244 0.452838 0.952102 0.216351
C20   C     C_3   0.874011 0.496633 0.933596 -0.930527
C21   C     C_3   0.579023 0.813573 0.844284 0.235629
C22   C     C_3   0.518413 0.878015 0.841450 -0.942898
C23   C     C_3   0.202067 0.541412 0.951238 0.217298
C24   C     C_R   0.823277 0.085578 0.361574 0.547868
C25   C     C_3   0.132639 0.491996 0.930123 -0.928909
C26   C     C_3   0.460278 0.797860 0.049090 0.217930
C27   C     C_3   0.511777 0.865499 0.071316 -0.921930
C28   C     C_3   0.797260 0.600615 0.125646 0.215024
C29   C     C_3   0.877978 0.570608 0.144363 -0.905894
C30   C     C_3   0.615432 0.165653 0.083918 0.247584
C31   C     C_3   0.565548 0.096140 0.064379 -0.932554
C32   C     C_3   0.200750 0.405501 0.129762 0.208241
C33   C     C_3   0.122594 0.441869 0.148768 -0.897021
C34   C     C_3   0.962650 0.702418 0.449878 0.211418
C35   C     C_R   0.916142 0.172237 0.642780 0.537706
C36   C     C_3   0.015964 0.634834 0.428276 -0.934106
C37   C     C_3   0.301082 0.910222 0.370039 0.205900
C38   C     C_3   0.376932 0.948472 0.348857 -0.897382
C39   C     C_3   0.039318 0.297983 0.451114 0.205371
C40   C     C_3   0.987868 0.367426 0.431820 -0.929435
C41   C     C_3   0.707929 0.073120 0.423851 0.234759
C42   C     C_3   0.622184 0.059360 0.411105 -0.916756
C43   C     C_3   0.908712 0.302520 0.631138 0.203019
C44   C     C_3   0.946742 0.378597 0.653409 -0.885263
C45   C     C_3   0.298385 0.040789 0.550963 0.195831
C46   C     C_R   0.196648 0.108645 0.602795 0.531629
C47   C     C_3   0.370063 0.993531 0.571565 -0.916211
C48   C     C_3   0.088787 0.698001 0.630000 0.204283
C49   C     C_3   0.049156 0.622415 0.650070 -0.884229
C50   C     C_3   0.673584 0.889661 0.556668 0.246885
C51   C     C_3   0.608149 0.869282 0.611085 -0.913367
C52   C     C_R   0.082646 0.828381 0.642666 0.537696
C53   C     C_R   0.802061 0.892025 0.596520 0.550403
C54   C     C_3   0.927751 0.223218 0.848768 -0.464863
C55   C     C_3   0.693663 0.670578 0.587318 -0.533020
C56   C     C_3   0.072679 0.773167 0.848602 -0.463383
C57   C     C_R   0.697331 0.390332 0.898678 0.522723
C58   C     C_3   0.362521 0.234594 0.597195 -0.502191
C59   C     C_3   0.803468 0.617473 0.378843 -0.478878
C60   C     C_3   0.737837 0.284552 0.346362 -0.523454
C61   C     C_3   0.213089 0.377874 0.393050 -0.518908
C62   C     C_3   0.227179 0.928501 0.150171 -0.468599
C63   C     C_3   0.276373 0.879915 0.097209 -0.527336
C64   C     C_3   0.266258 0.426355 0.342177 -0.484238
C65   C     C_3   0.693542 0.332349 0.288074 -0.475281
C66   C     C_3   0.746430 0.567631 0.333867 -0.536819
C67   C     C_3   0.411472 0.285757 0.648753 -0.473184
C68   C     C_R   0.591781 0.682805 0.868386 0.529634
C69   C     C_3   0.120574 0.725005 0.902418 -0.531975
C70   C     C_3   0.651498 0.627026 0.649705 -0.471374
C71   C     C_3   0.881054 0.269183 0.905873 -0.543140
C72   C     C_R   0.393386 0.697673 0.898250 -0.171356
C73   C     C_R   0.333391 0.424584 0.854951 -0.265874
C74   C     C_R   0.606758 0.301183 0.900859 -0.154865
C75   C     C_R   0.681423 0.588139 0.866917 -0.230402
C76   C     C_R   0.426299 0.332847 0.144343 -0.233214
C77   C     C_R   0.302435 0.606098 0.102578 -0.204845
C78   C     C_R   0.572743 0.664672 0.146346 -0.259380
C79   C     C_R   0.302420 0.609453 0.898755 0.511371
C80   C     C_R   0.697576 0.392832 0.098969 -0.205620
C81   C     C_R   0.918799 0.171710 0.358232 -0.255769
C82   C     C_R   0.803111 0.894832 0.396998 -0.232892
C83   C     C_R   0.077432 0.830837 0.355433 -0.254512
C84   C     C_R   0.196743 0.104852 0.397091 -0.218659
C85   C     C_R   0.893200 0.802163 0.598443 -0.206880
C86   C     C_R   0.828701 0.078452 0.642666 -0.237490
C87   C     C_R   0.104220 0.197166 0.604243 -0.230762
C88   C     C_R   0.170171 0.921631 0.643518 -0.253437
C89   C     C_R   0.363587 0.364462 0.812567 -0.079594
C90   C     C_R   0.390112 0.698001 0.100834 0.498644
C91   C     C_R   0.683741 0.312596 0.885299 -0.098363
C92   C     C_R   0.656741 0.653892 0.831228 -0.094042
C93   C     C_R   0.316512 0.686200 0.882987 -0.084456
C94   C     C_R   0.313540 0.683569 0.117028 -0.064871
C95   C     C_R   0.632143 0.635299 0.189813 -0.079608
C96   C     C_R   0.686248 0.315449 0.109607 -0.160099
C97   C     C_R   0.366427 0.361835 0.187303 -0.093426
C98   C     C_R   0.815731 0.818042 0.379787 -0.062132
C99   C     C_R   0.136639 0.860684 0.312108 -0.085061
C100  C     C_R   0.183458 0.180706 0.379443 -0.080804
C101  C     C_R   0.669649 0.580095 0.144224 0.541134
C102  C     C_R   0.856426 0.143345 0.318863 -0.084972
C103  C     C_R   0.858040 0.138302 0.686225 -0.094167
C104  C     C_R   0.179822 0.183927 0.620971 -0.099207
C105  C     C_R   0.140340 0.862286 0.686745 -0.084844
C106  C     C_R   0.816294 0.814704 0.609970 -0.150765
C107  C     C_R   0.816489 0.272367 0.848585 0.246651
C108  C     C_R   0.710811 0.657472 0.703503 0.186049
C109  C     C_R   0.184157 0.725609 0.844183 0.249390
C110  C     C_R   0.337624 0.314712 0.682714 0.152169
C111  C     C_R   0.707084 0.641829 0.313142 0.190987
C112  C     C_R   0.608121 0.301183 0.096867 0.533699
C113  C     C_R   0.750002 0.302377 0.230317 0.199590
C114  C     C_R   0.292774 0.351131 0.308839 0.182890
C115  C     C_R   0.273948 0.816561 0.155397 0.246034
C116  C     C_R   0.228036 0.861860 0.204113 0.189716
C117  C     C_R   0.246220 0.308066 0.353628 0.179854
C118  C     C_R   0.790187 0.260005 0.282302 0.126109
C119  C     C_R   0.756219 0.686254 0.355440 0.176627
C120  C     C_R   0.292959 0.269193 0.635604 0.119393
C121  C     C_R   0.139528 0.770850 0.794776 0.183038
C122  C     C_R   0.749070 0.697326 0.647657 0.119805
C123  C     C_R   0.330011 0.418790 0.143902 0.543632
C124  C     C_R   0.859961 0.228286 0.796502 0.194805
C125  C     C_R   0.739661 0.252419 0.863223 0.022467
C126  C     C_R   0.702401 0.690385 0.775906 0.055281
C127  C     C_R   0.260935 0.745648 0.858914 0.028063
C128  C     C_R   0.315738 0.325864 0.758637 0.107789
C129  C     C_R   0.659586 0.675255 0.257887 0.052763
C130  C     C_R   0.738712 0.273654 0.156751 0.049440
C131  C     C_R   0.334333 0.318045 0.248957 0.048500
C132  C     C_R   0.253950 0.739521 0.140385 0.025112
C133  C     C_R   0.162608 0.830332 0.238052 0.037971
C134  C     C_R   0.891641 0.802389 0.397704 0.522109
C135  C     C_R   0.239846 0.228269 0.342912 0.062898
C136  C     C_R   0.819311 0.187588 0.261579 0.107989
C137  C     C_R   0.756363 0.767222 0.349771 0.050526
C138  C     C_R   0.225388 0.236365 0.664099 0.112003
C139  C     C_R   0.171403 0.835711 0.759954 0.038270
C140  C     C_R   0.776939 0.770889 0.665020 0.098819
C141  C     C_R   0.827017 0.164650 0.759718 0.037187
C142  C     C_R   0.135404 0.758525 0.211466 -0.194931
C143  C     C_R   0.289104 0.192163 0.289220 -0.217543
C144  C     C_R   0.822956 0.165714 0.184140 -0.169150
H1    H     H_    0.940751 0.163000 0.867601 0.192402
H2    H     H_    0.312849 0.456142 0.374431 0.191645
H3    H     H_    0.202751 0.346624 0.155596 0.119762
H4    H     H_    0.205913 0.399880 0.066397 0.091385
H5    H     H_    0.118710 0.501281 0.124842 0.241922
H6    H     H_    0.075726 0.406134 0.123816 0.218695
H7    H     H_    0.114740 0.445103 0.211860 0.262358
H8    H     H_    0.916822 0.680166 0.488196 0.103103
H9    H     H_    0.997815 0.745991 0.480613 0.115684
H10   H     H_    0.064767 0.655657 0.392889 0.254454
H11   H     H_    0.039563 0.607402 0.480646 0.224002
H12   H     H_    0.984154 0.590027 0.395494 0.258893
H13   H     H_    0.698848 0.395891 0.297303 0.201388
H14   H     H_    0.301734 0.850322 0.345667 0.103944
H15   H     H_    0.297304 0.906417 0.433485 0.092652
H16   H     H_    0.379042 0.008076 0.373203 0.243931
H17   H     H_    0.426132 0.914132 0.371996 0.218007
H18   H     H_    0.382496 0.951498 0.285550 0.263240
H19   H     H_    0.086653 0.318320 0.489067 0.100802
H20   H     H_    0.003303 0.255426 0.481825 0.114245
H21   H     H_    0.936359 0.348236 0.399156 0.249686
H22   H     H_    0.968163 0.396637 0.485234 0.222589
H23   H     H_    0.019845 0.410104 0.397029 0.261319
H24   H     H_    0.709837 0.531273 0.371351 0.192143
H25   H     H_    0.715124 0.133348 0.445787 0.084128
H26   H     H_    0.729264 0.033106 0.468867 0.118265
H27   H     H_    0.612879 0.999453 0.389446 0.248060
H28   H     H_    0.590371 0.067252 0.465898 0.219707
H29   H     H_    0.599193 0.101276 0.368592 0.263948
H30   H     H_    0.849114 0.302952 0.655319 0.103858
H31   H     H_    0.904716 0.299013 0.567625 0.092598
H32   H     H_    0.006112 0.380898 0.629453 0.243003
H33   H     H_    0.912444 0.428042 0.630624 0.215412
H34   H     H_    0.949793 0.383893 0.716796 0.264657
H35   H     H_    0.442335 0.331808 0.617097 0.188954
H36   H     H_    0.316368 0.088152 0.512184 0.100596
H37   H     H_    0.257340 0.001839 0.521205 0.114781
H38   H     H_    0.397997 0.970571 0.518787 0.221792
H39   H     H_    0.412153 0.030434 0.602610 0.261516
H40   H     H_    0.354000 0.944084 0.608553 0.253199
H41   H     H_    0.147866 0.696532 0.655301 0.103983
H42   H     H_    0.094342 0.701745 0.566699 0.092063
H43   H     H_    0.990503 0.620817 0.624377 0.240803
H44   H     H_    0.083498 0.572553 0.627553 0.215984
H45   H     H_    0.044196 0.617125 0.713263 0.265114
H46   H     H_    0.096231 0.666415 0.910713 0.216146
H47   H     H_    0.694546 0.837284 0.525087 0.071082
H48   H     H_    0.649051 0.928468 0.512418 0.121025
H49   H     H_    0.584937 0.922698 0.638970 0.264543
H50   H     H_    0.560894 0.840819 0.578703 0.216351
H51   H     H_    0.629026 0.829117 0.655892 0.256919
H52   H     H_    0.655434 0.562972 0.643014 0.194734
H53   H     H_    0.906594 0.326705 0.917642 0.213755
H54   H     H_    0.978208 0.255278 0.826118 0.213895
H55   H     H_    0.721635 0.631260 0.544900 0.194355
H56   H     H_    0.021954 0.741828 0.825149 0.219650
H57   H     H_    0.658092 0.717566 0.562080 0.207206
H58   H     H_    0.365993 0.250303 0.535643 0.187880
H59   H     H_    0.802748 0.606965 0.441420 0.179535
H60   H     H_    0.768080 0.320356 0.390026 0.193200
H61   H     H_    0.228120 0.380145 0.454927 0.187425
H62   H     H_    0.257931 0.979547 0.174105 0.213703
H63   H     H_    0.246914 0.864210 0.042678 0.194247
H64   H     H_    0.233844 0.463173 0.301172 0.244322
H65   H     H_    0.633814 0.311479 0.277630 0.194221
H66   H     H_    0.774807 0.535854 0.286346 0.257582
H67   H     H_    0.447535 0.252435 0.689891 0.240030
H68   H     H_    0.059747 0.832449 0.870939 0.192673
H69   H     H_    0.135978 0.755944 0.956374 0.194704
H70   H     H_    0.592663 0.650494 0.661922 0.207859
H71   H     H_    0.866055 0.235791 0.957995 0.193696
H72   H     H_    0.420653 0.752878 0.902360 0.164317
H73   H     H_    0.284416 0.458966 0.838618 0.213589
H74   H     H_    0.579741 0.245893 0.909430 0.166055
H75   H     H_    0.733362 0.556249 0.854386 0.203318
H76   H     H_    0.465169 0.286991 0.160790 0.194033
H77   H     H_    0.247781 0.577345 0.100123 0.161929
H78   H     H_    0.531647 0.707001 0.165487 0.206422
H79   H     H_    0.371423 0.172361 0.609873 0.242764
H80   H     H_    0.752430 0.421679 0.102346 0.175238
H81   H     H_    0.952432 0.220625 0.341660 0.209121
H82   H     H_    0.747331 0.922303 0.401738 0.157079
H83   H     H_    0.038976 0.786505 0.337493 0.204898
H84   H     H_    0.252660 0.077288 0.399688 0.169376
H85   H     H_    0.921906 0.746689 0.601356 0.176928
H86   H     H_    0.783056 0.040094 0.658171 0.193667
H87   H     H_    0.076327 0.253181 0.604118 0.177321
H88   H     H_    0.215691 0.959107 0.660381 0.204193
H89   H     H_    0.083207 0.733017 0.233412 0.146603
H90   H     H_    0.860947 0.615285 0.351137 0.245528
H91   H     H_    0.287396 0.130225 0.278519 0.168130
H92   H     H_    0.853098 0.113316 0.166299 0.137505
H93   H     H_    0.690534 0.863826 0.301795 0.160483
H94   H     H_    0.141836 0.238139 0.756712 0.154082
H95   H     H_    0.268927 0.914810 0.763378 0.147030
H96   H     H_    0.813438 0.848185 0.756781 0.137357
H97   H     H_    0.729455 0.085644 0.761818 0.140280
H98   H     H_    0.654613 0.161060 0.849826 0.137800
H99   H     H_    0.748349 0.774029 0.856703 0.131617
H100  H     H_    0.345230 0.837780 0.847438 0.143103
H101  H     H_    0.703047 0.236355 0.369201 0.209014
H102  H     H_    0.222263 0.315383 0.841073 0.135458
H103  H     H_    0.610162 0.787083 0.223869 0.147572
H104  H     H_    0.783193 0.193321 0.070700 0.131185
H105  H     H_    0.366769 0.206594 0.197232 0.151167
H106  H     H_    0.161402 0.655364 0.150198 0.137489
H107  H     H_    0.358046 0.208033 0.901465 0.098708
H108  H     H_    0.448414 0.215515 0.953974 0.123270
H109  H     H_    0.506736 0.115200 0.866554 0.243911
H110  H     H_    0.421570 0.079829 0.914575 0.215736
H111  H     H_    0.416127 0.108771 0.815411 0.272369
H112  H     H_    0.151583 0.388300 0.379041 0.241599
H113  H     H_    0.815993 0.402370 0.988326 0.101827
H114  H     H_    0.761084 0.492779 0.984115 0.112608
H115  H     H_    0.859994 0.552263 0.904978 0.248875
H116  H     H_    0.906220 0.509417 0.987030 0.223039
H117  H     H_    0.911788 0.461547 0.895118 0.264940
H118  H     H_    0.614246 0.819552 0.791860 0.141491
H119  H     H_    0.615097 0.822376 0.896511 0.077966
H120  H     H_    0.481206 0.876684 0.893065 0.237961
H121  H     H_    0.547249 0.935227 0.839167 0.226863
H122  H     H_    0.481816 0.871130 0.789616 0.268869
H123  H     H_    0.168680 0.941397 0.126846 0.194269
H124  H     H_    0.181854 0.588846 0.989873 0.096914
H125  H     H_    0.244382 0.503673 0.981158 0.112634
H126  H     H_    0.151354 0.441655 0.894519 0.250148
H127  H     H_    0.104468 0.470216 0.982707 0.221346
H128  H     H_    0.089749 0.526713 0.897412 0.264040
H129  H     H_    0.414465 0.820239 0.010431 0.094099
H130  H     H_    0.496925 0.754352 0.018902 0.119601
H131  H     H_    0.559515 0.845013 0.108629 0.249526
H132  H     H_    0.537235 0.891640 0.019314 0.220813
H133  H     H_    0.477783 0.910648 0.102417 0.261044
H134  H     H_    0.335124 0.904015 0.090113 0.215671
H135  H     H_    0.791199 0.659994 0.150735 0.115709
H136  H     H_    0.791243 0.603995 0.062262 0.097957
H137  H     H_    0.884665 0.509521 0.124766 0.251809
H138  H     H_    0.921815 0.606713 0.115333 0.218604
H139  H     H_    0.888040 0.573409 0.207119 0.257187
H140  H     H_    0.644047 0.153011 0.139397 0.144854
H141  H     H_    0.657603 0.172708 0.036445 0.097684
H142  H     H_    0.535912 0.105571 0.008911 0.256193
H143  H     H_    0.602232 0.043141 0.059728 0.223986
H144  H     H_    0.521560 0.087453 0.109789 0.262933
N1    N     N_R   0.425360 0.368540 0.922560 -0.105572
N2    N     N_R   0.131460 0.925360 0.422560 -0.100949
N3    N     N_R   0.074640 0.131460 0.422560 -0.099111
N4    N     N_R   0.868540 0.074640 0.422560 -0.109900
N5    N     N_R   0.925360 0.131460 0.577440 -0.102287
N6    N     N_R   0.131460 0.074640 0.577440 -0.099531
N7    N     N_R   0.074640 0.868540 0.577440 -0.101469
N8    N     N_R   0.868540 0.925360 0.577440 -0.088892
N9    N     N_R   0.425340 0.631500 0.922560 -0.068215
N10   N     N_R   0.368500 0.425340 0.922560 -0.077926
N11   N     N_R   0.574660 0.368500 0.922560 -0.073434
N12   N     N_R   0.631460 0.425360 0.922560 -0.100454
N13   N     N_R   0.631500 0.574660 0.922560 -0.074046
N14   N     N_R   0.425340 0.368500 0.077440 -0.067825
N15   N     N_R   0.368500 0.574660 0.077440 -0.074535
N16   N     N_R   0.574660 0.631500 0.077440 -0.077924
N17   N     N_R   0.631500 0.425340 0.077440 -0.074799
N18   N     N_R   0.925340 0.131500 0.422560 -0.075242
N19   N     N_R   0.868500 0.925340 0.422560 -0.070916
N20   N     N_R   0.074660 0.868500 0.422560 -0.075738
N21   N     N_R   0.131500 0.074660 0.422560 -0.069432
N22   N     N_R   0.925340 0.868500 0.577440 -0.070859
N23   N     N_R   0.574640 0.631460 0.922560 -0.089549
N24   N     N_R   0.868500 0.074660 0.577440 -0.073047
N25   N     N_R   0.074660 0.131500 0.577440 -0.068450
N26   N     N_R   0.131500 0.925340 0.577440 -0.076109
N27   N     N_R   0.368540 0.574640 0.922560 -0.098360
N28   N     N_R   0.425360 0.631460 0.077440 -0.101402
N29   N     N_R   0.631460 0.574640 0.077440 -0.103248
N30   N     N_R   0.574640 0.368540 0.077440 -0.078988
N31   N     N_R   0.368540 0.425360 0.077440 -0.106237
N32   N     N_R   0.925360 0.868540 0.422560 -0.099723
Ni1   Ni    Ni4+2 0.500000 0.369720 0.000000 0.218199
Ni2   Ni    Ni4+2 0.630280 0.500000 0.000000 0.192123
Ni3   Ni    Ni4+2 0.500000 0.630280 0.000000 0.195151
Ni4   Ni    Ni4+2 0.369720 0.500000 0.000000 0.186465
Ni5   Ni    Ni4+2 0.000000 0.869720 0.500000 0.190940
Ni6   Ni    Ni4+2 0.130280 0.000000 0.500000 0.188245
Ni7   Ni    Ni4+2 1.000000 0.130280 0.500000 0.189037
Ni8   Ni    Ni4+2 0.869720 0.000000 0.500000 0.200601
O1    O     O_3   0.450984 0.256393 0.842113 -0.655532
O2    O     O_3   0.239238 0.954621 0.340294 -0.661217
O3    O     O_3   0.070869 0.266867 0.382998 -0.656957
O4    O     O_3   0.747871 0.060802 0.353994 -0.645213
O5    O     O_3   0.953203 0.240359 0.660190 -0.658971
O6    O     O_3   0.266430 0.072583 0.618422 -0.659939
O7    O     O_3   0.044707 0.760775 0.659302 -0.656851
O8    O     O_3   0.731507 0.930929 0.596554 -0.675961
O9    O     O_3   0.766170 0.427170 0.883385 -0.653715
O10   O     O_3   0.542153 0.740990 0.844151 -0.651935
O11   O     O_3   0.232895 0.573258 0.884033 -0.656062
O12   O     O_3   0.425819 0.768149 0.115556 -0.659481
O13   O     O_3   0.742249 0.549628 0.156492 -0.675327
O14   O     O_3   0.567870 0.231735 0.091267 -0.674127
O15   O     O_3   0.259569 0.452993 0.159672 -0.663054
O16   O     O_3   0.928661 0.732516 0.382962 -0.668542

loop_
_geom_bond_atom_site_label_1
_geom_bond_atom_site_label_2
_ccdc_geom_bond_type
C82   N19   A    
N10   Ni4   S    
C31   H144  S    
C57   N12   A    
C80   N17   A    
C76   N14   A    
C77   N15   A    
C34   O16   S    
C78   N16   A    
C59   C66   S    
C114  C131  A    
N20   Ni5   S    
N15   N28   A    
C43   H31   S    
C53   C106  A    
C21   H119  S    
C55   H55   S    
C19   C20   S    
C22   H120  S    
C67   H67   S    
N8    Ni8   S    
N2    Ni6   S    
C100  C135  S    
C63   C115  S    
C21   C22   S    
C82   C98   A    
C107  C124  A    
N21   Ni6   S    
C28   H136  S    
C45   C47   S    
C14   C144  A    
C123  N31   A    
C70   H70   S    
C85   H85   S    
C21   O10   S    
C97   C131  S    
C27   H133  S    
C116  C133  A    
C15   H105  S    
C41   H25   S    
C94   C132  S    
C43   C44   S    
C37   C38   S    
C112  O14   S    
C22   H122  S    
C75   H75   S    
N11   Ni1   S    
C7    H97   S    
C1    N1    A    
C90   O12   S    
C50   H47   S    
C23   O11   S    
C54   H1    S    
C48   O7    S    
C35   N5    A    
C60   C65   S    
C51   H49   S    
C31   H142  S    
C120  C138  A    
N19   Ni8   S    
C117  C135  A    
C118  C136  A    
C27   H131  S    
C14   C130  A    
C34   H9    S    
C91   C125  S    
N30   Ni1   S    
C64   H2    S    
C65   C113  S    
C19   H113  S    
N23   Ni3   S    
C58   H79   S    
C63   H134  S    
C85   N22   A    
C12   H103  S    
C17   H108  S    
N2    N20   A    
C2    O2    S    
C33   H5    S    
C109  C121  A    
N16   N29   A    
C49   H44   S    
C68   C92   A    
C58   C67   S    
C58   H58   S    
C46   O6    S    
C51   H51   S    
C108  C126  A    
C39   H20   S    
C62   H62   S    
C36   H11   S    
C110  C128  A    
C56   H56   S    
C121  C139  A    
N12   Ni2   S    
C72   N9    A    
C6    C9    A    
N1    Ni1   S    
C7    C8    A    
N9    Ni3   S    
C32   H3    S    
C18   H110  S    
C48   H42   S    
C82   H82   S    
C133  C142  A    
C112  N30   A    
C115  C116  A    
C55   H57   S    
C77   C94   A    
C111  C119  A    
C25   H128  S    
N5    N24   A    
N29   Ni2   S    
C60   H60   S    
C29   H138  S    
N24   Ni8   S    
C30   H141  S    
C68   N23   A    
C75   N13   A    
C135  C143  A    
C60   H101  S    
C87   N25   A    
C79   O11   S    
C103  C141  S    
C84   N21   A    
C109  C127  A    
C5    C139  A    
C115  C132  A    
C38   H17   S    
C64   C114  S    
C113  C130  A    
C134  O16   S    
C107  C125  A    
N14   Ni1   S    
C33   H7    S    
C44   H34   S    
C39   C40   S    
C34   H8    S    
C4    C138  A    
C37   O2    S    
N27   Ni4   S    
N6    N25   A    
C67   C110  S    
C74   H74   S    
C17   C18   S    
N25   Ni7   S    
C40   H21   S    
C25   H127  S    
C90   N28   A    
C78   H78   S    
C15   C143  A    
C3    H93   S    
C52   C105  A    
N5    Ni7   S    
C124  C141  A    
C85   C106  A    
C9    H99   S    
C7    C141  A    
N17   N30   A    
C31   H143  S    
C44   H32   S    
C69   H46   S    
C2    C99   A    
C26   H129  S    
C45   O6    S    
C30   O14   S    
C2    N2    A    
C122  C140  A    
C48   H41   S    
C97   C123  A    
C70   C108  S    
C88   C105  A    
C83   N20   A    
C71   H71   S    
C34   C36   S    
N16   Ni3   S    
C114  C117  A    
C42   H27   S    
C20   H115  S    
C21   H118  S    
C15   C131  A    
C70   H52   S    
C56   C69   S    
N13   Ni2   S    
C4    H94   S    
C24   O4    S    
C83   C99   A    
C46   N6    A    
C32   O15   S    
C95   C101  A    
C61   H61   S    
C71   C107  S    
N3    N21   A    
C41   C42   S    
C36   H10   S    
C26   C27   S    
C28   C29   S    
C35   C103  A    
C30   C31   S    
C57   O9    S    
C40   H23   S    
C45   H36   S    
C111  C129  A    
C142  H89   S    
C54   C71   S    
C60   C118  S    
C3    C137  A    
C66   C111  S    
C50   H48   S    
C53   N8    A    
C66   H66   S    
N3    Ni7   S    
C63   H63   S    
C79   N27   A    
C105  C139  S    
C90   C94   A    
C101  N29   A    
C51   H50   S    
N17   Ni2   S    
C144  H92   S    
C98   C137  S    
C61   C117  S    
C86   H86   S    
C10   H100  S    
C65   H13   S    
C12   C129  A    
C134  N32   A    
C28   O13   S    
N26   Ni6   S    
C76   C97   A    
N7    N26   A    
C46   C104  A    
C17   H107  S    
C101  O13   S    
C84   C100  A    
C74   C91   A    
C61   C64   S    
N11   N12   A    
C62   C63   S    
C20   H117  S    
C80   H80   S    
C64   H64   S    
C106  C140  S    
C49   H43   S    
C78   C95   A    
C58   C120  S    
C50   C51   S    
N7    Ni5   S    
C69   H69   S    
N32   Ni5   S    
C4    C11   A    
N9    N27   A    
C24   N4    A    
C1    O1    S    
C57   C91   A    
C72   C93   A    
C47   H39   S    
C48   C49   S    
C72   H72   S    
N8    N22   A    
C39   H19   S    
N15   Ni4   S    
N4    N18   A    
C36   H12   S    
C28   H135  S    
C96   C130  S    
C54   C124  S    
N31   Ni4   S    
C23   H125  S    
C59   C119  S    
C5    H95   S    
C73   N10   A    
C11   H102  S    
N19   N32   A    
C47   H40   S    
C92   C126  S    
C56   H68   S    
C32   H4    S    
C18   H111  S    
C52   O7    S    
C41   H26   S    
C66   H24   S    
N14   N31   A    
C32   C33   S    
C73   C89   A    
C136  C144  A    
C67   H35   S    
C17   O1    S    
C22   H121  S    
C37   H15   S    
C76   H76   S    
C24   C102  A    
C52   N7    A    
C6    C140  A    
C16   C132  A    
C102  C136  S    
C38   H16   S    
C87   C104  A    
C59   H59   S    
C8    C125  A    
C53   O8    S    
C29   H137  S    
C95   C129  S    
C27   H132  S    
C89   C128  S    
N6    Ni6   S    
N18   Ni7   S    
C19   H114  S    
C83   H83   S    
C86   N24   A    
C96   C112  A    
C81   H81   S    
N1    N10   A    
C79   C93   A    
C33   H6    S    
C43   H30   S    
C49   H45   S    
C23   H124  S    
C99   C133  S    
C143  H91   S    
C26   O12   S    
C3    C12   A    
C69   C109  S    
N28   Ni3   S    
C50   O8    S    
C123  O15   S    
C80   C96   A    
C65   H65   S    
C25   H126  S    
C68   O10   S    
C55   C122  S    
C41   O4    S    
C74   N11   A    
C47   H38   S    
C86   C103  A    
C88   N26   A    
C81   N18   A    
C71   H53   S    
C14   H104  S    
C81   C102  A    
C18   H109  S    
C119  C137  A    
C110  C120  A    
C26   H130  S    
C16   H106  S    
C19   O9    S    
C6    H96   S    
C37   H14   S    
C16   C142  A    
C93   C127  S    
C62   C116  S    
C62   H123  S    
C8    H98   S    
C29   H139  S    
C30   H140  S    
C73   H73   S    
C42   H28   S    
C75   C92   A    
C20   H116  S    
C77   H77   S    
C13   N3    A    
C61   H112  S    
C59   H90   S    
C43   O5    S    
C10   C127  A    
C84   H84   S    
C1    C89   A    
C88   H88   S    
C40   H22   S    
C13   O3    S    
C108  C122  A    
C42   H29   S    
C44   H33   S    
C45   H37   S    
C39   O3    S    
C98   C134  A    
C9    C126  A    
C54   H54   S    
C56   C121  S    
C13   C100  A    
C11   C128  A    
C5    C10   A    
N22   Ni5   S    
C87   H87   S    
C104  C138  S    
C23   C25   S    
C55   C70   S    
C113  C118  A    
C38   H18   S    
N13   N23   A    
C35   O5    S    
N4    Ni8   S    
