data_mof_unit_18297.cif
_audit_creation_date              2013-03-05T15:52:20-0500
_audit_creation_method            fapswitch 2.2
_symmetry_space_group_name_H-M    P1
_symmetry_Int_Tables_number       1
_space_group_crystal_system       triclinic
_cell_length_a                    14.907817
_cell_length_b                    15.334357
_cell_length_c                    9.977484
_cell_angle_alpha                 90.001853
_cell_angle_beta                  85.708611
_cell_angle_gamma                 89.998634
_cell_volume                      2274.47600991

loop_
_atom_site_label
_atom_site_type_symbol
_atom_site_description
_atom_site_fract_x
_atom_site_fract_y
_atom_site_fract_z
_atom_type_partial_charge
O1    O     O_R   0.408390 0.908380 0.614690 -0.667555
O2    O     O_R   0.408390 0.091620 0.614690 -0.667490
O3    O     O_R   0.908390 0.408380 0.614690 -0.667549
O4    O     O_R   0.908390 0.591620 0.614690 -0.667500
O5    O     O_R   0.408370 0.908380 0.385360 -0.543684
O6    O     O_R   0.408370 0.091620 0.385360 -0.544049
O7    O     O_R   0.908370 0.408380 0.385360 -0.543735
O8    O     O_R   0.908370 0.591620 0.385360 -0.543992
C1    C     C_R   0.385519 0.874845 0.503407 0.974156
C2    C     C_R   0.385514 0.125150 0.503408 0.974086
C3    C     C_R   0.885516 0.374848 0.503409 0.974145
C4    C     C_R   0.885517 0.625153 0.503407 0.974083
Zn1   Zn    Zn3+2 0.500010 0.000000 0.653130 0.995425
Zn2   Zn    Zn3+2 0.000010 0.500000 0.653130 0.995426
Zn3   Zn    Zn3+2 0.499980 0.000000 0.346870 1.055185
Zn4   Zn    Zn3+2 0.999980 0.500000 0.346870 1.055183
O9    O     O_R   0.591620 0.091610 0.614640 -0.576862
O10   O     O_R   0.591620 0.908390 0.614640 -0.576794
O11   O     O_R   0.091620 0.591610 0.614640 -0.576858
O12   O     O_R   0.091620 0.408390 0.614640 -0.576796
O13   O     O_R   0.591610 0.091610 0.385310 -0.616208
O14   O     O_R   0.591610 0.908390 0.385310 -0.616267
O15   O     O_R   0.091610 0.591610 0.385310 -0.616218
O16   O     O_R   0.091610 0.408390 0.385310 -0.616260
C5    C     C_R   0.615181 0.124409 0.497191 0.930431
C6    C     C_R   0.615175 0.875584 0.497187 0.930387
C7    C     C_R   0.115178 0.624411 0.497191 0.930417
C8    C     C_R   0.115177 0.375586 0.497186 0.930396
C9    C     C_R   0.286029 0.197868 0.760857 -0.151739
C10   C     C_R   0.285894 0.802400 0.760872 -0.151982
C11   C     C_R   0.786006 0.697827 0.760850 -0.151775
C12   C     C_R   0.785894 0.302395 0.760879 -0.151988
H1    H     H_    0.353191 0.183470 0.787518 0.223888
H2    H     H_    0.353033 0.816786 0.787652 0.223852
H3    H     H_    0.853174 0.683482 0.787536 0.223856
H4    H     H_    0.853025 0.316832 0.787651 0.223881
C13   C     C_R   0.219639 0.210647 0.865944 0.284461
C14   C     C_R   0.219404 0.789923 0.865865 0.284318
C15   C     C_R   0.719587 0.710520 0.865907 0.284401
C16   C     C_R   0.719430 0.289832 0.865889 0.284350
C17   C     C_R   0.630844 0.722349 0.836482 -0.182974
C18   C     C_R   0.630719 0.277884 0.836380 -0.182740
C19   C     C_R   0.130891 0.222497 0.836563 -0.183015
C20   C     C_R   0.130694 0.778016 0.836318 -0.182744
H5    H     H_    0.577047 0.719690 0.915574 0.213308
H6    H     H_    0.576882 0.280661 0.915380 0.213374
H7    H     H_    0.077111 0.219902 0.915696 0.213287
H8    H     H_    0.076844 0.780870 0.915286 0.213392
C21   C     C_R   0.611977 0.737759 0.704163 0.254348
C22   C     C_R   0.611928 0.262300 0.704085 0.254167
C23   C     C_R   0.111997 0.237820 0.704227 0.254407
C24   C     C_R   0.111920 0.762359 0.704032 0.254130
C25   C     C_R   0.683005 0.749720 0.604533 0.047269
C26   C     C_R   0.683000 0.250269 0.604555 0.047303
C27   C     C_R   0.183010 0.249731 0.604547 0.047235
C28   C     C_R   0.183003 0.750276 0.604542 0.047318
C29   C     C_R   0.266092 0.213203 0.626024 -0.013120
C30   C     C_R   0.266068 0.786835 0.626037 -0.012861
C31   C     C_R   0.766087 0.713194 0.626018 -0.013105
C32   C     C_R   0.766062 0.286841 0.626045 -0.012860
C33   C     C_R   0.326610 0.200101 0.511840 -0.121941
C34   C     C_R   0.326609 0.799898 0.511850 -0.121860
C35   C     C_R   0.826611 0.700103 0.511837 -0.121935
C36   C     C_R   0.826604 0.299903 0.511859 -0.121867
C37   C     C_R   0.320754 0.252416 0.397210 0.336180
C38   C     C_R   0.320727 0.747598 0.397191 0.336191
C39   C     C_R   0.820746 0.752410 0.397199 0.336219
C40   C     C_R   0.820734 0.247594 0.397211 0.336125
H9    H     H_    0.745275 0.850795 0.305759 0.203186
H10   H     H_    0.745264 0.149222 0.305745 0.203069
H11   H     H_    0.245285 0.350802 0.305765 0.203221
H12   H     H_    0.245250 0.649231 0.305725 0.203042
C41   C     C_R   0.746608 0.805377 0.388833 -0.165753
C42   C     C_R   0.746606 0.194620 0.388848 -0.165691
C43   C     C_R   0.246613 0.305380 0.388835 -0.165753
C44   C     C_R   0.246599 0.694624 0.388835 -0.165693
C45   C     C_R   0.677253 0.803586 0.491048 -0.115285
C46   C     C_R   0.677263 0.196398 0.491072 -0.115188
C47   C     C_R   0.177255 0.303587 0.491050 -0.115315
C48   C     C_R   0.177261 0.696400 0.491066 -0.115165
H13   H     H_    0.640054 0.999846 0.110777 0.176166
H14   H     H_    0.140053 0.499884 0.110777 0.176168
C49   C     C_R   0.323558 0.000292 0.143898 0.474243
C50   C     C_R   0.823562 0.500199 0.143899 0.474252
C51   C     C_R   0.248207 0.000592 0.067450 -0.044367
C52   C     C_R   0.748214 0.500400 0.067452 -0.044349
H15   H     H_    0.179708 0.000817 0.113209 0.221398
H16   H     H_    0.679719 0.500548 0.113212 0.221411
C53   C     C_R   0.256559 0.000476 0.930855 -0.266262
C54   C     C_R   0.756563 0.500320 0.930857 -0.266270
H17   H     H_    0.197242 0.000595 0.874338 0.197145
H18   H     H_    0.697247 0.500397 0.874341 0.197148
C55   C     C_R   0.340294 0.000163 0.865941 -0.169612
C56   C     C_R   0.840294 0.500112 0.865943 -0.169639
H19   H     H_    0.339937 0.000004 0.760594 0.235050
H20   H     H_    0.839935 0.500004 0.760597 0.235048
C57   C     C_R   0.419343 0.000091 0.933527 0.063603
C58   C     C_R   0.919343 0.500064 0.933528 0.063613
C59   C     C_R   0.416129 0.000115 0.079150 0.096832
C60   C     C_R   0.916130 0.500080 0.079150 0.096834
N1    N     N_R   0.498810 1.000000 0.142780 -0.124198
N2    N     N_R   0.998810 0.500000 0.142780 -0.124200
C61   C     C_R   0.577001 0.999912 0.063625 -0.101705
C62   C     C_R   0.077001 0.499935 0.063625 -0.101711
C63   C     C_R   0.577351 0.999928 0.921660 0.326901
C64   C     C_R   0.077351 0.499944 0.921660 0.326898
N3    N     N_R   0.498740 1.000000 0.857170 -0.146218
N4    N     N_R   0.998740 0.500000 0.857170 -0.146217
Br1   Br    Br    0.419625 0.265852 0.262899 -0.375005
Br2   Br    Br    0.419473 0.734268 0.262661 -0.375300
Br3   Br    Br    0.919582 0.765815 0.262831 -0.374974
Br4   Br    Br    0.919493 0.234253 0.262709 -0.375365
Br5   Br    Br    0.692760 0.999882 0.824084 -0.390282
Br6   Br    Br    0.192760 0.499895 0.824085 -0.390289
Br7   Br    Br    0.248675 0.213492 0.048306 -0.463249
Br8   Br    Br    0.248260 0.787607 0.048355 -0.462405
Br9   Br    Br    0.748576 0.713315 0.048292 -0.463118
Br10  Br    Br    0.748323 0.287459 0.048354 -0.462509
Br11  Br    Br    0.493526 0.715576 0.656150 -0.486562
Br12  Br    Br    0.493540 0.284499 0.655864 -0.486475
Br13  Br    Br    0.993527 0.215621 0.656296 -0.486522
Br14  Br    Br    0.993553 0.784566 0.655730 -0.486459
Cl1   Cl    Cl    0.274888 0.999951 0.310096 -0.574188
Cl2   Cl    Cl    0.774888 0.499971 0.310089 -0.574188

loop_
_geom_bond_atom_site_label_1
_geom_bond_atom_site_label_2
_geom_bond_distance
_ccdc_geom_bond_type
C30   C34   1.413797 A    
C16   Br10  1.902257 S    
Zn4   O16   2.016141 S    
O10   C6    1.299254 A    
Zn1   N3    2.034477 S    
C62   C64   1.416081 A    
C25   C31   1.390478 A    
C58   N4    1.358843 A    
C15   C17   1.388327 A    
C26   C32   1.390520 A    
C14   C20   1.388345 A    
C63   N3    1.378497 A    
C22   C26   1.409010 A    
Zn1   O10   1.976720 S    
C64   Br6   1.912393 S    
C22   Br12  1.894546 S    
C36   C40   1.405168 A    
C63   Br5   1.912397 S    
C50   C52   1.404189 A    
C18   H6    1.082867 S    
C52   H16   1.086905 S    
C56   C58   1.400853 A    
C40   C42   1.379077 A    
C9    H1    1.077884 S    
C27   C47   1.409380 A    
C10   C14   1.400410 A    
C40   Br4   1.927359 S    
C11   C31   1.418907 A    
O2    Zn1   2.016145 S    
C8    C47   1.438962 S    
O6    Zn3   1.976829 S    
C54   H18   1.083759 S    
Zn3   O14   2.016141 S    
C11   C15   1.400607 A    
H10   C42   1.083966 S    
C44   C48   1.397088 A    
H9    C41   1.083963 S    
C39   C41   1.379128 A    
O15   C7    1.296621 A    
C53   H17   1.083773 S    
O11   C7    1.299234 A    
H12   C44   1.083965 S    
C56   H20   1.051504 S    
C20   C24   1.390446 A    
C16   C18   1.388353 A    
O8    Zn4   1.976829 S    
C49   C59   1.479331 A    
O4    Zn2   2.016145 S    
C24   Br14  1.894541 S    
C17   C21   1.390496 A    
C57   C59   1.450153 A    
C54   C56   1.362579 A    
C51   H15   1.086946 S    
C35   C39   1.405099 A    
C6    C45   1.438960 S    
C10   H2    1.077909 S    
C1    C34   1.445052 S    
C50   C60   1.479299 A    
Zn2   O12   1.976720 S    
O1    C1    1.292339 A    
C7    C48   1.438929 S    
C52   C54   1.359243 A    
C4    C35   1.445008 S    
C34   C38   1.405195 A    
O12   C8    1.299256 A    
C15   Br9   1.902037 S    
C38   Br2   1.927373 S    
C5    C46   1.438926 S    
H14   C62   1.082159 S    
C13   C19   1.388318 A    
C25   C45   1.409359 A    
O5    C1    1.306799 A    
C14   Br8   1.902319 S    
O7    C3    1.306809 A    
O8    C4    1.306755 A    
C38   C44   1.379085 A    
C60   N2    1.428073 A    
C61   C63   1.416081 A    
Zn3   N1    2.037684 S    
N2    C62   1.358196 A    
C37   Br1   1.927495 S    
O3    Zn2   2.016174 S    
C18   C22   1.390407 A    
C39   Br3   1.927438 S    
O7    Zn4   1.976894 S    
C49   C51   1.404251 A    
C9    C29   1.418907 A    
C3    C36   1.445036 S    
Zn4   O15   2.016168 S    
C58   C60   1.450152 A    
C27   C29   1.390480 A    
O14   C6    1.296614 A    
C23   Br13  1.894791 S    
C11   H3    1.077887 S    
C2    C33   1.445003 S    
O4    C4    1.292360 A    
C12   C32   1.419027 A    
O2    C2    1.292350 A    
C55   C57   1.400855 A    
H13   C61   1.082164 S    
Zn4   N2    2.037684 S    
O13   C5    1.296622 A    
C51   C53   1.359241 A    
C59   N1    1.428088 A    
Zn2   O11   1.976783 S    
O16   C8    1.296609 A    
C19   H7    1.083061 S    
C37   C43   1.379140 A    
O6    C2    1.306754 A    
C12   H4    1.077929 S    
C29   C33   1.413650 A    
C13   Br7   1.902037 S    
C50   Cl2   1.759529 S    
C31   C35   1.413644 A    
C28   C48   1.409322 A    
N1    C61   1.358201 A    
Zn1   O9    1.976783 S    
C32   C36   1.413799 A    
O9    C5    1.299226 A    
C20   H8    1.082821 S    
C17   H5    1.083004 S    
H11   C43   1.083970 S    
C19   C23   1.390553 A    
C21   Br11  1.894732 S    
C64   N4    1.378495 A    
C21   C25   1.409086 A    
C10   C30   1.419040 A    
Zn2   N4    2.034477 S    
C28   C30   1.390505 A    
C23   C27   1.409145 A    
C12   C16   1.400455 A    
C53   C55   1.362641 A    
O5    Zn3   1.976894 S    
O3    C3    1.292321 A    
C57   N3    1.358849 A    
C33   C37   1.405083 A    
Zn3   O13   2.016168 S    
O1    Zn1   2.016174 S    
C55   H19   1.051509 S    
C42   C46   1.397089 A    
C9    C13   1.400717 A    
C41   C45   1.397158 A    
C49   Cl1   1.759593 S    
C43   C47   1.397186 A    
C24   C28   1.408966 A    
C26   C46   1.409326 A    
