data_mof_unit_25994.cif
_audit_creation_date              2013-03-05T16:41:03-0500
_audit_creation_method            fapswitch 2.2
_symmetry_space_group_name_H-M    P1
_symmetry_Int_Tables_number       1
_space_group_crystal_system       triclinic
_cell_length_a                    18.650552
_cell_length_b                    18.712081
_cell_length_c                    18.813014
_cell_angle_alpha                 109.429022
_cell_angle_beta                  109.438789
_cell_angle_gamma                 109.270461
_cell_volume                      5071.26934307

loop_
_atom_site_label
_atom_site_type_symbol
_atom_site_description
_atom_site_fract_x
_atom_site_fract_y
_atom_site_fract_z
_atom_type_partial_charge
O1    O     O_R   0.408360 0.551710 0.460090 -0.625873
O2    O     O_R   0.408400 0.448280 0.356670 -0.557624
C1    C     C_R   0.378944 0.499512 0.380054 0.923871
O3    O     O_R   0.591600 0.643340 0.551710 -0.613653
O4    O     O_R   0.591630 0.539900 0.448290 -0.625387
C2    C     C_R   0.621828 0.619966 0.501839 0.855495
Zn1   Zn    Zn3+2 0.499980 0.569060 0.569060 0.951622
Zn2   Zn    Zn3+2 0.500020 0.430940 0.430940 1.033591
O5    O     O_R   0.591600 0.551720 0.643330 -0.620916
O6    O     O_R   0.591640 0.448290 0.539910 -0.630850
O7    O     O_R   0.408370 0.460100 0.551710 -0.654784
O8    O     O_R   0.408400 0.356660 0.448290 -0.587620
C3    C     C_R   0.617637 0.497478 0.619743 0.874381
C4    C     C_R   0.377313 0.380338 0.497498 0.912559
H1    H     H_    0.814442 0.814213 0.896137 0.107707
C5    C     C_R   0.798864 0.862296 0.806191 -0.127911
H2    H     H_    0.804187 0.921301 0.849727 0.124780
C6    C     C_R   0.785960 0.846522 0.723728 -0.156888
H3    H     H_    0.781093 0.893687 0.703959 0.117337
C7    C     C_R   0.778600 0.769852 0.666759 0.133733
C8    C     C_R   0.785426 0.709840 0.693754 -0.115493
H4    H     H_    0.781089 0.651226 0.650912 0.095314
C9    C     C_R   0.798149 0.725800 0.776329 -0.139684
H5    H     H_    0.802809 0.679295 0.796933 0.126756
C10   C     C_R   0.804727 0.801866 0.832387 -0.120847
C11   C     C_R   0.828494 0.813008 0.574515 -0.260736
H6    H     H_    0.888569 0.865426 0.633905 0.160567
C12   C     C_R   0.812810 0.808799 0.494814 -0.067292
C13   C     C_R   0.731856 0.744491 0.417901 -0.004813
C14   C     C_R   0.672504 0.680598 0.422449 -0.269691
H7    H     H_    0.611150 0.628832 0.364014 0.161224
C15   C     C_R   0.688516 0.685557 0.502148 -0.075300
C16   C     C_R   0.764989 0.754299 0.579711 -0.021041
C17   C     C_R   0.622677 0.740789 0.293232 -0.141886
H8    H     H_    0.581781 0.738784 0.322927 0.119373
C18   C     C_R   0.594650 0.740659 0.214377 -0.125780
H9    H     H_    0.532566 0.737817 0.183510 0.123771
C19   C     C_R   0.647134 0.745035 0.175846 -0.132811
H10   H     H_    0.625967 0.745845 0.115247 0.122037
C20   C     C_R   0.727323 0.749041 0.215975 -0.132255
H11   H     H_    0.768833 0.754375 0.187450 0.118385
C21   C     C_R   0.754749 0.747390 0.293796 -0.083999
H12   H     H_    0.817168 0.751177 0.323937 0.111733
C22   C     C_R   0.703367 0.744475 0.333995 0.128915
H13   H     H_    0.544327 0.884272 0.617967 0.125057
C23   C     C_R   0.407672 0.789480 0.529791 -0.157826
H14   H     H_    0.385652 0.824981 0.567400 0.121658
C24   C     C_R   0.346730 0.709520 0.453457 -0.167992
H15   H     H_    0.277713 0.683494 0.432953 0.117036
C25   C     C_R   0.374934 0.662711 0.404689 0.162699
C26   C     C_R   0.464769 0.698168 0.432332 -0.105810
H16   H     H_    0.487765 0.663607 0.395163 0.099541
C27   C     C_R   0.525470 0.777086 0.509746 -0.118767
H17   H     H_    0.594549 0.802025 0.532766 0.126758
C28   C     C_R   0.497059 0.822979 0.558219 -0.117084
C29   C     C_R   0.245895 0.573602 0.259029 -0.251124
H18   H     H_    0.243798 0.632954 0.266991 0.150215
C30   C     C_R   0.184972 0.495397 0.182152 -0.077023
C31   C     C_R   0.185169 0.416896 0.168986 -0.068810
C32   C     C_R   0.247124 0.417734 0.236533 0.321342
C33   C     C_R   0.310788 0.498166 0.313752 -0.186299
C34   C     C_R   0.310021 0.576569 0.325237 -0.033710
C35   C     C_R   0.038839 0.285012 0.058168 -0.134655
H19   H     H_    0.014387 0.303923 0.101908 0.138778
C36   C     C_R   0.982060 0.209536 0.976996 -0.120258
H20   H     H_    0.914330 0.171147 0.958187 0.125843
C37   C     C_R   0.012545 0.183376 0.920188 -0.156060
H21   H     H_    0.968371 0.124905 0.857224 0.146028
C38   C     C_R   0.100230 0.231924 0.944847 -0.208795
H22   H     H_    0.122984 0.209908 0.900375 0.167516
C39   C     C_R   0.158167 0.308621 0.025918 0.375713
C40   C     C_R   0.126467 0.336239 0.082672 0.004001
H23   H     H_    0.122494 0.497977 0.350509 0.130097
C41   C     C_R   0.213043 0.501953 0.460612 -0.131103
H24   H     H_    0.245881 0.572179 0.500371 0.130894
C42   C     C_R   0.240415 0.453260 0.493860 -0.124774
H25   H     H_    0.292675 0.486918 0.560010 0.152962
C43   C     C_R   0.199359 0.362155 0.442409 0.097953
C44   C     C_R   0.126704 0.320476 0.358931 -0.063441
H26   H     H_    0.092536 0.250155 0.318522 0.140626
C45   C     C_R   0.099507 0.369354 0.325835 -0.131437
H27   H     H_    0.044855 0.336832 0.260813 0.121827
C46   C     C_R   0.143186 0.460128 0.376363 -0.129601
C47   C     C_R   0.166874 0.242636 0.476170 -0.285932
H28   H     H_    0.103262 0.237460 0.460731 0.161596
C48   C     C_R   0.186458 0.183500 0.496335 -0.090610
C49   C     C_R   0.267674 0.187340 0.513617 0.002490
C50   C     C_R   0.330284 0.255283 0.516372 -0.242817
H29   H     H_    0.393456 0.259911 0.529952 0.146532
C51   C     C_R   0.310898 0.315096 0.497690 -0.040181
C52   C     C_R   0.227995 0.308529 0.475372 0.010136
C53   C     C_R   0.358537 0.136194 0.592475 -0.150633
H30   H     H_    0.402536 0.202208 0.645716 0.116440
C54   C     C_R   0.374825 0.069536 0.596910 -0.137474
H31   H     H_    0.431014 0.084561 0.653371 0.127360
C55   C     C_R   0.318736 0.983575 0.528491 -0.124989
H32   H     H_    0.331413 0.932067 0.531981 0.119301
C56   C     C_R   0.246629 0.964270 0.455298 -0.123318
H33   H     H_    0.203535 0.897846 0.401941 0.130945
C57   C     C_R   0.230383 0.030863 0.450816 -0.117089
H34   H     H_    0.175367 0.015735 0.393597 0.169936
C58   C     C_R   0.285423 0.117189 0.519778 0.129385
C59   C     C_R   0.514920 0.541926 0.811189 -0.232083
H35   H     H_    0.509376 0.599280 0.839011 0.139232
C60   C     C_R   0.583592 0.548997 0.794067 -0.193034
H36   H     H_    0.630742 0.612143 0.809312 0.147606
C61   C     C_R   0.592872 0.475548 0.760212 0.116637
C62   C     C_R   0.532900 0.395207 0.744164 -0.265315
H37   H     H_    0.540832 0.338686 0.720537 0.152565
C63   C     C_R   0.464274 0.388285 0.761337 -0.240973
H38   H     H_    0.419739 0.326833 0.751372 0.146156
C64   C     C_R   0.454396 0.461394 0.793994 0.584618
C65   C     C_R   0.735316 0.481134 0.811306 -0.215717
H39   H     H_    0.726982 0.471977 0.862529 0.173721
C66   C     C_R   0.812312 0.494027 0.808578 -0.080187
C67   C     C_R   0.823249 0.504332 0.741479 -0.024668
C68   C     C_R   0.756825 0.503183 0.678977 -0.262007
H40   H     H_    0.763591 0.509368 0.625891 0.150882
C69   C     C_R   0.682430 0.495541 0.684949 -0.075027
C70   C     C_R   0.670875 0.484621 0.751443 -0.014897
C71   C     C_R   0.956428 0.589293 0.739272 -0.159111
H41   H     H_    0.946567 0.645145 0.757370 0.118444
C72   C     C_R   0.025001 0.594323 0.722585 -0.129667
H42   H     H_    0.068377 0.654011 0.728692 0.128638
C73   C     C_R   0.036723 0.521858 0.696661 -0.106947
H43   H     H_    0.089367 0.525855 0.683098 0.141628
C74   C     C_R   0.980629 0.444517 0.688452 -0.162697
H44   H     H_    0.989895 0.388456 0.668411 0.139430
C75   C     C_R   0.912964 0.439744 0.706688 -0.129174
H45   H     H_    0.869403 0.379362 0.699470 0.107183
C76   C     C_R   0.900161 0.511987 0.731518 0.144811
O9    O     O_R   0.051730 0.908360 0.460060 -0.627698
O10   O     O_R   0.948280 0.908380 0.356650 -0.629154
C77   C     C_R   0.999542 0.879244 0.380137 0.929470
O11   O     O_R   0.960110 0.908350 0.551690 -0.622391
O12   O     O_R   0.856660 0.908370 0.448270 -0.612435
C78   C     C_R   0.879542 0.877170 0.497125 0.865403
Zn3   Zn    Zn3+2 0.069070 0.999960 0.569030 0.958917
Zn4   Zn    Zn3+2 0.930930 0.999990 0.430930 0.958176
O13   O     O_R   0.051720 0.091580 0.643310 -0.626046
O14   O     O_R   0.948270 0.091600 0.539890 -0.609810
O15   O     O_R   0.143340 0.091590 0.551680 -0.613292
O16   O     O_R   0.039890 0.091610 0.448270 -0.634660
C79   C     C_R   0.997377 0.117778 0.619502 0.875541
C80   C     C_R   0.120361 0.118681 0.498434 0.880713
O17   O     O_R   0.051730 0.460050 0.908360 -0.640741
O18   O     O_R   0.948290 0.356630 0.908390 -0.622891
C81   C     C_R   0.002544 0.380334 0.881372 0.879438
O19   O     O_R   0.143340 0.551690 0.091580 -0.626347
O20   O     O_R   0.039900 0.448270 0.091610 -0.640431
C82   C     C_R   0.119864 0.497303 0.117334 0.904937
Zn5   Zn    Zn3+2 0.069070 0.569030 0.999960 0.939441
Zn6   Zn    Zn3+2 0.930930 0.430930 0.000000 0.933388
O21   O     O_R   0.051710 0.643320 0.091560 -0.631248
O22   O     O_R   0.948270 0.539900 0.091590 -0.629974
O23   O     O_R   0.960100 0.551680 0.908340 -0.610200
O24   O     O_R   0.856660 0.448270 0.908370 -0.633241
C83   C     C_R   0.998579 0.620332 0.118734 0.961218
C84   C     C_R   0.879680 0.497316 0.877239 0.939100
H46   H     H_    0.920849 0.659790 0.544445 0.126691
C85   C     C_R   0.018477 0.732502 0.521334 -0.139597
H47   H     H_    0.071211 0.763585 0.587144 0.119427
C86   C     C_R   0.035155 0.751189 0.460564 -0.094637
H48   H     H_    0.101194 0.796303 0.479874 0.130357
C87   C     C_R   0.966655 0.712387 0.375529 0.118114
C88   C     C_R   0.882531 0.650691 0.350857 -0.203829
H49   H     H_    0.829476 0.618068 0.284829 0.141929
C89   C     C_R   0.865973 0.632456 0.411860 -0.125197
H50   H     H_    0.800544 0.586430 0.393004 0.147335
C90   C     C_R   0.933784 0.673782 0.497215 -0.097899
C91   C     C_R   0.979754 0.670057 0.243951 -0.270210
H51   H     H_    0.967356 0.608169 0.241531 0.171908
C92   C     C_R   0.996094 0.686928 0.182421 -0.117840
C93   C     C_R   0.013184 0.767436 0.184829 -0.057119
C94   C     C_R   0.011987 0.830191 0.249901 0.361135
C95   C     C_R   0.999730 0.813557 0.313869 -0.189757
C96   C     C_R   0.983224 0.733347 0.311154 -0.066964
C97   C     C_R   0.113696 0.856686 0.149192 -0.174151
H52   H     H_    0.162522 0.895838 0.217565 0.164443
C98   C     C_R   0.132941 0.875459 0.089663 -0.153420
H53   H     H_    0.195926 0.928916 0.112184 0.155666
C99   C     C_R   0.071636 0.824539 0.001058 -0.185710
H54   H     H_    0.087211 0.838365 0.954945 0.154384
C100  C     C_R   0.990355 0.755540 0.971832 -0.210652
H55   H     H_    0.943614 0.715719 0.903043 0.139154
C101  C     C_R   0.969419 0.737488 0.031218 0.513889
C102  C     C_R   0.032325 0.787086 0.120582 0.054743
H56   H     H_    0.402228 0.612735 0.995622 0.133222
C103  C     C_R   0.263754 0.563363 0.915567 0.508799
C104  C     C_R   0.180626 0.488812 0.865718 -0.182493
H57   H     H_    0.126037 0.492358 0.826692 0.176245
C105  C     C_R   0.168003 0.410532 0.865868 0.004788
C106  C     C_R   0.242093 0.405868 0.909919 -0.140495
H58   H     H_    0.235211 0.344328 0.904281 0.177842
C107  C     C_R   0.325664 0.479008 0.957826 -0.031590
H59   H     H_    0.382162 0.474081 0.990864 0.187215
C108  C     C_R   0.336751 0.557579 0.960766 -0.223915
C109  C     C_R   0.076028 0.260227 0.744868 -0.265116
H60   H     H_    0.134226 0.266775 0.740554 0.139862
C110  C     C_R   0.996596 0.183985 0.684343 -0.068467
C111  C     C_R   0.918551 0.174882 0.683840 -0.010401
C112  C     C_R   0.923380 0.240720 0.750280 -0.267231
H61   H     H_    0.863910 0.233203 0.752167 0.158341
C113  C     C_R   0.003485 0.316508 0.813265 -0.066820
C114  C     C_R   0.080837 0.329244 0.808082 0.033922
C115  C     C_R   0.767324 0.110780 0.563541 -0.145265
H62   H     H_    0.781651 0.175350 0.573111 0.124099
C116  C     C_R   0.684564 0.039402 0.498899 -0.137385
H63   H     H_    0.635495 0.048940 0.459061 0.130789
C117  C     C_R   0.665156 0.955788 0.485806 -0.106989
H64   H     H_    0.601085 0.900445 0.435850 0.126508
C118  C     C_R   0.728421 0.943681 0.537544 -0.133469
H65   H     H_    0.713070 0.879216 0.527670 0.134330
C119  C     C_R   0.811395 0.014675 0.602037 -0.141351
H66   H     H_    0.859615 0.004311 0.641969 0.099398
C120  C     C_R   0.831504 0.098729 0.615124 0.129981
N1    N     N_R   0.244004 0.337046 0.227714 0.204260
O25   O     O_R   0.259859 0.292955 0.171087 -0.337724
O26   O     O_R   0.237672 0.313941 0.284246 -0.426254
N2    N     N_R   0.249226 0.354582 0.051406 0.200993
O27   O     O_R   0.295412 0.439173 0.099153 -0.421759
O28   O     O_R   0.286655 0.311459 0.026588 -0.390868
O29   O     O_3   0.391604 0.456766 0.818331 -0.665801
C121  C     C_3   0.308546 0.415029 0.743970 0.060126
H67   H     H_    0.258858 0.382522 0.759078 0.177236
H68   H     H_    0.299257 0.362640 0.685398 0.133225
C122  C     C_3   0.291824 0.482649 0.723940 -0.342983
H69   H     H_    0.309554 0.538688 0.784460 0.256537
H70   H     H_    0.334086 0.507620 0.698365 0.199343
C123  C     C_3   0.196064 0.443696 0.658023 -0.963205
H71   H     H_    0.175212 0.385026 0.598321 0.270392
H72   H     H_    0.187552 0.492491 0.640378 0.261674
H73   H     H_    0.153811 0.425117 0.685917 0.262565
O30   O     O_3   0.034726 0.912509 0.258909 -0.671673
C124  C     C_3   0.962786 0.910753 0.199635 0.096632
H74   H     H_    0.903747 0.883039 0.205666 0.144098
H75   H     H_    0.946777 0.871851 0.132013 0.129791
C125  C     C_3   0.987379 0.003948 0.218106 -0.290838
H76   H     H_    0.003719 0.044831 0.285622 0.241970
H77   H     H_    0.046152 0.031905 0.211845 0.236791
C126  C     C_3   0.912671 0.006494 0.155200 -0.999142
H78   H     H_    0.895770 0.966620 0.087131 0.263334
H79   H     H_    0.933076 0.074942 0.169826 0.268898
H80   H     H_    0.853907 0.981025 0.162096 0.259926
O31   O     O_3   0.889461 0.668012 0.001511 -0.649955
C127  C     C_3   0.823198 0.691038 0.981488 0.061608
H81   H     H_    0.773129 0.646391 0.912125 0.165761
H82   H     H_    0.846037 0.758253 0.990825 0.057405
C128  C     C_3   0.781013 0.683027 0.037523 -0.378923
H83   H     H_    0.832876 0.724834 0.106654 0.202157
H84   H     H_    0.733177 0.706695 0.025771 0.170447
C129  C     C_3   0.734404 0.589602 0.019287 -0.769725
H85   H     H_    0.678656 0.547055 0.951805 0.248854
H86   H     H_    0.708427 0.588446 0.064352 0.234054
H87   H     H_    0.780457 0.563776 0.029390 0.283898
O32   O     O_3   0.272780 0.638050 0.911109 -0.662810
C130  C     C_3   0.305518 0.708278 0.994035 0.021176
H88   H     H_    0.325774 0.768934 0.989821 0.175441
H89   H     H_    0.365141 0.717703 0.045172 0.125428
C131  C     C_3   0.234739 0.697487 0.020352 -0.314115
H90   H     H_    0.175910 0.688815 0.968983 0.224450
H91   H     H_    0.215963 0.638650 0.027504 0.243239
C132  C     C_3   0.267608 0.776119 0.106527 -0.944627
H92   H     H_    0.326101 0.785386 0.158757 0.255008
H93   H     H_    0.215548 0.765175 0.124476 0.284619
H94   H     H_    0.284717 0.835992 0.100912 0.254219

loop_
_geom_bond_atom_site_label_1
_geom_bond_atom_site_label_2
_geom_bond_distance
_ccdc_geom_bond_type
C132  H94   1.110583 S    
C2    C15   1.426963 S    
C49   C50   1.385130 A    
C35   C36   1.396311 A    
C127  H82   1.115245 S    
C87   C88   1.404656 A    
O10   C77   1.276585 A    
O11   Zn3   2.015444 S    
C87   C96   1.483648 S    
C111  C112  1.384032 A    
C27   C28   1.396731 A    
C48   C49   1.410706 A    
O18   C81   1.294250 A    
C41   C46   1.396209 A    
C91   H51   1.085266 S    
C121  H67   1.108065 S    
N2    O28   1.301740 A    
C45   H27   1.082155 S    
C132  H92   1.110859 S    
C92   C93   1.414632 A    
C100  H55   1.081096 S    
Zn1   O7    2.017296 S    
C60   C61   1.404494 A    
C125  C126  1.525784 S    
C128  H83   1.106979 S    
C116  H63   1.082288 S    
C112  C113  1.397343 A    
C42   C43   1.405962 A    
C12   C13   1.417612 A    
C86   C87   1.404718 A    
C47   C48   1.398426 A    
C126  H78   1.111938 S    
C68   C69   1.393462 A    
O4    C2    1.279843 A    
Zn2   O6    2.021735 S    
O7    C4    1.275443 A    
C119  C120  1.402366 A    
C72   C73   1.396782 A    
O9    Zn3   2.024929 S    
C66   C67   1.406987 A    
C49   C58   1.486154 S    
C6    H3    1.083612 S    
C62   H37   1.082731 S    
C123  H73   1.110429 S    
O11   C78   1.283848 A    
C17   H8    1.083495 S    
C105  C114  1.493244 S    
C38   C39   1.405961 A    
O5    C3    1.277510 A    
C99   H54   1.082288 S    
C4    C51   1.425669 S    
C83   C92   1.439570 S    
C3    C69   1.427671 S    
C93   C94   1.399009 A    
C132  H93   1.109822 S    
Zn4   O16   2.015533 S    
C123  H71   1.106866 S    
C117  H64   1.082524 S    
Zn5   O23   2.016775 S    
C29   C30   1.387415 A    
C110  C111  1.404979 A    
C36   C37   1.394710 A    
O20   Zn6   2.016774 S    
C55   C56   1.396788 A    
C23   C28   1.397138 A    
C24   H15   1.083337 S    
C124  H74   1.113405 S    
C109  C110  1.388536 A    
C95   C96   1.408397 A    
C109  H60   1.084994 S    
C47   C52   1.384167 A    
Zn6   O22   2.021820 S    
C59   H35   1.082592 S    
C21   H12   1.077595 S    
C127  H81   1.105228 S    
C17   C18   1.398080 A    
C53   C58   1.404057 A    
C31   C40   1.486242 S    
C89   C90   1.397359 A    
C73   H43   1.079673 S    
C31   C32   1.395603 A    
O24   C84   1.278464 A    
C19   C20   1.396118 A    
O1    Zn1   2.021731 S    
O31   C127  1.415771 S    
C55   H32   1.082289 S    
C109  C114  1.385990 A    
C88   C89   1.398494 A    
C124  H75   1.106834 S    
O15   C80   1.280451 A    
C127  C128  1.527133 S    
C33   C34   1.415716 A    
C21   C22   1.403056 A    
C71   C76   1.403855 A    
O3    Zn1   2.015864 S    
C57   C58   1.403963 A    
N2    O27   1.301322 A    
C85   C86   1.398901 A    
C98   C99   1.396248 A    
C97   H52   1.083326 S    
O17   C81   1.267775 A    
C42   H25   1.077695 S    
C1    C33   1.440463 S    
C19   H10   1.082442 S    
C125  H77   1.112460 S    
C35   C40   1.404579 A    
C128  H84   1.111581 S    
C41   H24   1.082289 S    
C37   H21   1.082695 S    
C89   H50   1.082406 S    
C72   H42   1.082348 S    
C17   C22   1.409156 A    
C47   H28   1.085068 S    
O29   C121  1.413807 S    
C131  H91   1.108272 S    
C26   C27   1.397041 A    
C112  H61   1.085268 S    
O19   Zn5   2.018547 S    
C126  H79   1.111353 S    
C44   C45   1.398684 A    
C115  H62   1.083433 S    
C5    H2    1.082421 S    
O9    C77   1.279022 A    
C107  H59   1.082348 S    
C106  C107  1.396831 A    
N1    O25   1.299623 A    
C27   H17   1.078197 S    
C65   C66   1.397000 A    
C103  C104  1.401259 A    
C39   N2    1.439918 S    
C63   H38   1.081588 S    
C66   C84   1.437650 S    
C32   C33   1.415341 A    
O1    C1    1.280718 A    
O12   Zn4   2.017342 S    
C123  H72   1.109645 S    
C107  C108  1.394625 A    
C74   C75   1.397297 A    
C111  C120  1.479193 S    
C13   C14   1.385496 A    
C93   C102  1.489879 S    
C65   C70   1.384471 A    
C91   C92   1.395302 A    
C11   C16   1.381629 A    
C20   C21   1.395751 A    
C122  H69   1.109730 S    
C79   C110  1.428764 S    
C131  C132  1.524867 S    
Zn2   O8    2.015867 S    
C94   O30   1.388727 S    
O32   C130  1.416338 S    
C7    C8    1.402087 A    
C53   C54   1.399117 A    
C25   C26   1.405201 A    
C11   H6    1.085405 S    
C54   H31   1.082338 S    
C59   C60   1.397406 A    
C5    C6    1.397057 A    
C113  C114  1.424677 A    
C91   C96   1.379851 A    
C54   C55   1.397907 A    
C24   C25   1.405839 A    
C71   H41   1.083441 S    
C77   C95   1.432252 S    
C129  H87   1.110771 S    
O17   Zn5   2.022034 S    
C85   C90   1.397825 A    
C7    C16   1.479336 S    
O3    C2    1.277179 A    
C20   H11   1.076320 S    
C122  H70   1.109051 S    
C50   C51   1.396817 A    
C106  H58   1.079774 S    
C117  C118  1.396307 A    
C8    C9    1.399300 A    
C13   C22   1.488423 S    
Zn3   O15   2.017595 S    
C88   H49   1.083284 S    
C25   C34   1.484154 S    
C124  C125  1.528073 S    
C29   C34   1.379682 A    
C44   H26   1.083541 S    
O14   C79   1.274668 A    
C104  H57   1.076781 S    
C29   H18   1.085965 S    
C41   C42   1.398448 A    
C61   C62   1.402012 A    
C74   H44   1.082745 S    
C121  C122  1.529624 S    
C61   C70   1.479134 S    
C130  H88   1.110851 S    
C30   C82   1.426444 S    
C81   C113  1.441931 S    
C129  H86   1.110270 S    
C65   H39   1.083572 S    
Zn5   O21   2.020316 S    
C103  C108  1.405777 A    
C5    C10   1.396407 A    
O16   C80   1.279511 A    
C23   H14   1.082279 S    
C18   H9    1.082615 S    
C128  C129  1.526077 S    
C104  C105  1.405923 A    
C99   C100  1.395850 A    
C98   H53   1.082219 S    
C43   C44   1.407818 A    
C30   C31   1.407539 A    
O23   C84   1.280471 A    
O2    Zn2   2.013916 S    
C12   C78   1.436540 S    
O13   C79   1.280636 A    
C118  C119  1.397398 A    
C131  H90   1.111984 S    
C97   C102  1.405125 A    
O6    C3    1.280248 A    
C121  H68   1.116879 S    
C45   C46   1.396227 A    
O4    Zn2   2.017293 S    
C97   C98   1.397321 A    
C69   C70   1.404815 A    
O10   Zn4   2.017298 S    
Zn3   O13   2.017425 S    
C43   C52   1.491310 S    
N1    O26   1.299156 A    
C60   H36   1.082844 S    
C11   C12   1.397969 A    
C100  C101  1.403271 A    
C126  H80   1.111817 S    
C115  C120  1.405685 A    
C15   C16   1.404698 A    
C130  C131  1.534312 S    
O19   C82   1.279566 A    
O2    C1    1.281515 A    
C75   H45   1.083382 S    
C26   H16   1.083054 S    
C94   C95   1.408105 A    
C85   H47   1.082273 S    
C68   H40   1.085292 S    
C105  C106  1.403324 A    
C18   C19   1.396116 A    
C14   C15   1.391770 A    
Zn4   O14   2.024892 S    
C51   C52   1.410761 A    
C14   H7    1.085764 S    
C67   C76   1.474609 S    
H56   C108  1.082283 S    
O22   C83   1.282179 A    
C119  H66   1.083107 S    
C125  H76   1.110610 S    
C53   H30   1.078526 S    
C64   O29   1.380209 S    
C62   C63   1.397503 A    
C67   C68   1.383421 A    
C103  O32   1.385868 S    
C6    C7    1.405332 A    
C36   H20   1.082279 S    
Zn6   O24   2.018674 S    
C38   H22   1.082687 S    
O18   Zn6   2.020529 S    
C56   C57   1.397778 A    
C63   C64   1.401931 A    
C71   C72   1.396595 A    
C86   H48   1.083284 S    
H1    C10   1.080729 S    
C9    H5    1.080266 S    
C35   H19   1.083016 S    
C23   C24   1.398018 A    
Zn1   O5    2.013917 S    
O8    C4    1.281960 A    
C39   C40   1.418225 A    
C9    C10   1.397558 A    
C50   H29   1.085592 S    
H13   C28   1.082337 S    
C116  C117  1.396453 A    
C56   H33   1.082608 S    
O30   C124  1.412603 S    
C130  H89   1.113012 S    
C48   C80   1.438646 S    
C73   C74   1.398997 A    
O21   C83   1.276897 A    
H46   C90   1.082590 S    
O20   C82   1.273276 A    
C59   C64   1.399823 A    
C57   H34   1.078017 S    
C37   C38   1.396052 A    
C101  C102  1.412322 A    
C8    H4    1.081234 S    
C115  C116  1.398051 A    
C32   N1    1.442033 S    
H23   C46   1.082471 S    
C101  O31   1.381505 S    
O12   C78   1.275967 A    
C118  H65   1.076636 S    
C129  H85   1.108710 S    
C75   C76   1.403502 A    
C122  C123  1.524496 S    
