data_mof_unit_67900.cif
_audit_creation_date              2012-12-10T17:47:47-0500
_audit_creation_method            fapswitch 2.2
_symmetry_space_group_name_H-M    P1
_symmetry_Int_Tables_number       1
_space_group_crystal_system       triclinic
_cell_length_a                    10.880213
_cell_length_b                    10.812693
_cell_length_c                    10.104028
_cell_angle_alpha                 89.984964
_cell_angle_beta                  89.759456
_cell_angle_gamma                 96.658626
_cell_volume                      1180.65351021

loop_
_atom_site_label
_atom_site_type_symbol
_atom_type_description
_atom_site_fract_x
_atom_site_fract_y
_atom_site_fract_z
_atom_type_partial_charge
C1    C     C_R   0.509701 0.261563 0.500408 0.914681
C2    C     C_R   0.528580 0.061579 0.621158 0.048786
C3    C     C_R   0.518691 0.128214 0.501137 -0.129076
C4    C     C_R   0.259076 0.508230 0.500849 0.874777
C5    C     C_R   0.483394 0.063528 0.384172 -0.238419
C6    C     C_R   0.458945 0.935449 0.383896 0.155342
C7    C     C_R   0.472102 0.870078 0.501748 -0.123010
C8    C     C_R   0.352831 0.324266 0.153813 -0.194530
C9    C     C_R   0.289656 0.219874 0.103633 -0.294000
C10   C     C_R   0.286879 0.201010 0.970269 0.112701
C11   C     C_R   0.344947 0.294944 0.881150 0.428025
C12   C     C_3   0.879597 0.514389 0.498911 -0.114794
C13   C     C_R   0.426324 0.403024 0.932955 0.020410
C14   C     C_R   0.427121 0.409490 0.076418 0.020999
C15   C     C_R   0.567650 0.590619 0.070742 0.589263
C16   C     C_R   0.488817 0.738038 0.500076 0.905867
C17   C     C_R   0.568167 0.588758 0.927905 -0.230225
C18   C     C_R   0.742235 0.506957 0.499497 0.922971
C19   C     C_3   0.067922 0.524698 0.648758 0.393445
C20   C     C_3   0.929347 0.542896 0.642167 -0.086308
C21   C     C_3   0.087496 0.630076 0.422779 0.012165
C22   C     C_3   0.058925 0.399004 0.431841 -0.599202
C23   C     C_3   0.944221 0.622876 0.411120 0.020466
C24   C     C_3   0.122429 0.516622 0.503559 -0.077867
C25   C     C_3   0.181458 0.577236 0.843316 0.142978
C26   C     C_3   0.081239 0.557227 0.949712 -0.340580
C27   C     C_3   0.106559 0.454390 0.045138 -0.923230
C28   C     C_3   0.638438 0.802315 0.095075 0.094143
C29   C     C_3   0.752296 0.852871 0.012332 -0.383838
C30   C     C_3   0.818267 0.973482 0.069088 -0.753255
C31   C     C_3   0.207142 0.242357 0.706791 0.066409
C32   C     C_3   0.194485 0.129414 0.614563 -0.311622
C33   C     C_3   0.057515 0.081960 0.592810 -0.795383
C34   C     C_3   0.919471 0.385528 0.456333 0.020030
C35   C     C_R   0.572219 0.114145 0.743665 0.232935
C36   C     C_R   0.531523 0.057245 0.862207 -0.149040
C37   C     C_R   0.455194 0.945638 0.859426 -0.199208
C38   C     C_R   0.433675 0.882318 0.741460 -0.107578
C39   C     C_R   0.480586 0.935755 0.621950 0.037935
H1    H     H_    0.130648 0.628765 0.322934 0.185713
H2    H     H_    0.880524 0.475406 0.712431 0.156465
H3    H     H_    0.912178 0.711920 0.442708 0.184323
H4    H     H_    0.077613 0.407859 0.324203 0.245922
H5    H     H_    0.095887 0.312021 0.459256 0.184114
H6    H     H_    0.899366 0.320761 0.540487 0.145902
H7    H     H_    0.256363 0.647203 0.879790 0.150152
H8    H     H_    0.225071 0.491343 0.827137 0.145480
H9    H     H_    0.078676 0.646425 0.003199 0.269006
H10   H     H_    0.989020 0.530131 0.905988 0.258449
H11   H     H_    0.124346 0.370133 0.989765 0.257232
H12   H     H_    0.465951 0.112418 0.293912 0.203067
H13   H     H_    0.024019 0.425814 0.106408 0.313470
H14   H     H_    0.185656 0.487491 0.109767 0.274796
H15   H     H_    0.632211 0.861272 0.184204 0.210496
H16   H     H_    0.554443 0.810601 0.037152 0.099318
H17   H     H_    0.722302 0.872361 0.910147 0.220904
H18   H     H_    0.818923 0.783316 0.004954 0.291115
H19   H     H_    0.753079 0.044920 0.077449 0.260038
H20   H     H_    0.895220 0.009850 0.002323 0.291882
H21   H     H_    0.856534 0.956198 0.168283 0.283994
H22   H     H_    0.186855 0.315748 0.643074 0.142240
H23   H     H_    0.559300 0.098997 0.956408 0.170858
H24   H     H_    0.135521 0.238417 0.785962 0.143170
H25   H     H_    0.238407 0.156622 0.517587 0.192056
H26   H     H_    0.244413 0.053998 0.654370 0.278755
H27   H     H_    0.997359 0.157118 0.603743 0.240387
H28   H     H_    0.026162 0.008610 0.666225 0.316074
H29   H     H_    0.043605 0.043362 0.491555 0.283416
H30   H     H_    0.413563 0.906521 0.948467 0.198567
H31   H     H_    0.374250 0.795117 0.743570 0.200433
H32   H     H_    0.065954 0.433290 0.697703 0.007565
H33   H     H_    0.339643 0.336501 0.256408 0.234509
H34   H     H_    0.238795 0.154383 0.170930 0.218935
H35   H     H_    0.625525 0.659424 0.873392 0.176322
I1    I     I_    0.825516 0.281181 0.295949 -0.363763
I2    I     I_    0.896070 0.620313 0.208782 -0.330766
I3    I     I_    0.729155 0.245638 0.763326 -0.423584
I4    I     I_    0.358941 0.855000 0.218563 -0.431976
I5    I     I_    0.177099 0.026938 0.930000 -0.399095
I6    I     I_    0.883298 0.719549 0.721849 -0.369702
I7    I     I_    0.158972 0.807243 0.501834 -0.346261
N1    N     N_R   0.498810 0.498800 0.142780 -0.133262
N2    N     N_R   0.498760 0.498720 0.857170 -0.116262
O1    O     O_R   0.500000 0.316780 0.614690 -0.528121
O2    O     O_3   0.644154 0.679255 0.140378 -0.581379
O3    O     O_3   0.330340 0.275016 0.747695 -0.594737
O4    O     O_R   0.499990 0.316750 0.385360 -0.645512
O5    O     O_R   0.314800 0.499990 0.614670 -0.605618
O6    O     O_R   0.314790 0.499970 0.385330 -0.658788
O7    O     O_R   0.500010 0.683250 0.614640 -0.636325
O8    O     O_R   0.500000 0.683220 0.385310 -0.564937
O9    O     O_R   0.685210 0.500030 0.614670 -0.600376
O10   O     O_R   0.685200 0.500010 0.385330 -0.528185
O11   O     O_3   0.134556 0.621618 0.724109 -0.568280
Zn1   Zn    Zn3+2 0.500010 0.500020 0.653130 1.004946
Zn2   Zn    Zn3+2 0.499990 0.499980 0.346870 1.023693

loop_
_geom_bond_atom_site_label_1
_geom_bond_atom_site_label_2
_ccdc_geom_bond_type
C2    C35   A    
C1    O4    A    
C38   H31   S    
C16   O7    A    
C37   H30   S    
C31   H22   S    
C19   H32   S    
C19   C20   S    
C23   I2    S    
C20   H2    S    
O7    Zn1   S    
C1    O1    A    
C12   C23   S    
C26   C27   S    
C37   C38   A    
C23   H3    S    
C36   C37   A    
C38   C39   A    
C4    C24   S    
C6    I4    S    
C11   O3    S    
O8    Zn2   S    
C2    C39   A    
C22   H5    S    
C31   C32   S    
C8    C9    A    
C30   H21   S    
C9    C10   A    
C25   H8    S    
C27   H11   S    
C26   H9    S    
C34   I1    S    
C15   O2    S    
O5    Zn1   S    
C25   O11   S    
C31   O3    S    
C13   C14   A    
C30   H20   S    
C9    H34   S    
C36   H23   S    
C28   H16   S    
C33   H27   S    
C15   N1    A    
C22   C34   S    
C8    H33   S    
N1    Zn2   S    
C20   I6    S    
C31   H24   S    
C32   H25   S    
C26   H10   S    
C28   H15   S    
C25   C26   S    
C35   I3    S    
O9    Zn1   S    
C1    C3    S    
C35   C36   A    
C29   C30   S    
C22   H4    S    
N2    Zn1   S    
O4    Zn2   S    
C12   C20   S    
C34   H6    S    
C19   O11   S    
C7    C16   S    
C29   H18   S    
O10   Zn2   S    
C21   C23   S    
C17   H35   S    
C22   C24   S    
C14   N1    A    
C12   C34   S    
C27   H13   S    
C33   H28   S    
C4    O6    A    
C15   C17   A    
C28   C29   S    
C8    C14   A    
C21   I7    S    
C3    C5    A    
C10   I5    S    
C27   H14   S    
C6    C7    A    
C4    O5    A    
C29   H17   S    
C13   N2    A    
C18   O9    A    
C32   C33   S    
O6    Zn2   S    
C2    C3    A    
C11   C13   A    
C5    C6    A    
C21   H1    S    
C30   H19   S    
C19   C24   S    
C10   C11   A    
C16   O8    A    
C21   C24   S    
C12   C18   S    
C28   O2    S    
C18   O10   A    
C7    C39   A    
C5    H12   S    
C17   N2    A    
C25   H7    S    
O1    Zn1   S    
C33   H29   S    
C32   H26   S    
