data_mof_unit_46068.cif
_audit_creation_date              2012-12-11T16:08:25-0500
_audit_creation_method            fapswitch 2.2
_symmetry_space_group_name_H-M    P1
_symmetry_Int_Tables_number       1
_space_group_crystal_system       triclinic
_cell_length_a                    7.235425
_cell_length_b                    21.395992
_cell_length_c                    23.467399
_cell_angle_alpha                 89.999968
_cell_angle_beta                  90.001452
_cell_angle_gamma                 90.000108
_cell_volume                      3632.9668098

loop_
_atom_site_label
_atom_site_type_symbol
_atom_type_description
_atom_site_fract_x
_atom_site_fract_y
_atom_site_fract_z
_atom_type_partial_charge
O1    O     O_R   0.365470 0.806380 0.442440 -0.532233
O2    O     O_R   0.134530 0.193620 0.942440 -0.532234
O3    O     O_R   0.865470 0.693620 0.557560 -0.532235
O4    O     O_R   0.634530 0.306380 0.057560 -0.532234
O5    O     O_R   0.035730 0.813790 0.557160 -0.536242
O6    O     O_R   0.464270 0.186210 0.057160 -0.536244
O7    O     O_R   0.535730 0.686210 0.442840 -0.536245
O8    O     O_R   0.964270 0.313790 0.942840 -0.536243
C1    C     C_R   0.204181 0.828693 0.575855 0.717060
C2    C     C_R   0.295822 0.171307 0.075856 0.717056
C3    C     C_R   0.704177 0.671307 0.424144 0.717057
C4    C     C_R   0.795820 0.328693 0.924144 0.717059
O9    O     O_R   0.035760 0.813790 0.442850 -0.535650
O10   O     O_R   0.464240 0.186210 0.942850 -0.535648
O11   O     O_R   0.535760 0.686210 0.557150 -0.535650
O12   O     O_R   0.964240 0.313790 0.057150 -0.535651
O13   O     O_R   0.865450 0.693620 0.442430 -0.531771
O14   O     O_R   0.634550 0.306380 0.942430 -0.531774
O15   O     O_R   0.365450 0.806380 0.557570 -0.531776
O16   O     O_R   0.134550 0.193620 0.057570 -0.531774
C5    C     C_R   0.204252 0.828707 0.424154 0.714304
C6    C     C_R   0.295745 0.171292 0.924155 0.714308
C7    C     C_R   0.704254 0.671293 0.575845 0.714304
C8    C     C_R   0.795749 0.328707 0.075845 0.714302
O17   O     O_3   0.198970 0.710570 0.500000 -0.374125
O18   O     O_3   0.301030 0.289430 0.000000 -0.374125
O19   O     O_3   0.698970 0.789430 0.500000 -0.374124
O20   O     O_3   0.801030 0.210570 0.000000 -0.374124
V1    V     V_3+5 0.924120 0.757310 0.500000 1.410363
V2    V     V_3+5 0.575880 0.242690 0.000000 1.410360
V3    V     V_3+5 0.424120 0.742690 0.500000 1.410356
V4    V     V_3+5 0.075880 0.257310 0.000000 1.410358
C9    C     C_3   0.861415 0.567513 0.755751 -0.336472
C10   C     C_3   0.639188 0.432383 0.255849 -0.336468
C11   C     C_3   0.361104 0.932432 0.244199 -0.336447
C12   C     C_3   0.137834 0.067385 0.744377 -0.336462
C13   C     C_3   0.548368 0.523028 0.730770 -0.365488
C14   C     C_3   0.951676 0.477156 0.230629 -0.365464
C15   C     C_3   0.048342 0.977065 0.269299 -0.365466
C16   C     C_3   0.451582 0.023257 0.769048 -0.365516
C17   C     C_3   0.566046 0.475762 0.780885 -0.437640
C18   C     C_3   0.934002 0.524433 0.280734 -0.437591
C19   C     C_3   0.066027 0.024319 0.219175 -0.437599
C20   C     C_3   0.433885 0.976025 0.718908 -0.437687
H1    H     H_    0.783370 0.542735 0.841847 0.133918
H2    H     H_    0.717808 0.457250 0.341873 0.133922
H3    H     H_    0.282936 0.957272 0.158128 0.133891
H4    H     H_    0.215024 0.042711 0.658181 0.133902
H5    H     H_    0.803126 0.612987 0.770187 0.130760
H6    H     H_    0.697934 0.386961 0.270245 0.130757
H7    H     H_    0.302532 0.886996 0.229769 0.130745
H8    H     H_    0.195580 0.112918 0.729882 0.130738
H9    H     H_    0.461932 0.502154 0.696477 0.152202
H10   H     H_    0.037678 0.498092 0.196264 0.152261
H11   H     H_    0.962143 0.997986 0.303624 0.152231
H12   H     H_    0.538546 0.002443 0.803245 0.152117
H13   H     H_    0.476086 0.565839 0.745889 0.151338
H14   H     H_    0.024419 0.434421 0.245715 0.151265
H15   H     H_    0.975801 0.934291 0.254210 0.151287
H16   H     H_    0.523314 0.066162 0.753902 0.151427
H17   H     H_    0.506987 0.497237 0.820065 0.150357
H18   H     H_    0.993609 0.503047 0.319876 0.150297
H19   H     H_    0.006758 0.002866 0.180015 0.150343
H20   H     H_    0.492194 0.997632 0.679681 0.150449
H21   H     H_    0.478691 0.434051 0.772980 0.169294
H22   H     H_    0.020890 0.566233 0.272737 0.169356
H23   H     H_    0.978856 0.066068 0.227103 0.169316
H24   H     H_    0.521872 0.934431 0.726668 0.169203
C21   C     C_1   0.787298 0.374278 0.878375 -0.191202
C22   C     C_1   0.712691 0.625720 0.378377 -0.191202
C23   C     C_1   0.287307 0.125722 0.121624 -0.191185
C24   C     C_1   0.212707 0.874277 0.621625 -0.191196
C25   C     C_3   0.741272 0.540650 0.706702 0.206788
C26   C     C_3   0.758729 0.459345 0.206706 0.206765
C27   C     C_3   0.241271 0.959347 0.293294 0.206798
C28   C     C_3   0.258731 0.040642 0.793303 0.206851
C29   C     C_3   0.868776 0.521417 0.807377 0.020283
C30   C     C_3   0.631896 0.478478 0.307475 0.020289
C31   C     C_3   0.368515 0.978541 0.192583 0.020298
C32   C     C_3   0.130321 0.021283 0.692757 0.020228
C33   C     C_3   0.772494 0.457605 0.791287 0.276153
C34   C     C_3   0.727480 0.542383 0.291295 0.276108
C35   C     C_3   0.272511 0.042391 0.208712 0.276105
C36   C     C_3   0.227530 0.957592 0.708724 0.276213
C37   C     C_3   0.853103 0.429484 0.733358 0.374261
C38   C     C_3   0.646132 0.570405 0.233424 0.374278
C39   C     C_3   0.353425 0.070472 0.266617 0.374281
C40   C     C_3   0.147909 0.929333 0.766729 0.374247
C41   C     C_3   0.835150 0.480091 0.684751 -0.318835
C42   C     C_3   0.664189 0.519810 0.184809 -0.318850
C43   C     C_3   0.335505 0.019856 0.315219 -0.318831
C44   C     C_3   0.165664 0.979967 0.815321 -0.318800
C45   C     C_1   0.780483 0.411897 0.839577 -0.079074
C46   C     C_1   0.719497 0.588097 0.339582 -0.079064
C47   C     C_1   0.280498 0.088101 0.160422 -0.079090
C48   C     C_1   0.219528 0.911893 0.660425 -0.079102
C49   C     C_1   0.724366 0.587221 0.659639 -0.074776
C50   C     C_1   0.775645 0.412777 0.159641 -0.074772
C51   C     C_1   0.224357 0.912777 0.340359 -0.074787
C52   C     C_1   0.275631 0.087216 0.840365 -0.074795
C53   C     C_1   0.713693 0.625354 0.621334 -0.183836
C54   C     C_1   0.786317 0.374645 0.121335 -0.183842
C55   C     C_1   0.213684 0.874645 0.378665 -0.183841
C56   C     C_1   0.286304 0.125352 0.878668 -0.183834
H25   H     H_    0.972719 0.492347 0.666649 0.129772
H26   H     H_    0.526606 0.507420 0.166791 0.129778
H27   H     H_    0.473118 0.007531 0.333253 0.129782
H28   H     H_    0.028088 0.992054 0.833511 0.129753
H29   H     H_    0.754065 0.461739 0.648041 0.136433
H30   H     H_    0.744877 0.538237 0.148049 0.136433
H31   H     H_    0.254682 0.038236 0.351971 0.136417
H32   H     H_    0.247197 0.961714 0.851979 0.136420
H33   H     H_    0.002292 0.577546 0.739071 0.150321
H34   H     H_    0.498250 0.422229 0.239276 0.150314
H35   H     H_    0.501988 0.922309 0.260831 0.150293
H36   H     H_    0.997046 0.077285 0.761198 0.150328
C57   C     C_3   0.063973 0.517593 0.833933 -0.823850
H37   H     H_    0.175118 0.521535 0.801862 0.215578
H38   H     H_    0.083999 0.557573 0.863517 0.203834
H39   H     H_    0.084223 0.474116 0.858846 0.227067
C58   C     C_3   0.436909 0.482112 0.334200 -0.823674
H40   H     H_    0.325477 0.478046 0.302232 0.215409
H41   H     H_    0.417532 0.442121 0.363813 0.203821
H42   H     H_    0.416509 0.525575 0.359120 0.227021
C59   C     C_3   0.563671 0.982293 0.165985 -0.823743
H43   H     H_    0.674893 0.978211 0.198022 0.215454
H44   H     H_    0.583380 0.942364 0.136324 0.203829
H45   H     H_    0.584107 0.025810 0.141147 0.227069
C60   C     C_3   0.934817 0.017208 0.666453 -0.824129
H46   H     H_    0.824103 0.020959 0.698679 0.215838
H47   H     H_    0.913899 0.057195 0.636935 0.203865
H48   H     H_    0.914771 0.973728 0.641529 0.227132
C61   C     C_3   0.745185 0.369815 0.715069 -0.788829
H49   H     H_    0.809351 0.348215 0.676803 0.201646
H50   H     H_    0.744769 0.334263 0.749537 0.211601
H51   H     H_    0.600438 0.380364 0.702940 0.194469
C62   C     C_3   0.753300 0.630194 0.215046 -0.788819
H52   H     H_    0.688619 0.651710 0.176822 0.201659
H53   H     H_    0.753621 0.665755 0.249507 0.211601
H54   H     H_    0.898057 0.619810 0.202815 0.194413
C63   C     C_3   0.245754 0.130173 0.284956 -0.788782
H55   H     H_    0.310141 0.151747 0.323201 0.201653
H56   H     H_    0.245293 0.165731 0.250493 0.211584
H57   H     H_    0.101025 0.119669 0.297138 0.194449
C64   C     C_3   0.256892 0.869842 0.784904 -0.788782
H58   H     H_    0.193434 0.848121 0.823226 0.201618
H59   H     H_    0.257493 0.834300 0.750426 0.211594
H60   H     H_    0.401607 0.880631 0.796898 0.194543
C65   C     C_3   0.058530 0.409538 0.739209 -0.777837
H61   H     H_    0.152416 0.450115 0.738818 0.197717
H62   H     H_    0.082266 0.381862 0.778537 0.213622
H63   H     H_    0.102399 0.380489 0.702354 0.198730
C66   C     C_3   0.440559 0.590113 0.239429 -0.777995
H64   H     H_    0.347108 0.549421 0.239107 0.197896
H65   H     H_    0.416851 0.617756 0.278777 0.213660
H66   H     H_    0.396092 0.619111 0.202609 0.198715
C67   C     C_3   0.558892 0.090348 0.260700 -0.777981
H67   H     H_    0.652641 0.049735 0.261011 0.197864
H68   H     H_    0.582541 0.118060 0.221388 0.213621
H69   H     H_    0.603018 0.119338 0.297565 0.198728
C68   C     C_3   0.942695 0.909046 0.761083 -0.777586
H70   H     H_    0.848173 0.949453 0.761590 0.197436
H71   H     H_    0.918929 0.881348 0.721769 0.213559
H72   H     H_    0.899671 0.879901 0.797969 0.198767

loop_
_geom_bond_atom_site_label_1
_geom_bond_atom_site_label_2
_ccdc_geom_bond_type
O17   V3    S    
C51   C55   T    
C4    C21   S    
O1    C5    A    
C67   H67   S    
C34   C46   S    
C39   C43   S    
O19   V1    S    
C57   H37   S    
C19   C35   S    
O3    C7    A    
C18   C34   S    
C1    C24   S    
C17   H17   S    
C32   C36   S    
O15   V3    S    
C68   H72   S    
C57   H38   S    
C64   H58   S    
C3    C22   S    
C19   H19   S    
C26   C50   S    
C7    C53   S    
C20   H20   S    
O7    C3    A    
C62   H53   S    
C11   C27   S    
C16   H16   S    
O9    V1    S    
C22   C46   T    
C38   C66   S    
C14   C18   S    
C29   C57   S    
C63   H56   S    
C14   C26   S    
O13   V1    S    
O4    C8    A    
C23   C47   T    
C9    H5    S    
C40   C68   S    
C41   H29   S    
O1    V3    S    
C6    C56   S    
O2    V4    S    
C36   C48   S    
C43   H31   S    
O3    V1    S    
C30   C58   S    
C58   H42   S    
C38   C42   S    
C12   C28   S    
C38   C62   S    
C68   H71   S    
C14   H14   S    
C44   H28   S    
C52   C56   T    
C15   H11   S    
C40   C44   S    
C2    O16   A    
C16   H12   S    
O2    C6    A    
C61   H51   S    
C40   C64   S    
C11   H35   S    
O14   V2    S    
C15   C27   S    
C66   H65   S    
C18   H18   S    
C12   H8    S    
C27   C43   S    
C60   H48   S    
C13   H9    S    
C2    C23   S    
O11   C7    A    
H3    C31   S    
C31   C59   S    
C17   C33   S    
O12   C8    A    
O10   V2    S    
C64   H59   S    
C1    O15   A    
C33   C37   S    
C68   H70   S    
O5    V1    S    
C62   H54   S    
C10   H6    S    
O7    V3    S    
O8    V4    S    
C43   H27   S    
C28   C52   S    
C18   H22   S    
C42   H26   S    
C12   C32   S    
C57   H39   S    
H2    C30   S    
C37   C41   S    
O18   V4    S    
C44   H32   S    
C17   H21   S    
C34   C38   S    
O4    V2    S    
C16   C28   S    
C24   C48   T    
C25   C49   S    
C19   H23   S    
O5    C1    A    
C59   H45   S    
C33   C45   S    
C30   C34   S    
C14   H10   S    
C29   C33   S    
O8    C4    A    
C15   H15   S    
C27   C51   S    
O9    C5    A    
C35   C47   S    
C39   C63   S    
C66   H66   S    
C58   H40   S    
C10   C26   S    
C9    C25   S    
O6    V2    S    
C28   C44   S    
C67   H69   S    
C11   H7    S    
C59   H43   S    
C65   H63   S    
C10   H34   S    
C42   H30   S    
C41   H25   S    
C12   H36   S    
C64   H60   S    
C59   H44   S    
C60   H46   S    
O16   V4    S    
C13   C25   S    
C3    O13   A    
C32   C60   S    
C9    H33   S    
C36   C40   S    
C20   C36   S    
C35   C39   S    
O6    C2    A    
C15   C19   S    
O11   V3    S    
C63   H57   S    
O12   V4    S    
C37   C65   S    
C62   H52   S    
C21   C45   T    
C9    C29   S    
H4    C32   S    
C65   H62   S    
C25   C41   S    
C50   C54   T    
C65   H61   S    
C10   C30   S    
C31   C35   S    
O10   C6    A    
C61   H49   S    
C26   C42   S    
O20   V2    S    
C8    C54   S    
C13   C17   S    
C49   C53   T    
C58   H41   S    
C20   H24   S    
C5    C55   S    
C39   C67   S    
C16   C20   S    
C67   H68   S    
C4    O14   A    
C61   H50   S    
H1    C29   S    
C11   C31   S    
C66   H64   S    
C63   H55   S    
C13   H13   S    
C37   C61   S    
C60   H47   S    
