data_mof_unit_45806.cif
_audit_creation_date              2012-12-10T18:49:24-0500
_audit_creation_method            fapswitch 2.2
_symmetry_space_group_name_H-M    P1
_symmetry_Int_Tables_number       1
_space_group_crystal_system       triclinic
_cell_length_a                    9.826839
_cell_length_b                    10.751448
_cell_length_c                    13.637652
_cell_angle_alpha                 90.262779
_cell_angle_beta                  82.732547
_cell_angle_gamma                 89.62873
_cell_volume                      1429.22901744

loop_
_atom_site_label
_atom_site_type_symbol
_atom_type_description
_atom_site_fract_x
_atom_site_fract_y
_atom_site_fract_z
_atom_type_partial_charge
C1    C     C_R   0.500466 0.740767 0.495234 0.947704
C2    C     C_R   0.914132 0.556281 0.574416 -0.236788
C3    C     C_1   0.544225 0.495756 0.210742 -0.205683
C4    C     C_1   0.457152 0.487832 0.788897 -0.224770
C5    C     C_2   0.565108 0.485224 0.018441 0.163282
C6    C     C_2   0.447440 0.461744 0.979676 0.164639
C7    C     C_1   0.447960 0.475646 0.875925 -0.031162
C8    C     C_1   0.557710 0.490995 0.123118 -0.017054
C9    C     C_R   0.625817 0.938469 0.490754 0.058596
C10   C     C_R   0.373071 0.064940 0.536912 0.088014
C11   C     C_R   0.624491 0.063495 0.515187 0.402179
C12   C     C_R   0.498950 0.260651 0.510030 0.929783
C13   C     C_R   0.373268 0.940111 0.511439 0.395856
C14   C     C_3   0.958968 0.364560 0.252952 -0.863588
C15   C     C_3   0.086785 0.568439 0.746831 -0.794136
C16   C     C_3   0.205343 0.392833 0.993258 -0.787177
C17   C     C_3   0.817701 0.482345 0.996746 -0.797522
C18   C     C_3   0.848625 0.844139 0.509386 -0.680239
C19   C     C_3   0.234078 0.165554 0.674557 -0.748327
C20   C     C_3   0.784121 0.113009 0.617971 0.075856
C21   C     C_3   0.733162 0.224919 0.682489 -0.302894
C22   C     C_3   0.778436 0.215531 0.785168 -0.995958
C23   C     C_R   0.498677 0.128335 0.525412 -0.309956
C24   C     C_3   0.230480 0.866159 0.403839 0.123234
C25   C     C_3   0.173691 0.984138 0.360009 -0.418916
C26   C     C_3   0.138308 0.960210 0.255868 -0.937871
C27   C     C_R   0.499911 0.874992 0.495486 -0.327272
C28   C     C_R   0.475349 0.499296 0.685784 0.891244
C29   C     C_R   0.524742 0.499821 0.314241 0.895250
C30   C     C_R   0.941308 0.441410 0.425521 0.292861
C31   C     C_R   0.058297 0.557824 0.574270 0.287487
C32   C     C_R   0.085997 0.441113 0.426665 -0.167003
H1    H     H_    0.153396 0.393128 0.369879 0.167330
H2    H     H_    0.975825 0.577178 0.774354 0.214721
H3    H     H_    0.334274 0.378099 0.103163 0.225683
H4    H     H_    0.116792 0.373950 0.050062 0.239308
H5    H     H_    0.229658 0.307096 0.948482 0.241099
H6    H     H_    0.175311 0.468954 0.945449 0.252810
H7    H     H_    0.696622 0.508012 0.883583 0.227106
H8    H     H_    0.906980 0.512754 0.944609 0.235993
H9    H     H_    0.823138 0.379698 0.004787 0.239728
H10   H     H_    0.824755 0.528171 0.069059 0.264138
H11   H     H_    0.795367 0.930672 0.384102 0.235221
H12   H     H_    0.848008 0.601926 0.633331 0.161778
H13   H     H_    0.918055 0.921321 0.522346 0.218286
H14   H     H_    0.912812 0.768356 0.472380 0.229317
H15   H     H_    0.796611 0.810669 0.581384 0.227673
H16   H     H_    0.158844 0.085878 0.554523 0.246559
H17   H     H_    0.229120 0.082542 0.723091 0.228722
H18   H     H_    0.138550 0.221159 0.692738 0.222069
H19   H     H_    0.321920 0.224308 0.689204 0.234343
H20   H     H_    0.897908 0.111056 0.611935 0.152326
H21   H     H_    0.747726 0.025121 0.655653 0.129301
H22   H     H_    0.775388 0.311519 0.646955 0.256583
H23   H     H_    0.824532 0.301522 0.373714 0.276789
H24   H     H_    0.619378 0.229585 0.690663 0.203214
H25   H     H_    0.739079 0.128734 0.822096 0.268372
H26   H     H_    0.736742 0.295852 0.830886 0.276026
H27   H     H_    0.892108 0.216492 0.780036 0.263145
H28   H     H_    0.155558 0.789894 0.400260 0.167741
H29   H     H_    0.326269 0.835287 0.357112 0.125899
H30   H     H_    0.079685 0.016464 0.407060 0.233037
H31   H     H_    0.251167 0.059288 0.356810 0.220534
H32   H     H_    0.231034 0.929301 0.206424 0.265197
H33   H     H_    0.098700 0.047248 0.225914 0.264594
H34   H     H_    0.888908 0.336653 0.199074 0.251834
H35   H     H_    0.057958 0.887787 0.257236 0.265464
H36   H     H_    0.038680 0.291034 0.253966 0.232624
H37   H     H_    0.007110 0.454238 0.228296 0.256709
H38   H     H_    0.092602 0.716551 0.650418 0.233123
H39   H     H_    0.146079 0.617908 0.798925 0.242208
H40   H     H_    0.117272 0.468618 0.744827 0.256321
N1    N     N_R   0.142790 0.500030 0.500020 -0.108773
N2    N     N_R   0.857210 0.499970 0.499980 -0.118840
N3    N     N_2   0.881085 0.378328 0.349833 -0.258346
N4    N     N_2   0.115755 0.622819 0.649633 -0.241263
N5    N     N_2   0.322650 0.429373 0.040990 -0.301237
N6    N     N_2   0.691487 0.517520 0.959129 -0.305460
N7    N     N_2   0.750284 0.882759 0.444973 -0.261830
N8    N     N_2   0.246963 0.127257 0.571866 -0.258747
O1    O     O_R   0.385380 0.683250 0.500010 -0.579670
O2    O     O_3   0.248526 0.882903 0.504785 -0.645812
O3    O     O_R   0.614620 0.316750 0.499990 -0.597645
O4    O     O_R   0.614710 0.683220 0.500000 -0.588921
O5    O     O_R   0.385290 0.316780 0.500000 -0.593182
O6    O     O_R   0.368830 0.499990 0.640350 -0.578609
O7    O     O_R   0.631170 0.500010 0.359650 -0.587279
O8    O     O_R   0.598160 0.499960 0.640350 -0.642954
O9    O     O_R   0.401840 0.500040 0.359650 -0.634786
O10   O     O_3   0.747777 0.123754 0.520762 -0.631588
Zn1   Zn    Zn3+2 0.346870 0.500020 0.500000 0.964201
Zn2   Zn    Zn3+2 0.653130 0.499980 0.500000 0.948143

loop_
_geom_bond_atom_site_label_1
_geom_bond_atom_site_label_2
_ccdc_geom_bond_type
C24   H29   S    
C19   H18   S    
C18   H15   S    
C22   H25   S    
C29   O9    A    
O5    Zn1   S    
C1    O4    A    
C15   H40   S    
C12   C23   S    
C12   O5    A    
C26   H35   S    
O6    Zn1   S    
C25   H31   S    
C5    C6    D    
C30   N2    A    
C31   N1    A    
C1    O1    A    
C16   N5    S    
C9    N7    S    
N2    Zn2   S    
C3    C29   S    
C24   O2    S    
C17   H10   S    
C26   H32   S    
O8    Zn2   S    
C2    H12   S    
C18   N7    S    
C28   O8    A    
O9    Zn1   S    
C15   H2    S    
C2    N2    A    
C16   H5    S    
H23   N3    S    
C15   N4    S    
O7    Zn2   S    
C4    C7    T    
C18   H14   S    
C4    C28   S    
H7    N6    S    
C24   C25   S    
N1    Zn1   S    
C3    C8    T    
C32   N1    A    
C10   N8    S    
C6    N5    S    
C25   C26   S    
C20   O10   S    
C13   O2    S    
H3    N5    S    
C12   O3    A    
C2    C31   A    
C17   H8    S    
O3    Zn2   S    
C5    C8    S    
C19   H17   S    
C24   H28   S    
C14   H34   S    
C9    C11   A    
C28   O6    A    
C14   H37   S    
H38   N4    S    
C18   H13   S    
C22   H27   S    
C9    C27   A    
C26   H33   S    
C20   H21   S    
C10   C13   A    
C22   H26   S    
C21   H24   S    
C6    C7    S    
C10   C23   A    
C15   H39   S    
C32   H1    S    
H16   N8    S    
C20   H20   S    
C16   H4    S    
C30   C32   A    
C30   N3    S    
C11   O10   S    
C31   N4    S    
C21   H22   S    
C11   C23   A    
C17   N6    S    
C25   H30   S    
C19   N8    S    
C17   H9    S    
C29   O7    A    
O1    Zn1   S    
C19   H19   S    
C20   C21   S    
C1    C27   S    
C14   H36   S    
C13   C27   A    
O4    Zn2   S    
C5    N6    S    
C21   C22   S    
H11   N7    S    
C14   N3    S    
C16   H6    S    
