data_mof_unit_60786.cif
_audit_creation_date              2012-12-10T17:20:10-0500
_audit_creation_method            fapswitch 2.2
_symmetry_space_group_name_H-M    P1
_symmetry_Int_Tables_number       1
_space_group_crystal_system       triclinic
_cell_length_a                    10.146206
_cell_length_b                    10.837258
_cell_length_c                    14.163158
_cell_angle_alpha                 89.801973
_cell_angle_beta                  81.862527
_cell_angle_gamma                 95.049538
_cell_volume                      1535.47546859

loop_
_atom_site_label
_atom_site_type_symbol
_atom_type_description
_atom_site_fract_x
_atom_site_fract_y
_atom_site_fract_z
_atom_type_partial_charge
C1    C     C_R   0.555955 0.732557 0.491632 0.803667
C2    C     C_1   0.499851 0.500018 0.042627 0.022662
C3    C     C_2   0.587853 0.864289 0.478132 0.444963
C4    C     C_2   0.412070 0.135822 0.496195 0.444310
C5    C     C_2   0.488521 0.933938 0.468133 -0.235100
C6    C     C_2   0.511315 0.066343 0.465810 -0.236305
C7    C     C_2   0.928304 0.511817 0.508020 -0.094087
C8    C     C_2   0.071710 0.488217 0.491945 -0.097763
C9    C     C_R   0.444028 0.267462 0.503171 0.804218
C10   C     C_R   0.500150 0.499966 0.670790 0.900155
C11   C     C_R   0.499850 0.500036 0.329204 0.875795
C12   C     C_1   0.500467 0.499933 0.772239 -0.184282
C13   C     C_1   0.499533 0.500068 0.227760 -0.186090
C14   C     C_1   0.500426 0.499943 0.857471 0.009419
C15   C     C_1   0.499573 0.500056 0.142528 0.005477
C16   C     C_1   0.500148 0.499980 0.957373 0.024165
F1    F     F_    0.284131 0.085589 0.522065 -0.639680
F2    F     F_    0.715831 0.914419 0.477784 -0.640505
H1    H     H_    0.121916 0.618061 0.581461 0.181881
H2    H     H_    0.878071 0.381915 0.418556 0.178439
H3    H     H_    0.613310 0.106932 0.445156 0.208814
H4    H     H_    0.386493 0.893429 0.468391 0.210922
H5    H     H_    0.105542 0.417050 0.442888 0.173284
H6    H     H_    0.894482 0.583006 0.557060 0.174904
N1    N     N_2   0.842710 0.448890 0.464580 -0.181882
N2    N     N_2   0.157290 0.551110 0.535420 -0.182004
O1    O     O_R   0.431050 0.692470 0.507130 -0.638703
O2    O     O_R   0.568950 0.307530 0.492870 -0.637941
O3    O     O_R   0.651120 0.659650 0.484400 -0.559701
O4    O     O_R   0.348880 0.340350 0.515600 -0.558838
O5    O     O_R   0.389940 0.516410 0.637650 -0.581125
O6    O     O_R   0.610060 0.483590 0.362350 -0.588049
O7    O     O_R   0.610010 0.483590 0.614920 -0.586622
O8    O     O_R   0.389990 0.516410 0.385080 -0.593331
Zn1   Zn    Zn3+2 0.353060 0.521920 0.515180 0.979744
Zn2   Zn    Zn3+2 0.646940 0.478080 0.484820 0.979188

loop_
_geom_bond_atom_site_label_1
_geom_bond_atom_site_label_2
_ccdc_geom_bond_type
C2    C16   T    
C7    N1    D    
C3    C5    D    
O7    Zn2   S    
C1    O3    A    
C7    C8    S    
C2    C15   S    
C11   C13   S    
O3    Zn2   S    
C10   C12   S    
C9    O4    A    
C4    F1    S    
O6    Zn2   S    
C12   C14   T    
C11   O6    A    
C10   O7    A    
O5    Zn1   S    
C13   C15   T    
C5    C6    S    
C14   C16   S    
H2    N1    S    
N1    Zn2   S    
C7    H6    S    
O4    Zn1   S    
N2    Zn1   S    
C8    H5    S    
C8    N2    D    
O2    Zn2   S    
C3    F2    S    
C4    C6    D    
O8    Zn1   S    
C1    O1    A    
H1    N2    S    
O1    Zn1   S    
C4    C9    S    
C6    H3    S    
C10   O5    A    
C11   O8    A    
C5    H4    S    
C9    O2    A    
C1    C3    S    
