data_mof_unit_33724.cif
_audit_creation_date              2012-12-11T17:12:40-0500
_audit_creation_method            fapswitch 2.2
_symmetry_space_group_name_H-M    P1
_symmetry_Int_Tables_number       1
_space_group_crystal_system       triclinic
_cell_length_a                    17.277885
_cell_length_b                    6.889749
_cell_length_c                    14.39541
_cell_angle_alpha                 89.999954
_cell_angle_beta                  110.228805
_cell_angle_gamma                 90.000045
_cell_volume                      1607.93567617

loop_
_atom_site_label
_atom_site_type_symbol
_atom_type_description
_atom_site_fract_x
_atom_site_fract_y
_atom_site_fract_z
_atom_type_partial_charge
O1    O     O_R   0.314130 0.635770 0.168990 -0.539885
O2    O     O_R   0.685870 0.364230 0.831010 -0.539885
O3    O     O_R   0.185870 0.135770 0.331010 -0.539885
O4    O     O_R   0.814130 0.864230 0.668990 -0.539885
O5    O     O_R   0.146800 0.302460 0.139760 -0.541904
O6    O     O_R   0.853200 0.697540 0.860240 -0.541904
O7    O     O_R   0.353200 0.802460 0.360240 -0.541904
O8    O     O_R   0.646800 0.197540 0.639760 -0.541904
C1    C     C_R   0.114017 0.475829 0.112790 0.731480
C2    C     C_R   0.885983 0.524171 0.887210 0.731479
C3    C     C_R   0.385983 0.975829 0.387210 0.731480
C4    C     C_R   0.614017 0.024171 0.612790 0.731480
O9    O     O_R   0.311100 0.305780 0.157130 -0.538339
O10   O     O_R   0.688900 0.694220 0.842870 -0.538339
O11   O     O_R   0.188900 0.805780 0.342870 -0.538339
O12   O     O_R   0.811100 0.194220 0.657130 -0.538339
O13   O     O_R   0.351340 0.139640 0.348510 -0.534993
O14   O     O_R   0.648660 0.860360 0.651490 -0.534992
O15   O     O_R   0.148660 0.639640 0.151490 -0.534992
O16   O     O_R   0.851340 0.360360 0.848510 -0.534992
C5    C     C_R   0.334989 0.473829 0.138562 0.693885
C6    C     C_R   0.665011 0.526171 0.861438 0.693885
C7    C     C_R   0.165011 0.973828 0.361438 0.693886
C8    C     C_R   0.834989 0.026171 0.638562 0.693886
C9    C     C_1   0.533571 0.008915 0.533046 -0.172731
C10   C     C_1   0.466429 0.991084 0.466954 -0.172731
C11   C     C_1   0.966429 0.508915 0.966954 -0.172732
C12   C     C_1   0.033571 0.491084 0.033046 -0.172732
O17   O     O_3   0.263010 0.470920 0.312770 -0.367641
O18   O     O_3   0.736990 0.529080 0.687230 -0.367641
O19   O     O_3   0.236990 0.970920 0.187230 -0.367642
O20   O     O_3   0.763010 0.029080 0.812770 -0.367642
V1    V     V_3+5 0.247590 0.194450 0.238360 1.451538
V2    V     V_3+5 0.752410 0.805550 0.761640 1.451538
V3    V     V_3+5 0.252410 0.694450 0.261640 1.451538
V4    V     V_3+5 0.747590 0.305550 0.738360 1.451538
C13   C     C_R   0.112837 0.976131 0.423919 -0.133068
C14   C     C_R   0.887163 0.023869 0.576081 -0.133069
C15   C     C_R   0.387163 0.476133 0.076081 -0.133066
C16   C     C_R   0.612837 0.523867 0.923919 -0.133066
C17   C     C_R   0.911475 0.157679 0.432227 -0.131269
C18   C     C_R   0.088525 0.842321 0.567772 -0.131269
C19   C     C_R   0.588529 0.657667 0.067776 -0.131269
C20   C     C_R   0.411471 0.342333 0.932224 -0.131269
C21   C     C_R   0.862609 0.140227 0.490921 -0.230833
C22   C     C_R   0.137391 0.859773 0.509079 -0.230833
C23   C     C_R   0.637393 0.640216 0.009082 -0.230836
C24   C     C_R   0.362607 0.359783 0.990918 -0.230836
C25   C     C_R   0.963604 0.923094 0.603224 0.302462
C26   C     C_R   0.036396 0.076905 0.396776 0.302462
C27   C     C_R   0.536395 0.423101 0.896774 0.302465
C28   C     C_R   0.463605 0.576899 0.103226 0.302465
C29   C     C_R   0.012882 0.940360 0.542848 0.060794
C30   C     C_R   0.987118 0.059640 0.457152 0.060794
C31   C     C_R   0.487117 0.440364 0.957151 0.060794
C32   C     C_R   0.512883 0.559636 0.042849 0.060794
H1    H     H_    0.195057 0.780384 0.530184 0.144098
H2    H     H_    0.804943 0.219616 0.469816 0.144098
H3    H     H_    0.304939 0.280400 0.969811 0.144096
H4    H     H_    0.695061 0.719600 0.030189 0.144096
H5    H     H_    0.889659 0.249652 0.367330 0.177524
H6    H     H_    0.110341 0.750348 0.632670 0.177524
H7    H     H_    0.610345 0.749634 0.132676 0.177524
H8    H     H_    0.389655 0.250366 0.867324 0.177524
O21   O     O_3   0.006554 0.187168 0.311331 -0.656109
H9    H     H_    0.035738 0.153201 0.265448 0.284993
O22   O     O_3   0.993446 0.812832 0.688669 -0.656109
H10   H     H_    0.964261 0.846799 0.734552 0.284993
O23   O     O_3   0.493450 0.687150 0.188674 -0.656111
H11   H     H_    0.464263 0.653188 0.234556 0.284993
O24   O     O_3   0.506550 0.312850 0.811326 -0.656111
H12   H     H_    0.535737 0.346812 0.765444 0.284993

loop_
_geom_bond_atom_site_label_1
_geom_bond_atom_site_label_2
_ccdc_geom_bond_type
C2    C11   S    
C16   C23   A    
C31   C32   A    
O1    C5    A    
O3    C7    A    
C17   H5    S    
C19   H7    S    
C14   C25   A    
C29   C30   A    
C20   H8    S    
O7    C3    A    
C26   C30   A    
O13   V1    S    
O20   V4    S    
C18   C29   A    
O8    V4    S    
O4    C8    A    
O3    V1    S    
O17   V1    S    
C18   C22   A    
C14   C21   A    
C28   O23   S    
C23   H4    S    
C1    O15   A    
C2    O16   A    
O5    V1    S    
O2    C6    A    
C8    C14   S    
O19   V1    S    
C18   H6    S    
O11   C7    A    
C15   C28   A    
O12   C8    A    
O9    V1    S    
C27   O24   S    
O11   V3    S    
O4    V2    S    
C21   H2    S    
O18   V2    S    
O22   H10   S    
C3    C10   S    
C9    C10   T    
C7    C13   S    
O6    V2    S    
O20   V2    S    
O5    C1    A    
C5    C15   S    
O8    C4    A    
C6    C16   S    
O9    C5    A    
O14   V2    S    
C22   H1    S    
O19   V3    S    
O1    V3    S    
C24   H3    S    
O2    V4    S    
C3    O13   A    
C25   O22   S    
O7    V3    S    
O10   V2    S    
C16   C27   A    
O17   V3    S    
O18   V4    S    
C4    C9    S    
O10   C6    A    
O24   H12   S    
O15   V3    S    
O12   V4    S    
C13   C26   A    
C20   C31   A    
C25   C29   A    
C27   C31   A    
O23   H11   S    
C26   O21   S    
C17   C30   A    
O6    C2    A    
O16   V4    S    
C28   C32   A    
C19   C32   A    
O21   H9    S    
C4    O14   A    
C11   C12   T    
C17   C21   A    
C13   C22   A    
C19   C23   A    
C20   C24   A    
C1    C12   S    
C15   C24   A    
