data_mof_unit_32078.cif
_audit_creation_date              2013-03-05T15:41:05-0500
_audit_creation_method            fapswitch 2.2
_symmetry_space_group_name_H-M    P1
_symmetry_Int_Tables_number       1
_space_group_crystal_system       triclinic
_cell_length_a                    10.939089
_cell_length_b                    11.002704
_cell_length_c                    18.617564
_cell_angle_alpha                 90.392093
_cell_angle_beta                  90.18668
_cell_angle_gamma                 59.838079
_cell_volume                      1937.37179935

loop_
_atom_site_label
_atom_site_type_symbol
_atom_site_description
_atom_site_fract_x
_atom_site_fract_y
_atom_site_fract_z
_atom_type_partial_charge
O1    O     O_R   0.507110 0.256280 0.580300 -0.431895
O2    O     O_R   0.280830 0.527190 0.577940 -0.554712
C1    C     C_R   0.231294 0.648024 0.606779 0.614475
O3    O     O_R   0.261360 0.738990 0.584270 -0.396038
O4    O     O_R   0.532590 0.694780 0.574370 -0.402086
C2    C     C_R   0.626708 0.585419 0.609361 0.592407
O5    O     O_R   0.744470 0.503750 0.577000 -0.438317
O6    O     O_R   0.698520 0.277230 0.571620 -0.534247
C3    C     C_R   0.629279 0.225791 0.601215 0.592366
O7    O     O_R   0.498530 0.256920 0.419280 -0.495907
O8    O     O_R   0.272880 0.527780 0.428680 -0.504674
C4    C     C_R   0.217193 0.651569 0.402890 0.539698
O9    O     O_R   0.252780 0.739630 0.423250 -0.467166
O10   O     O_R   0.524640 0.695370 0.425100 -0.466540
C5    C     C_R   0.612135 0.584049 0.388225 0.559788
O11   O     O_R   0.735890 0.504390 0.415980 -0.421452
O12   O     O_R   0.690560 0.277820 0.422350 -0.457333
C6    C     C_R   0.615365 0.231098 0.393990 0.578238
Cr1   Cr    Cr6+3 0.393010 0.398050 0.501480 1.107631
Cr2   Cr    Cr6+3 0.398820 0.707980 0.501630 1.196977
Cr3   Cr    Cr6+3 0.708140 0.393940 0.496850 1.169578
O13   O     O_3   0.499990 0.499990 0.499980 -0.377483
C7    C     C_3   0.527340 0.730879 0.802757 -0.107319
H1    H     H_    0.477751 0.846889 0.809105 0.179218
H2    H     H_    0.474214 0.698842 0.842669 0.227759
C8    C     C_3   0.503018 0.696236 0.725452 0.668612
H3    H     H_    0.689612 0.844219 0.773472 0.213501
C9    C     C_3   0.747933 0.727906 0.766218 -0.296972
C10   C     C_3   0.763587 0.497721 0.801902 0.103314
C11   C     C_3   0.687819 0.659739 0.817540 -0.140683
H4    H     H_    0.879907 0.455785 0.805465 0.199864
C12   C     C_3   0.647824 0.612870 0.684566 0.010659
C13   C     C_3   0.737468 0.688223 0.688083 0.045065
C14   C     C_3   0.733431 0.469737 0.724787 0.143768
H5    H     H_    0.672551 0.413934 0.725026 0.175128
H6    H     H_    0.860626 0.691217 0.779164 0.116124
H7    H     H_    0.847316 0.610633 0.670813 0.193889
C15   C     C_2   0.676262 0.149873 0.668816 0.383210
C16   C     C_2   0.693654 0.157888 0.825981 0.000596
C17   C     C_2   0.806437 0.102884 0.781763 -0.072548
C18   C     C_2   0.789750 0.134606 0.704445 -0.067606
H8    H     H_    0.911849 0.031130 0.801919 0.213485
H9    H     H_    0.867963 0.151428 0.677779 0.207747
H10   H     H_    0.588594 0.232106 0.806389 0.188919
C19   C     C_2   0.160285 0.671369 0.675548 0.485315
C20   C     C_2   0.181696 0.669538 0.836629 0.449146
C21   C     C_2   0.166977 0.576763 0.795593 -0.091973
C22   C     C_2   0.199143 0.560714 0.719044 -0.053906
H11   H     H_    0.130674 0.509721 0.818297 0.097704
H12   H     H_    0.264137 0.453695 0.699366 0.137393
C23   C     C_2   0.605297 0.599129 0.310097 -0.162866
C24   C     C_2   0.635195 0.659886 0.158949 -0.077293
C25   C     C_2   0.701723 0.530377 0.187685 0.412058
C26   C     C_2   0.709292 0.508732 0.265715 0.222639
H13   H     H_    0.560411 0.751377 0.189559 0.070949
H14   H     H_    0.507333 0.683703 0.288465 0.070565
C27   C     C_2   0.630723 0.196114 0.318676 -0.029519
C28   C     C_2   0.636822 0.206974 0.162436 0.366395
C29   C     C_2   0.516996 0.251976 0.199624 0.157088
C30   C     C_2   0.518401 0.277157 0.276429 -0.114499
H15   H     H_    0.420513 0.360655 0.299479 0.149578
H16   H     H_    0.729407 0.109963 0.298283 0.183756
C31   C     C_2   0.129107 0.684291 0.339175 -0.039884
C32   C     C_2   0.999054 0.749762 0.195160 0.122138
C33   C     C_2   0.014282 0.840638 0.237858 -0.142426
C34   C     C_2   0.046962 0.817001 0.315130 0.200120
H17   H     H_    0.022067 0.926600 0.214332 0.202222
H18   H     H_    0.153178 0.594245 0.305490 0.138012
O14   O     O_R   0.089190 0.825870 0.932320 -0.461532
O15   O     O_R   0.819070 0.053960 0.931440 -0.471617
C35   C     C_R   0.704109 0.099859 0.896986 0.581789
O16   O     O_R   0.607070 0.076440 0.916460 -0.494237
O17   O     O_R   0.647110 0.806550 0.917690 -0.511425
C36   C     C_R   0.718626 0.684250 0.890964 0.568245
O18   O     O_R   0.837080 0.593860 0.915300 -0.485190
O19   O     O_R   0.064770 0.636080 0.932550 -0.543504
C37   C     C_R   0.116372 0.707641 0.906836 0.552883
O20   O     O_R   0.068250 0.829200 0.092940 -0.510950
O21   O     O_R   0.799650 0.057040 0.080330 -0.467625
C38   C     C_R   0.672140 0.115745 0.100668 0.594317
O22   O     O_R   0.586130 0.079760 0.077080 -0.489599
O23   O     O_R   0.627700 0.809630 0.066580 -0.510347
C39   C     C_R   0.691731 0.687507 0.094197 0.590108
O24   O     O_R   0.816140 0.597180 0.075920 -0.393725
O25   O     O_R   0.045360 0.639170 0.081440 -0.414659
C40   C     C_R   0.015469 0.753768 0.117152 0.552690
Cr4   Cr    Cr6+3 0.937950 0.938450 0.008940 1.143523
Cr5   Cr    Cr6+3 0.626180 0.937030 0.994750 1.095204
Cr6   Cr    Cr6+3 0.937790 0.625760 0.001410 1.165497
O26   O     O_3   0.833980 0.833750 0.001700 -0.346664
F1    F     F_    0.861784 0.381101 0.691444 -0.646340
F2    F     F_    0.586883 0.114599 0.700812 -0.603443
F3    F     F_    0.230540 0.751022 0.809022 -0.536059
F4    F     F_    0.072192 0.805546 0.698343 -0.579518
F5    F     F_    0.793314 0.417990 0.146900 -0.492365
N1    N     N_R   0.839039 0.394769 0.293126 0.181692
O27   O     O_R   0.942463 0.414758 0.311354 -0.183530
O28   O     O_R   0.852320 0.272128 0.302517 -0.213884
N2    N     N_R   0.388086 0.273509 0.166991 0.074763
O29   O     O_R   0.351128 0.330256 0.103697 -0.287279
O30   O     O_R   0.296913 0.258561 0.205056 -0.233251
F6    F     F_    0.744179 0.220473 0.190339 -0.587900
F7    F     F_    0.441575 0.613020 0.727995 -0.625806
N3    N     N_R   0.017972 0.935697 0.359509 0.095299
O31   O     O_R   0.957907 0.952364 0.421848 -0.289675
O32   O     O_R   0.067100 0.017005 0.341481 -0.239143
N4    N     N_R   0.955010 0.656845 0.224159 0.038173
O33   O     O_R   0.860773 0.700377 0.275074 -0.339352
O34   O     O_R   0.004834 0.530721 0.198060 -0.192058
F8    F     F_    0.407898 0.819821 0.691598 -0.494340
N5    N     N_R   0.686509 0.809541 0.640110 0.112107
O35   O     O_R   0.558569 0.915621 0.645129 -0.163551
O36   O     O_R   0.770208 0.811089 0.591078 -0.286117
N6    N     N_R   0.726927 0.422831 0.854831 0.056932
O37   O     O_R   0.824728 0.330250 0.896462 -0.287592
O38   O     O_R   0.597151 0.451063 0.862884 -0.362699

loop_
_geom_bond_atom_site_label_1
_geom_bond_atom_site_label_2
_geom_bond_distance
_ccdc_geom_bond_type
O20   Cr4   2.052255 S    
C2    C12   1.472124 S    
C10   N6    1.468526 S    
C8    C12   1.571058 S    
O11   Cr3   2.057802 S    
C25   F5    1.362560 S    
C29   N2    1.440296 S    
O17   C36   1.267215 A    
O14   C37   1.268654 A    
N5    O35   1.299082 A    
N3    O32   1.300090 A    
N6    O37   1.301238 A    
C27   H16   1.085110 S    
C21   H11   1.086387 S    
O4    Cr2   1.942313 S    
O25   C40   1.309371 A    
O8    Cr1   1.931649 S    
C23   H14   1.084777 S    
O4    C2    1.301425 A    
C11   C36   1.462270 S    
O15   Cr4   1.933975 S    
C5    O11   1.295070 A    
C15   F2    1.360023 S    
C14   H5    1.109708 S    
C7    C8    1.542517 S    
C32   C40   1.467630 S    
C14   F1    1.388976 S    
C20   C21   1.343609 D    
C39   O24   1.262873 A    
O6    C3    1.278826 A    
C33   H17   1.086517 S    
N1    O28   1.295595 A    
N4    O33   1.301769 A    
O15   C35   1.268446 A    
C13   N5    1.468171 S    
C5    C23   1.462519 S    
C8    F8    1.383693 S    
C26   N1    1.436249 S    
O14   Cr4   2.058682 S    
C24   H13   1.083972 S    
C28   C38   1.441056 S    
O19   Cr6   1.938551 S    
O20   C40   1.309101 A    
C22   H12   1.086623 S    
C31   C34   1.351950 D    
C29   C30   1.456153 S    
Cr3   O13   1.969667 S    
C18   H9    1.084391 S    
C19   F4    1.361142 S    
O21   Cr4   1.939985 S    
N3    O31   1.301274 A    
O16   Cr5   2.056065 S    
O6    Cr3   1.938820 S    
O1    Cr1   2.051177 S    
C36   O18   1.257281 A    
C7    C11   1.545697 S    
C34   N3    1.435116 S    
Cr1   O13   1.986949 S    
O1    C3    1.264136 A    
O19   C37   1.273302 A    
C15   C18   1.340167 D    
C16   C17   1.347442 D    
C4    C31   1.454323 S    
O25   Cr6   1.945883 S    
C27   C30   1.351211 D    
C28   C29   1.338534 D    
O5    Cr3   2.073241 S    
C10   C14   1.535499 S    
C1    C19   1.452592 S    
C13   H7    1.115350 S    
C30   H15   1.088050 S    
C12   C14   1.564424 S    
C24   C39   1.458367 S    
O17   Cr5   1.953301 S    
C10   C11   1.568196 S    
O10   Cr2   1.939547 S    
C8    F7    1.382586 S    
C6    C27   1.439313 S    
C21   C22   1.457201 S    
O7    Cr1   2.064813 S    
C7    H1    1.113571 S    
N1    O27   1.300020 A    
O12   C6    1.279859 A    
N5    O36   1.301243 A    
C2    O5    1.290093 A    
C28   F6    1.356969 S    
C17   C18   1.472532 S    
N2    O30   1.301936 A    
Cr2   O13   1.979137 S    
C9    C13   1.536334 S    
O23   C39   1.273502 A    
O24   Cr6   2.057321 S    
C1    O3    1.273953 A    
C24   C25   1.346163 D    
C32   N4    1.439799 S    
C19   C22   1.345346 D    
C31   H18   1.083800 S    
O9    Cr2   2.058041 S    
O2    Cr1   1.944917 S    
Cr5   O26   1.969667 S    
C38   O22   1.266541 A    
C20   C37   1.446515 S    
N6    O38   1.300744 A    
O8    C4    1.276712 A    
C25   C26   1.469070 S    
C16   H10   1.085788 S    
N2    O29   1.301976 A    
C23   C26   1.350559 D    
C12   C13   1.571342 S    
C9    C11   1.554810 S    
O2    C1    1.271873 A    
C35   O16   1.266228 A    
C10   H4    1.116364 S    
C32   C33   1.347243 D    
N4    O34   1.300517 A    
C20   F3    1.357536 S    
O7    C6    1.254218 A    
O23   Cr5   1.937945 S    
C17   H8    1.086363 S    
C3    C15   1.457621 S    
C7    H2    1.107416 S    
O12   Cr3   1.952957 S    
O22   Cr5   2.070659 S    
O18   Cr6   2.067934 S    
O21   C38   1.265268 A    
O3    Cr2   2.058392 S    
C4    O9    1.267692 A    
C9    H6    1.113581 S    
C33   C34   1.474239 S    
Cr4   O26   1.988027 S    
H3    C9    1.113903 S    
C16   C35   1.451011 S    
O10   C5    1.304732 A    
Cr6   O26   1.978642 S    
