data_mof_unit_21758.cif
_audit_creation_date              2012-12-11T15:48:00-0500
_audit_creation_method            fapswitch 2.2
_symmetry_space_group_name_H-M    P1
_symmetry_Int_Tables_number       1
_space_group_crystal_system       triclinic
_cell_length_a                    6.931932
_cell_length_b                    17.679823
_cell_length_c                    19.390544
_cell_angle_alpha                 108.638889
_cell_angle_beta                  89.70969
_cell_angle_gamma                 90.118927
_cell_volume                      2251.74646815

loop_
_atom_site_label
_atom_site_type_symbol
_atom_type_description
_atom_site_fract_x
_atom_site_fract_y
_atom_site_fract_z
_atom_type_partial_charge
O1    O     O_R   0.494330 0.415710 0.413720 -0.538715
O2    O     O_R   0.819360 0.430070 0.560210 -0.536407
O3    O     O_R   0.994320 0.584290 0.586280 -0.518048
C1    C     C_R   0.650953 0.415857 0.582374 0.719632
O4    O     O_R   0.823740 0.406290 0.412670 -0.545593
O5    O     O_R   0.998730 0.560340 0.437690 -0.540863
C2    C     C_R   0.655434 0.382241 0.385397 0.712581
O6    O     O_R   0.489920 0.439660 0.562310 -0.542472
O7    O     O_3   0.662330 0.550570 0.508380 -0.371723
V1    V     V_3+5 0.935370 0.490620 0.498440 1.411989
O8    O     O_R   0.328720 0.569930 0.439790 -0.543629
C3    C     C_R   0.160166 0.585154 0.418194 0.705265
O9    O     O_R   0.324340 0.593710 0.587330 -0.554780
C4    C     C_R   0.154916 0.615346 0.616279 0.723261
V2    V     V_3+5 0.435940 0.509380 0.501560 1.382320
O10   O     O_3   0.159110 0.449430 0.491620 -0.371271
C5    C     C_R   0.283396 0.742262 0.703059 -0.236085
C6    C     C_R   0.277520 0.804659 0.769011 -0.164104
H1    H     H_    0.393821 0.847374 0.781236 0.123624
C7    C     C_R   0.122958 0.812247 0.817844 -0.081631
C8    C     C_R   0.983098 0.751648 0.802138 -0.212476
C9    C     C_R   0.994598 0.685630 0.737922 0.289670
C10   C     C_R   0.142710 0.682061 0.686315 -0.077458
C11   C     C_R   0.989026 0.630907 0.324486 -0.220175
C12   C     C_R   0.151425 0.634629 0.368902 -0.084531
C13   C     C_R   0.305958 0.685208 0.365347 -0.224271
C14   C     C_R   0.298418 0.731960 0.318794 0.089368
C15   C     C_R   0.136122 0.727010 0.273890 0.053196
C16   C     C_R   0.981311 0.676032 0.276564 0.089024
C17   C     C_R   0.450354 0.783682 0.316326 -0.183457
C18   C     C_R   0.443020 0.829250 0.269119 -0.188969
C19   C     C_R   0.283462 0.824073 0.223524 0.088645
C20   C     C_R   0.128653 0.773096 0.226200 0.052973
C21   C     C_R   0.966369 0.768132 0.181288 0.089793
C22   C     C_R   0.814407 0.716431 0.183772 -0.183909
C23   C     C_R   0.821730 0.670872 0.230984 -0.190802
C24   C     C_R   0.275778 0.869168 0.175573 -0.216403
C25   C     C_R   0.113423 0.865400 0.131123 -0.083572
C26   C     C_R   0.958874 0.814841 0.134700 -0.224451
H2    H     H_    0.575784 0.788522 0.350602 0.134865
H3    H     H_    0.562984 0.868237 0.267974 0.132938
H4    H     H_    0.395123 0.908230 0.173745 0.124572
H5    H     H_    0.688975 0.711592 0.149496 0.134407
C27   C     C_R   0.776974 0.180398 0.864894 -0.260563
C28   C     C_R   0.615232 0.132653 0.866345 -0.143137
C29   C     C_R   0.456215 0.132608 0.819472 0.233814
C30   C     C_R   0.464107 0.178669 0.772024 0.057735
C31   C     C_R   0.626489 0.226908 0.772395 -0.005361
C32   C     C_R   0.782529 0.228161 0.819221 0.094615
C33   C     C_R   0.311177 0.177475 0.723906 -0.162268
C34   C     C_R   0.317771 0.223889 0.677862 -0.213961
C35   C     C_R   0.476735 0.272839 0.678684 0.099791
C36   C     C_R   0.632597 0.274185 0.725713 0.072010
C37   C     C_R   0.794364 0.322770 0.726055 0.086874
C38   C     C_R   0.947338 0.324608 0.773714 -0.192563
C39   C     C_R   0.941597 0.277658 0.819775 -0.166768
C40   C     C_R   0.482299 0.320166 0.632949 -0.230588
C41   C     C_R   0.643922 0.367672 0.632133 -0.088886
C42   C     C_R   0.799955 0.368581 0.678739 -0.217951
H6    H     H_    0.897641 0.181647 0.900598 0.136597
H7    H     H_    0.184113 0.141106 0.721766 0.173994
H8    H     H_    0.197241 0.221912 0.641925 0.135087
H9    H     H_    0.362206 0.318879 0.596951 0.129074
H10   H     H_    0.924721 0.405708 0.678800 0.132660
C43   C     C_R   0.772941 0.246926 0.302053 0.291477
C44   C     C_R   0.756653 0.184026 0.236356 -0.247984
H11   H     H_    0.853722 0.133597 0.226106 0.143095
C45   C     C_R   0.617514 0.184929 0.184298 -0.135739
C46   C     C_R   0.489481 0.250332 0.199418 0.293412
C47   C     C_R   0.505158 0.313506 0.265229 -0.262034
H12   H     H_    0.407807 0.363833 0.275354 0.131442
C48   C     C_R   0.646067 0.313239 0.317022 -0.139594
O11   O     O_R   0.774940 0.060470 0.937800 -0.541429
O12   O     O_R   0.440880 0.093730 0.087350 -0.521756
O13   O     O_R   0.266130 0.939630 0.062280 -0.541294
C49   C     C_R   0.609042 0.117174 0.115103 0.738855
O14   O     O_R   0.445480 0.069960 0.939820 -0.537867
O15   O     O_R   0.270770 0.915690 0.913690 -0.538338
C50   C     C_R   0.612946 0.084199 0.917110 0.729273
O16   O     O_R   0.770300 0.084410 0.086380 -0.549901
O17   O     O_3   0.602600 0.949510 0.991670 -0.372128
V3    V     V_3+5 0.329470 0.009370 0.001550 1.414493
O18   O     O_R   0.940760 0.906160 0.912560 -0.542460
C51   C     C_R   0.110558 0.882127 0.885398 0.699149
O19   O     O_R   0.936150 0.929930 0.060100 -0.544454
C52   C     C_R   0.104696 0.914817 0.081784 0.704367
V4    V     V_3+5 0.828930 0.990450 0.998310 1.387571
O20   O     O_3   0.105670 0.050490 0.008320 -0.369041
H13   H     H_    0.399743 0.740828 0.665211 0.129917
H14   H     H_    0.833417 0.811126 0.100610 0.128233
H15   H     H_    0.701754 0.631894 0.232136 0.131777
N1    N     N_2   0.289244 0.084785 0.816944 -0.536438
H16   H     H_    0.212364 0.094765 0.864568 0.275828
C53   C     C_3   0.308885 0.002629 0.771978 -0.526889
H17   H     H_    0.429854 0.974584 0.791963 0.179533
H18   H     H_    0.338505 0.999211 0.714707 0.197723
H19   H     H_    0.172828 0.969989 0.773543 0.188228
H20   H     H_    0.072376 0.361904 0.774964 0.133709
H21   H     H_    0.062444 0.279710 0.855567 0.130674
N2    N     N_2   0.916409 0.240628 0.352095 -0.526157
H22   H     H_    0.012763 0.287359 0.367664 0.271507
C54   C     C_3   0.845823 0.215056 0.411380 -0.517792
H23   H     H_    0.969435 0.206473 0.444305 0.190519
H24   H     H_    0.767854 0.157358 0.389797 0.200245
H25   H     H_    0.747681 0.260641 0.447164 0.175580
N3    N     N_2   0.351554 0.255204 0.146994 -0.526542
H26   H     H_    0.356155 0.309038 0.136891 0.241374
C55   C     C_3   0.157315 0.234950 0.162245 -0.466022
H27   H     H_    0.101197 0.280046 0.212425 0.172811
H28   H     H_    0.153994 0.174989 0.169207 0.209827
H29   H     H_    0.061959 0.233789 0.116079 0.186244
H30   H     H_    0.868296 0.754082 0.840919 0.122929
N4    N     N_2   0.868353 0.619698 0.728741 -0.538383
H31   H     H_    0.872329 0.597806 0.772058 0.242831
C56   C     C_3   0.673113 0.633195 0.709980 -0.481862
H32   H     H_    0.603158 0.679633 0.755963 0.177996
H33   H     H_    0.589112 0.577028 0.698443 0.185092
H34   H     H_    0.672444 0.652073 0.660597 0.213211
H35   H     H_    0.869677 0.591844 0.326307 0.124291
H36   H     H_    0.431433 0.688899 0.399423 0.128357

loop_
_geom_bond_atom_site_label_1
_geom_bond_atom_site_label_2
_ccdc_geom_bond_type
C27   C32   A    
O18   V4    S    
C38   C39   A    
C44   C45   A    
C22   C23   A    
C1    O6    A    
O17   V3    S    
O19   C52   A    
C35   C36   A    
C16   C23   A    
C13   C14   A    
C5    C10   A    
O12   C49   A    
C25   C52   S    
N1    H16   S    
C15   C16   A    
C13   H36   S    
C6    H1    S    
O16   V4    S    
O5    C3    A    
C17   C18   A    
C54   H24   S    
C29   N1    S    
N3    H26   S    
C56   H32   S    
C55   H27   S    
C54   H25   S    
C5    C6    A    
C21   C22   A    
C24   H4    S    
C11   C16   A    
O11   V4    S    
C29   C30   A    
O8    V2    S    
C9    N4    S    
C30   C31   A    
C55   H28   S    
C45   C46   A    
C56   H33   S    
C47   H12   S    
O1    V2    S    
C22   H5    S    
O7    V1    S    
C26   H14   S    
O19   V4    S    
C44   H11   S    
C8    C9    A    
C14   C17   A    
C54   H23   S    
C34   H8    S    
O12   V3    S    
N1    C53   S    
C40   H9    S    
C30   C33   A    
C37   C42   A    
O14   C50   A    
C31   C36   A    
C34   C35   A    
C5    H13   S    
C11   C12   A    
C2    C48   S    
O4    C2    A    
C53   H19   S    
C41   C42   A    
C28   C29   A    
C21   C26   A    
C4    C10   S    
O2    C1    A    
C43   C48   A    
C24   C25   A    
O15   C51   A    
O15   V3    S    
O13   C52   A    
O18   C51   A    
C46   N3    S    
C56   H34   S    
N2    C54   S    
C33   C34   A    
O11   C50   A    
C17   H2    S    
C53   H17   S    
C28   C50   S    
C19   C24   A    
C53   H18   S    
O17   V4    S    
O3    C4    A    
C23   H15   S    
C31   C32   A    
C15   C20   A    
O6    V2    S    
C7    C51   S    
O2    V1    S    
C8    H30   S    
C27   C28   A    
N4    H31   S    
C37   C38   A    
C11   H35   S    
C18   H3    S    
O1    C2    A    
C18   C19   A    
C49   O16   A    
C43   N2    S    
O5    V1    S    
O8    C3    A    
O13   V3    S    
C36   C37   A    
C45   C49   S    
C32   C39   A    
C55   H29   S    
C3    C12   S    
C19   C20   A    
O9    V2    S    
C12   C13   A    
O4    V1    S    
O3    V1    S    
V1    O10   S    
C40   C41   A    
C25   C26   A    
N3    C55   S    
O14   V3    S    
C27   H6    S    
V3    O20   S    
C38   H20   S    
N2    H22   S    
C20   C21   A    
C6    C7    A    
O7    V2    S    
C46   C47   A    
C35   C40   A    
C42   H10   S    
C7    C8    A    
V4    O20   S    
C43   C44   A    
C1    C41   S    
C14   C15   A    
C33   H7    S    
C9    C10   A    
C47   C48   A    
C39   H21   S    
O9    C4    A    
V2    O10   S    
N4    C56   S    
