data_mof_unit_29717.cif
_audit_creation_date              2012-12-10T20:52:58-0500
_audit_creation_method            fapswitch 2.2
_symmetry_space_group_name_H-M    P1
_symmetry_Int_Tables_number       1
_space_group_crystal_system       triclinic
_cell_length_a                    18.361828
_cell_length_b                    18.361828
_cell_length_c                    18.361855
_cell_angle_alpha                 59.912475
_cell_angle_beta                  59.9125
_cell_angle_gamma                 59.912571
_cell_volume                      4368.88521825

loop_
_atom_site_label
_atom_site_type_symbol
_atom_type_description
_atom_site_fract_x
_atom_site_fract_y
_atom_site_fract_z
_atom_type_partial_charge
C1    C     C_R   0.389872 0.108917 0.111389 0.817390
C2    C     C_R   0.381469 0.805135 0.779639 -0.125452
C3    C     C_R   0.035782 0.545667 0.907963 0.060046
C4    C     C_R   0.454334 0.092038 0.964217 0.060046
C5    C     C_R   0.545666 0.907962 0.035783 0.060046
C6    C     C_R   0.948046 0.943885 0.554239 -0.158478
C7    C     C_R   0.051954 0.056115 0.445761 -0.158479
C8    C     C_R   0.943885 0.554239 0.948046 -0.158479
C9    C     C_R   0.056115 0.445761 0.051954 -0.158479
C10   C     C_R   0.554239 0.948046 0.943885 -0.158479
C11   C     C_R   0.445761 0.051954 0.056115 -0.158479
C12   C     C_1   0.044074 0.744802 0.573867 0.106515
C13   C     C_R   0.194865 0.220360 0.618531 -0.125452
C14   C     C_1   0.955926 0.255198 0.426133 0.106516
C15   C     C_1   0.744802 0.573867 0.044075 0.106515
C16   C     C_1   0.255198 0.426133 0.955925 0.106515
C17   C     C_1   0.573868 0.044075 0.744802 0.106514
C18   C     C_1   0.426132 0.955925 0.255198 0.106514
C19   C     C_R   0.805135 0.779640 0.381469 -0.125452
C20   C     C_R   0.177968 0.577246 0.284824 -0.130859
C21   C     C_R   0.822032 0.422754 0.715175 -0.130860
C22   C     C_R   0.577245 0.284825 0.177968 -0.130859
C23   C     C_R   0.422755 0.715175 0.822032 -0.130859
C24   C     C_R   0.284825 0.177968 0.577245 -0.130860
C25   C     C_R   0.715175 0.822032 0.422755 -0.130859
C26   C     C_R   0.088203 0.585243 0.314789 0.147559
C27   C     C_R   0.610128 0.891083 0.888611 0.817389
C28   C     C_R   0.911797 0.414757 0.685211 0.147559
C29   C     C_R   0.585243 0.314789 0.088204 0.147560
C30   C     C_R   0.414757 0.685211 0.911796 0.147560
C31   C     C_R   0.314789 0.088203 0.585243 0.147560
C32   C     C_R   0.685211 0.911796 0.414757 0.147559
C33   C     C_R   0.041333 0.634981 0.254111 -0.138376
C34   C     C_R   0.958666 0.365018 0.745889 -0.138376
C35   C     C_R   0.634982 0.254111 0.041334 -0.138376
C36   C     C_R   0.365018 0.745889 0.958666 -0.138376
C37   C     C_R   0.254111 0.041334 0.634981 -0.138376
C38   C     C_R   0.108917 0.111389 0.389872 0.817390
C39   C     C_R   0.745889 0.958666 0.365019 -0.138375
C40   C     C_R   0.083881 0.676289 0.164312 -0.124490
C41   C     C_R   0.916119 0.323711 0.835688 -0.124490
C42   C     C_R   0.676290 0.164312 0.083882 -0.124492
C43   C     C_R   0.323710 0.835688 0.916118 -0.124492
C44   C     C_R   0.164312 0.083881 0.676289 -0.124491
C45   C     C_R   0.835688 0.916118 0.323711 -0.124492
C46   C     C_R   0.173298 0.668045 0.134701 -0.111688
C47   C     C_R   0.826702 0.331955 0.865299 -0.111688
C48   C     C_R   0.668044 0.134701 0.173299 -0.111688
C49   C     C_R   0.891082 0.888611 0.610128 0.817389
C50   C     C_R   0.331956 0.865298 0.826701 -0.111688
C51   C     C_R   0.134701 0.173298 0.668044 -0.111688
C52   C     C_R   0.865298 0.826701 0.331956 -0.111688
C53   C     C_R   0.988111 0.590996 0.464730 -0.260874
C54   C     C_R   0.011889 0.409004 0.535270 -0.260874
C55   C     C_R   0.590996 0.464730 0.988111 -0.260875
C56   C     C_R   0.409004 0.535270 0.011889 -0.260875
C57   C     C_R   0.464730 0.988111 0.590996 -0.260875
C58   C     C_R   0.535270 0.011889 0.409004 -0.260875
C59   C     C_R   0.944430 0.552458 0.555077 -0.052633
C60   C     C_R   0.111388 0.389872 0.108917 0.817389
C61   C     C_R   0.055570 0.447542 0.444923 -0.052633
C62   C     C_R   0.552458 0.555077 0.944430 -0.052632
C63   C     C_R   0.447542 0.444923 0.055570 -0.052631
C64   C     C_R   0.555077 0.944430 0.552458 -0.052632
C65   C     C_R   0.444923 0.055570 0.447542 -0.052632
C66   C     C_R   0.956358 0.460210 0.590817 -0.015631
C67   C     C_R   0.043642 0.539790 0.409183 -0.015631
C68   C     C_R   0.460210 0.590817 0.956358 -0.015631
C69   C     C_R   0.539790 0.409183 0.043642 -0.015631
C70   C     C_R   0.590817 0.956358 0.460210 -0.015630
C71   C     C_R   0.888611 0.610128 0.891083 0.817390
C72   C     C_R   0.409183 0.043642 0.539790 -0.015630
C73   C     C_R   0.110988 0.390418 0.389753 0.807289
C74   C     C_R   0.889012 0.609582 0.610247 0.807289
C75   C     C_R   0.390418 0.389753 0.110988 0.807289
C76   C     C_R   0.609582 0.610247 0.889012 0.807288
C77   C     C_R   0.389753 0.110988 0.390418 0.807289
C78   C     C_R   0.610247 0.889012 0.609582 0.807290
C79   C     C_R   0.184238 0.928893 0.408512 -0.144304
C80   C     C_R   0.815762 0.071107 0.591488 -0.144304
C81   C     C_R   0.928893 0.408514 0.184239 -0.144304
C82   C     C_R   0.220360 0.618532 0.194865 -0.125453
C83   C     C_R   0.071107 0.591486 0.815761 -0.144304
C84   C     C_R   0.408517 0.184239 0.928892 -0.144304
C85   C     C_R   0.591483 0.815761 0.071108 -0.144304
C86   C     C_R   0.225363 0.839359 0.416730 -0.165847
C87   C     C_R   0.774636 0.160641 0.583270 -0.165847
C88   C     C_R   0.839358 0.416732 0.225364 -0.165846
C89   C     C_R   0.160641 0.583268 0.774636 -0.165847
C90   C     C_R   0.416736 0.225365 0.839358 -0.165846
C91   C     C_R   0.583264 0.774635 0.160642 -0.165847
C92   C     C_R   0.176598 0.781881 0.471192 -0.181306
C93   C     C_R   0.779640 0.381468 0.805135 -0.125452
C94   C     C_R   0.823402 0.218120 0.528808 -0.181307
C95   C     C_R   0.781880 0.471194 0.176598 -0.181306
C96   C     C_R   0.218120 0.528806 0.823402 -0.181306
C97   C     C_R   0.471197 0.176599 0.781879 -0.181307
C98   C     C_R   0.528803 0.823401 0.218121 -0.181306
C99   C     C_R   0.085568 0.813057 0.518022 0.029166
C100  C     C_R   0.914431 0.186943 0.481978 0.029166
C101  C     C_R   0.813056 0.518023 0.085569 0.029166
C102  C     C_R   0.186943 0.481977 0.914431 0.029166
C103  C     C_R   0.518025 0.085570 0.813056 0.029165
C104  C     C_R   0.618531 0.194865 0.220360 -0.125452
C105  C     C_R   0.481975 0.914430 0.186944 0.029165
C106  C     C_R   0.040645 0.906311 0.509600 0.025665
C107  C     C_R   0.959355 0.093689 0.490400 0.025665
C108  C     C_R   0.906310 0.509601 0.040645 0.025665
C109  C     C_R   0.093689 0.490399 0.959355 0.025665
C110  C     C_R   0.509602 0.040645 0.906310 0.025665
C111  C     C_R   0.490398 0.959355 0.093690 0.025665
C112  C     C_R   0.092037 0.964218 0.454332 0.060045
C113  C     C_R   0.907963 0.035782 0.545668 0.060045
C114  C     C_R   0.964217 0.454332 0.092037 0.060046
H1    H     H_    0.789406 0.288119 0.522856 0.134896
H2    H     H_    0.338711 0.562812 0.019620 0.174846
H3    H     H_    0.437188 0.980380 0.661289 0.174845
H4    H     H_    0.562812 0.019620 0.338711 0.174845
H5    H     H_    0.226278 0.969951 0.365464 0.147744
H6    H     H_    0.773721 0.030049 0.634536 0.147744
H7    H     H_    0.969950 0.365466 0.226279 0.147744
H8    H     H_    0.030050 0.634534 0.773721 0.147744
H9    H     H_    0.365469 0.226280 0.969949 0.147743
H10   H     H_    0.634531 0.773720 0.030051 0.147743
H11   H     H_    0.295876 0.814277 0.380918 0.145177
H12   H     H_    0.210594 0.711881 0.477144 0.134896
H13   H     H_    0.704124 0.185723 0.619082 0.145177
H14   H     H_    0.814276 0.380921 0.295877 0.145177
H15   H     H_    0.185724 0.619079 0.704123 0.145177
H16   H     H_    0.380925 0.295879 0.814275 0.145177
H17   H     H_    0.619075 0.704121 0.185725 0.145177
H18   H     H_    0.206014 0.699837 0.065086 0.127537
H19   H     H_    0.793985 0.300163 0.934914 0.127537
H20   H     H_    0.699837 0.065086 0.206016 0.127537
H21   H     H_    0.300163 0.934914 0.793984 0.127537
H22   H     H_    0.065086 0.206015 0.699837 0.127537
H23   H     H_    0.288120 0.522854 0.789405 0.134896
H24   H     H_    0.934913 0.793985 0.300163 0.127537
H25   H     H_    0.289732 0.611822 0.171778 0.122304
H26   H     H_    0.710268 0.388178 0.828222 0.122303
H27   H     H_    0.611820 0.171779 0.289733 0.122304
H28   H     H_    0.388179 0.828221 0.710267 0.122304
H29   H     H_    0.171779 0.289732 0.611821 0.122303
H30   H     H_    0.828221 0.710267 0.388179 0.122303
H31   H     H_    0.215011 0.538590 0.330900 0.105295
H32   H     H_    0.784988 0.461410 0.669100 0.105296
H33   H     H_    0.538589 0.330900 0.215012 0.105295
H34   H     H_    0.711880 0.477146 0.210595 0.134896
H35   H     H_    0.461411 0.669100 0.784988 0.105295
H36   H     H_    0.330900 0.215012 0.538589 0.105296
H37   H     H_    0.669100 0.784988 0.461411 0.105295
H38   H     H_    0.972297 0.640992 0.276234 0.118421
H39   H     H_    0.027703 0.359008 0.723766 0.118421
H40   H     H_    0.640993 0.276233 0.972297 0.118421
H41   H     H_    0.359007 0.723767 0.027703 0.118421
H42   H     H_    0.276233 0.972297 0.640992 0.118421
H43   H     H_    0.723767 0.027703 0.359007 0.118421
H44   H     H_    0.047640 0.714405 0.117614 0.132345
H45   H     H_    0.522850 0.789403 0.288120 0.134896
H46   H     H_    0.952360 0.285595 0.882386 0.132345
H47   H     H_    0.714406 0.117614 0.047642 0.132345
H48   H     H_    0.285594 0.882386 0.952358 0.132345
H49   H     H_    0.117613 0.047641 0.714405 0.132345
H50   H     H_    0.882387 0.952359 0.285594 0.132345
H51   H     H_    0.477150 0.210596 0.711880 0.134896
H52   H     H_    0.980380 0.661289 0.437188 0.174845
H53   H     H_    0.019620 0.338711 0.562812 0.174845
H54   H     H_    0.661289 0.437188 0.980380 0.174846
N1    N     N_1   0.011873 0.689331 0.618033 -0.229607
N2    N     N_1   0.988127 0.310669 0.381967 -0.229607
N3    N     N_1   0.689331 0.618031 0.011873 -0.229606
N4    N     N_1   0.310668 0.381969 0.988127 -0.229607
N5    N     N_1   0.618032 0.011874 0.689331 -0.229606
N6    N     N_1   0.381967 0.988126 0.310668 -0.229606
O1    O     O_3   0.250000 0.250000 0.250000 -0.486956
O2    O     O_R   0.865800 0.694910 0.573470 -0.635880
O3    O     O_R   0.305090 0.426530 0.134200 -0.635880
O4    O     O_R   0.694910 0.573470 0.865800 -0.635880
O5    O     O_R   0.426530 0.134200 0.305090 -0.635879
O6    O     O_R   0.573470 0.865800 0.694910 -0.635880
O7    O     O_R   0.134190 0.426530 0.134200 -0.623590
O8    O     O_R   0.865810 0.573470 0.865800 -0.623591
O9    O     O_R   0.426530 0.134200 0.134190 -0.623591
O10   O     O_R   0.573470 0.865800 0.865810 -0.623591
O11   O     O_R   0.134200 0.134190 0.426530 -0.623591
O12   O     O_3   0.750000 0.750000 0.750000 -0.486956
O13   O     O_R   0.865800 0.865810 0.573470 -0.623591
O14   O     O_R   0.426530 0.305080 0.134210 -0.632652
O15   O     O_R   0.573470 0.694920 0.865790 -0.632652
O16   O     O_R   0.305080 0.134210 0.426530 -0.632652
O17   O     O_R   0.694920 0.865790 0.573470 -0.632652
O18   O     O_R   0.134210 0.426530 0.305080 -0.632652
O19   O     O_R   0.865790 0.573470 0.694920 -0.632652
O20   O     O_R   0.305080 0.134200 0.134200 -0.639505
O21   O     O_R   0.694920 0.865800 0.865800 -0.639505
O22   O     O_R   0.134200 0.134200 0.305080 -0.639506
O23   O     O_R   0.865800 0.865800 0.694920 -0.639506
O24   O     O_R   0.134200 0.305080 0.134200 -0.639505
O25   O     O_R   0.865800 0.694920 0.865800 -0.639505
O26   O     O_R   0.134200 0.305090 0.426530 -0.635880
Zn1   Zn    Zn3+2 0.206620 0.206630 0.380140 0.998586
Zn2   Zn    Zn3+2 0.793380 0.793370 0.619860 0.998586
Zn3   Zn    Zn3+2 0.206630 0.380140 0.206620 0.998586
Zn4   Zn    Zn3+2 0.793370 0.619860 0.793380 0.998586
Zn5   Zn    Zn3+2 0.380140 0.206620 0.206630 0.998586
Zn6   Zn    Zn3+2 0.619860 0.793380 0.793370 0.998586
Zn7   Zn    Zn3+2 0.206620 0.206620 0.206620 0.998137
Zn8   Zn    Zn3+2 0.793380 0.793380 0.793380 0.998138

loop_
_geom_bond_atom_site_label_1
_geom_bond_atom_site_label_2
_ccdc_geom_bond_type
C10   C27   S    
C80   H6    S    
C19   H30   S    
C22   C29   A    
C20   C82   A    
C75   O14   A    
C1    C11   S    
C35   H40   S    
O1    Zn7   S    
C54   H53   S    
C14   N2    T    
C87   H13   S    
C1    O9    A    
C42   H47   S    
C22   C104  A    
C49   O23   A    
C84   H9    S    
C40   C46   A    
O20   Zn7   S    
O13   Zn2   S    
C77   O5    A    
O19   Zn4   S    
C21   C93   A    
C79   C112  A    
C103  C110  A    
C78   O6    A    
C26   C67   S    
C40   H44   S    
C73   O26   A    
C45   H50   S    
C3    C109  A    
C80   C87   A    
C76   O4    A    
C50   H21   S    
C59   C66   A    
C46   H18   S    
C97   H51   S    
C91   H17   S    
C96   C102  A    
C108  C114  A    
C48   C104  A    
C87   C94   A    
C58   H4    S    
O10   Zn6   S    
C7    C112  A    
O12   Zn2   S    
C85   H10   S    
C32   C39   A    
O11   Zn1   S    
C35   C42   A    
C16   N4    T    
C27   O10   A    
C107  C113  A    
C12   C99   S    
C76   O15   A    
C2    C50   A    
C46   C82   A    
C19   C52   A    
C7    C38   S    
O21   Zn8   S    
C63   C69   A    
O26   Zn1   S    
C8    C71   S    
C79   H5    S    
C81   C114  A    
O23   Zn8   S    
C52   H24   S    
O3    Zn3   S    
O5    Zn5   S    
C44   H49   S    
C64   C70   A    
C90   C97   A    
C53   C59   A    
C89   C96   A    
C60   O24   A    
C39   C45   A    
C5    C85   A    
C101  C108  A    
C23   H35   S    
C88   C95   A    
C28   C34   A    
C57   C72   A    
C13   C51   A    
C39   H43   S    
C86   H11   S    
C9    C109  A    
C71   O8    A    
C62   C76   S    
O7    Zn3   S    
C34   C41   A    
C84   C90   A    
C55   H54   S    
O6    Zn6   S    
C8    C108  A    
C17   N5    T    
C29   C69   S    
C85   C91   A    
C83   C89   A    
O14   Zn5   S    
C33   C40   A    
C65   C77   S    
O12   Zn6   S    
C11   C111  A    
C81   C88   A    
C23   C30   A    
O2    Zn2   S    
O1    Zn1   S    
C3    C8    A    
C96   H23   S    
C58   C70   A    
C106  C112  A    
C56   H2    S    
C45   C52   A    
C61   C73   S    
C56   C68   A    
C31   C37   A    
C13   C24   A    
C81   H7    S    
C28   C66   S    
C43   H48   S    
C6    C113  A    
C74   O2    A    
C82   H25   S    
C41   H46   S    
C51   H22   S    
C61   C67   A    
C58   C65   A    
C98   C105  A    
C4    C84   A    
C94   C100  A    
O15   Zn6   S    
C41   C47   A    
C56   C63   A    
C15   N3    T    
C49   O13   A    
C43   C50   A    
C42   C48   A    
C15   C101  S    
C4    C11   A    
C14   C100  S    
C6    C106  A    
C59   C74   S    
C97   C103  A    
C24   H36   S    
C18   N6    T    
C44   C51   A    
C16   C102  S    
C31   C72   S    
O17   Zn2   S    
C21   C28   A    
C37   H42   S    
C3    C83   A    
O9    Zn5   S    
O8    Zn4   S    
C98   H45   S    
C27   O21   A    
C9    C114  A    
C38   O11   A    
O12   Zn4   S    
C63   C75   S    
C57   C64   A    
C57   H3    S    
C34   H39   S    
C48   H20   S    
C60   O7    A    
C99   C106  A    
C4    C110  A    
C100  C107  A    
C47   C93   A    
O24   Zn7   S    
C104  H27   S    
C64   C78   S    
C78   O17   A    
C22   H33   S    
C36   C43   A    
C33   H38   S    
C92   H12   S    
C32   C70   S    
C94   H1    S    
O16   Zn1   S    
C71   O25   A    
C12   N1    T    
C54   C66   A    
C54   C61   A    
O12   Zn8   S    
C65   C72   A    
C5    C111  A    
C29   C35   A    
O4    Zn4   S    
C30   C36   A    
C83   H8    S    
C25   H37   S    
C9    C60   S    
C21   H32   S    
C55   C69   A    
O22   Zn7   S    
C1    O20   A    
C17   C103  S    
C24   C31   A    
O1    Zn3   S    
C5    C10   A    
C88   H14   S    
C93   H26   S    
C86   C92   A    
C53   C67   A    
C20   C26   A    
C25   C32   A    
C2    H28   S    
C77   O16   A    
O25   Zn8   S    
O18   Zn3   S    
C38   O22   A    
C10   C110  A    
C7    C107  A    
C62   C68   A    
C13   H29   S    
C91   C98   A    
C105  C111  A    
C75   O3    A    
C30   C68   S    
C92   C99   A    
C74   O19   A    
C73   O18   A    
C19   C25   A    
C90   H16   S    
C37   C44   A    
C53   H52   S    
C95   H34   S    
C80   C113  A    
C36   H41   S    
C55   C62   A    
C2    C23   A    
C18   C105  S    
O1    Zn5   S    
C20   H31   S    
C102  C109  A    
C89   H15   S    
C79   C86   A    
C47   H19   S    
C6    C49   S    
C95   C101  A    
C26   C33   A    
