data_mof_unit_14336.cif
_audit_creation_date              2012-12-11T15:37:27-0500
_audit_creation_method            fapswitch 2.2
_symmetry_space_group_name_H-M    P1
_symmetry_Int_Tables_number       1
_space_group_crystal_system       triclinic
_cell_length_a                    17.365889
_cell_length_b                    24.386561
_cell_length_c                    14.934028
_cell_angle_alpha                 89.440785
_cell_angle_beta                  124.897713
_cell_angle_gamma                 89.904175
_cell_volume                      5186.7251215

loop_
_atom_site_label
_atom_site_type_symbol
_atom_type_description
_atom_site_fract_x
_atom_site_fract_y
_atom_site_fract_z
_atom_type_partial_charge
C1    C     C_R   0.846887 0.651084 0.907229 -0.072241
C2    C     C_3   0.585437 0.506456 0.568327 0.132691
C3    C     C_3   0.077754 0.000666 0.461410 -0.203442
C4    C     C_2   0.723995 0.404499 0.655395 0.373878
C5    C     C_2   0.297412 0.599822 0.301102 0.355840
C6    C     C_2   0.290156 0.403357 0.331986 0.401391
C7    C     C_2   0.736782 0.599770 0.658370 0.612832
C8    C     C_2   0.223997 0.904499 0.655393 0.373873
C9    C     C_2   0.797412 0.099822 0.301098 0.355859
C10   C     C_2   0.790158 0.903357 0.331984 0.401381
C11   C     C_2   0.236785 0.099769 0.658368 0.612778
C12   C     C_2   0.494345 0.420744 0.592962 0.700862
C13   C     C_3   0.926909 0.000436 0.371969 0.147727
C14   C     C_2   0.506474 0.587606 0.338077 0.779898
C15   C     C_2   0.528986 0.404790 0.393481 0.680161
C16   C     C_2   0.504472 0.603346 0.566242 0.635881
C17   C     C_2   0.994351 0.920744 0.592960 0.700812
C18   C     C_2   0.006471 0.087608 0.338072 0.779960
C19   C     C_2   0.028990 0.904792 0.393477 0.680190
C20   C     C_2   0.004474 0.103346 0.566242 0.635880
C21   C     C_2   0.620142 0.347011 0.813763 0.603475
C22   C     C_2   0.212096 0.763213 0.206309 0.519287
C23   C     C_2   0.381285 0.346022 0.181744 0.623731
C24   C     C_3   0.085439 0.006457 0.568322 0.132693
C25   C     C_2   0.785068 0.762716 0.787145 0.493796
C26   C     C_2   0.120137 0.847018 0.813778 0.603477
C27   C     C_2   0.712058 0.263233 0.206285 0.518833
C28   C     C_2   0.881284 0.846023 0.181744 0.623738
C29   C     C_2   0.285068 0.262717 0.787145 0.493884
C30   C     C_2   0.028746 0.413451 0.573164 0.544547
C31   C     C_2   0.826237 0.589965 0.272891 0.494576
C32   C     C_2   0.868585 0.397038 0.325174 0.589088
C33   C     C_2   0.828111 0.585621 0.473606 0.532509
C34   C     C_2   0.528510 0.913374 0.573018 0.544132
C35   C     C_R   0.662764 0.310090 0.908583 -0.094806
C36   C     C_2   0.326300 0.090017 0.272939 0.494577
C37   C     C_2   0.368372 0.897090 0.324983 0.589582
C38   C     C_2   0.328150 0.085658 0.473629 0.532653
C39   C     C_R   0.206252 0.766676 0.103737 -0.029800
C40   C     C_R   0.338072 0.312514 0.084716 -0.090734
C41   C     C_R   0.791008 0.769180 0.889369 -0.037184
C42   C     C_R   0.162764 0.810095 0.908595 -0.094810
C43   C     C_R   0.706236 0.266681 0.103724 -0.029660
C44   C     C_R   0.838072 0.812514 0.084716 -0.090728
C45   C     C_R   0.180145 0.364006 0.086663 -0.074493
C46   C     C_R   0.291008 0.269181 0.889368 -0.037249
C47   C     C_R   0.105639 0.769904 0.907068 -0.244396
C48   C     C_R   0.773259 0.297261 0.103261 -0.256123
C49   C     C_R   0.889567 0.768800 0.086470 -0.218989
C50   C     C_R   0.230450 0.306660 0.889291 -0.262988
C51   C     C_R   0.605637 0.269901 0.907055 -0.244437
C52   C     C_R   0.273269 0.797260 0.103269 -0.255985
C53   C     C_R   0.389566 0.268800 0.086469 -0.218970
C54   C     C_R   0.730450 0.806659 0.889291 -0.263025
C55   C     C_R   0.132473 0.743819 0.004087 0.178366
C56   C     C_R   0.140557 0.653566 0.089694 -0.022552
C57   C     C_R   0.754691 0.316559 0.004158 0.131294
C58   C     C_R   0.859364 0.742594 0.989537 0.163001
C59   C     C_R   0.249238 0.324432 0.988779 0.139065
C60   C     C_R   0.632464 0.243820 0.004075 0.178442
C61   C     C_R   0.254694 0.816562 0.004165 0.131265
C62   C     C_R   0.359364 0.242594 0.989536 0.163017
C63   C     C_R   0.749237 0.824432 0.988779 0.139071
C64   C     C_R   0.952237 0.452838 0.495992 -0.050933
C65   C     C_R   0.871867 0.544613 0.355080 -0.090482
C66   C     C_R   0.911253 0.448544 0.385042 -0.016741
C67   C     C_R   0.822860 0.361778 0.910291 -0.060347
C68   C     C_R   0.879282 0.544223 0.454551 -0.029032
C69   C     C_R   0.452092 0.952820 0.495895 -0.050628
C70   C     C_R   0.371884 0.044645 0.355091 -0.090400
C71   C     C_R   0.411134 0.948561 0.384943 -0.017056
C72   C     C_R   0.379286 0.044244 0.454554 -0.029101
C73   C     C_R   0.900079 0.496977 0.328418 -0.129522
C74   C     C_R   0.930511 0.500526 0.530946 -0.056350
C75   C     C_R   0.400056 0.997004 0.328395 -0.129531
C76   C     C_R   0.430453 0.000522 0.530909 -0.056320
C77   C     C_R   0.914381 0.363081 0.092888 -0.135868
C78   C     C_R   0.346887 0.151084 0.907228 -0.072243
C79   C     C_R   0.051906 0.653049 0.908408 -0.106681
C80   C     C_R   0.090720 0.371583 0.903830 -0.115005
C81   C     C_R   0.945220 0.652685 0.088610 -0.144212
C82   C     C_R   0.414382 0.863082 0.092890 -0.135859
C83   C     C_R   0.551904 0.153048 0.908405 -0.106700
C84   C     C_R   0.590720 0.871584 0.903829 -0.114996
C85   C     C_R   0.445221 0.152685 0.088609 -0.144220
C86   C     C_R   0.979635 0.546094 0.248276 -0.124268
C87   C     C_R   0.956459 0.455321 0.698571 -0.191828
C88   C     C_R   0.966432 0.547055 0.704046 -0.079408
C89   C     C_R   0.680145 0.864005 0.086662 -0.074497
C90   C     C_R   0.987582 0.454206 0.257175 -0.114884
C91   C     C_R   0.479643 0.046101 0.248279 -0.124262
C92   C     C_R   0.456438 0.955320 0.698562 -0.191816
C93   C     C_R   0.466418 0.047053 0.704035 -0.079474
C94   C     C_R   0.487571 0.954213 0.257173 -0.114954
C95   C     C_R   0.734290 0.455995 0.711642 0.026333
C96   C     C_R   0.268820 0.545030 0.253426 -0.007804
C97   C     C_R   0.268743 0.453465 0.265146 0.007881
C98   C     C_R   0.737897 0.547909 0.711449 -0.052369
C99   C     C_R   0.234290 0.955995 0.711640 0.026299
C100  C     C_R   0.640557 0.153567 0.089691 -0.022508
C101  C     C_R   0.768820 0.045030 0.253424 -0.007826
C102  C     C_R   0.768744 0.953465 0.265145 0.007894
C103  C     C_R   0.237898 0.047909 0.711447 -0.052394
C104  C     C_R   0.882533 0.684301 0.995576 0.071848
C105  C     C_R   0.176389 0.352520 0.992820 0.074221
C106  C     C_R   0.107484 0.686061 0.999683 0.039606
C107  C     C_R   0.828718 0.344908 0.002695 0.068307
C108  C     C_R   0.382533 0.184301 0.995575 0.071846
C109  C     C_R   0.676389 0.852520 0.992819 0.074225
C110  C     C_R   0.607480 0.186062 0.999677 0.039621
C111  C     C_R   0.322857 0.861780 0.910292 -0.060337
C112  C     C_R   0.328718 0.844911 0.002699 0.068293
C113  C     C_R   0.950199 0.499608 0.275669 0.075733
C114  C     C_R   0.954993 0.501477 0.642577 0.084759
C115  C     C_R   0.450196 0.999622 0.275668 0.075718
C116  C     C_R   0.454961 0.001473 0.642555 0.084676
C117  C     C_R   0.678960 0.503597 0.666422 0.058031
C118  C     C_R   0.326625 0.498532 0.285631 0.082716
C119  C     C_R   0.178962 0.003598 0.666418 0.058023
C120  C     C_R   0.826626 0.998532 0.285628 0.082724
C121  C     C_3   0.511344 0.462711 0.533069 -0.083504
C122  C     C_3   0.426908 0.500435 0.371973 0.147708
C123  C     C_3   0.500712 0.545483 0.407506 -0.132386
C124  C     C_3   0.503529 0.455619 0.426455 -0.052054
C125  C     C_3   0.510882 0.552108 0.516052 -0.043035
C126  C     C_3   0.011348 0.962712 0.533065 -0.083475
C127  C     C_3   0.000712 0.045484 0.407502 -0.132425
C128  C     C_3   0.003532 0.955620 0.426450 -0.052068
C129  C     C_3   0.010884 0.052108 0.516049 -0.043031
C130  C     C_3   0.436275 0.508100 0.480666 -0.341694
C131  C     C_3   0.577752 0.500665 0.461415 -0.203419
C132  C     C_3   0.936277 0.008100 0.480663 -0.341694
H1    H     H_    0.798833 0.662160 0.823191 0.104530
H2    H     H_    0.934275 0.414505 0.666258 0.105555
H3    H     H_    0.959740 0.589788 0.680760 0.076537
H4    H     H_    0.991154 0.413010 0.284703 0.094558
H5    H     H_    0.467883 0.088544 0.257088 0.108122
H6    H     H_    0.434236 0.914506 0.666252 0.105570
H7    H     H_    0.459732 0.089786 0.680757 0.076499
H8    H     H_    0.491118 0.913017 0.284695 0.094469
H9    H     H_    0.377256 0.511802 0.489961 0.156690
H10   H     H_    0.638881 0.498532 0.455909 0.204421
H11   H     H_    0.877260 0.011801 0.489960 0.156678
H12   H     H_    0.229336 0.347736 0.167102 0.117293
H13   H     H_    0.138883 0.998536 0.455904 0.204394
H14   H     H_    0.041412 0.758692 0.830543 0.153218
H15   H     H_    0.837527 0.307233 0.180241 0.132216
H16   H     H_    0.951173 0.754710 0.163646 0.150442
H17   H     H_    0.170290 0.321964 0.812235 0.129879
H18   H     H_    0.541413 0.258687 0.830528 0.153221
H19   H     H_    0.337540 0.807231 0.180249 0.132154
H20   H     H_    0.451172 0.254710 0.163645 0.150452
H21   H     H_    0.670289 0.821963 0.812234 0.129881
H22   H     H_    0.947751 0.349253 0.175782 0.099616
H23   H     H_    0.169701 0.666773 0.170989 0.123748
H24   H     H_    0.006664 0.667048 0.824505 0.118136
H25   H     H_    0.062418 0.367416 0.818522 0.099855
H26   H     H_    0.993080 0.667541 0.170623 0.121735
H27   H     H_    0.447755 0.849256 0.175786 0.099580
H28   H     H_    0.506660 0.167046 0.824502 0.118140
H29   H     H_    0.562418 0.867419 0.818521 0.099883
H30   H     H_    0.493081 0.167542 0.170622 0.121746
H31   H     H_    0.779144 0.391845 0.646481 0.054424
H32   H     H_    0.277073 0.614119 0.353397 0.023363
H33   H     H_    0.238236 0.388392 0.344709 0.049870
H34   H     H_    0.773366 0.348961 0.827847 0.129960
H35   H     H_    0.802071 0.621759 0.693110 0.002028
H36   H     H_    0.279144 0.891847 0.646474 0.054448
H37   H     H_    0.777077 0.114120 0.353395 0.023351
H38   H     H_    0.738238 0.888390 0.344705 0.049821
H39   H     H_    0.302076 0.121757 0.693108 0.002030
H40   H     H_    0.494347 0.377722 0.576090 0.040841
H41   H     H_    0.523522 0.629697 0.364961 0.043515
H42   H     H_    0.525394 0.365184 0.424231 0.054298
H43   H     H_    0.455462 0.635642 0.514605 -0.002174
H44   H     H_    0.994356 0.877722 0.576092 0.040852
H45   H     H_    0.298834 0.162160 0.823190 0.104531
H46   H     H_    0.023536 0.129697 0.364965 0.043535
H47   H     H_    0.025402 0.865185 0.424230 0.054284
H48   H     H_    0.955461 0.135641 0.514607 -0.002183
H49   H     H_    0.567529 0.331311 0.733769 0.003975
H50   H     H_    0.279694 0.764980 0.284444 0.097178
H51   H     H_    0.426413 0.326402 0.260889 0.011675
H52   H     H_    0.720318 0.772839 0.709037 0.067708
H53   H     H_    0.067516 0.831321 0.733784 0.003968
H54   H     H_    0.779644 0.265034 0.284427 0.097209
H55   H     H_    0.926413 0.826403 0.260889 0.011668
H56   H     H_    0.729335 0.847735 0.167101 0.117283
H57   H     H_    0.220317 0.272840 0.709036 0.067771
H58   H     H_    0.073539 0.421427 0.659898 -0.001169
H59   H     H_    0.796707 0.581625 0.187796 0.051964
H60   H     H_    0.834638 0.396290 0.237621 -0.021901
H61   H     H_    0.839676 0.629059 0.470806 0.079199
H62   H     H_    0.573409 0.921367 0.659739 -0.001100
H63   H     H_    0.296770 0.081693 0.187838 0.051939
H64   H     H_    0.334582 0.896344 0.237462 -0.021987
H65   H     H_    0.339812 0.129091 0.470939 0.079093
H66   H     H_    0.669707 0.166777 0.170987 0.123801
H67   H     H_    0.273359 0.848965 0.827848 0.129971
H68   H     H_    0.967862 0.588535 0.257084 0.108154
N1    N     N_R   0.892620 0.603790 0.941800 -0.054639
N2    N     N_R   0.047790 0.602400 0.942090 -0.048575
N3    N     N_R   0.047790 0.397600 0.942090 -0.045902
N4    N     N_R   0.952210 0.602400 0.057910 -0.046423
N5    N     N_R   0.452210 0.897600 0.057910 -0.042309
N6    N     N_R   0.547790 0.102400 0.942090 -0.048570
N7    N     N_R   0.547790 0.897600 0.942090 -0.045903
N8    N     N_R   0.452210 0.102400 0.057910 -0.046423
N9    N     N_R   0.026300 0.529110 0.206760 -0.048037
N10   N     N_R   0.973700 0.470890 0.793240 -0.042618
N11   N     N_R   0.973700 0.529110 0.793240 -0.048771
N12   N     N_R   0.107380 0.396210 0.058200 -0.053685
N13   N     N_R   0.026300 0.470890 0.206760 -0.048730
N14   N     N_R   0.526300 0.029110 0.206760 -0.048033
N15   N     N_R   0.473700 0.970890 0.793240 -0.042616
N16   N     N_R   0.473700 0.029110 0.793240 -0.048762
N17   N     N_R   0.526300 0.970890 0.206760 -0.048715
N18   N     N_R   0.818530 0.472270 0.792960 -0.080288
N19   N     N_R   0.181470 0.527730 0.207040 -0.091316
N20   N     N_R   0.181470 0.472270 0.207040 -0.097141
N21   N     N_R   0.818530 0.527730 0.792960 -0.092317
N22   N     N_R   0.318530 0.972270 0.792960 -0.080285
N23   N     N_R   0.107380 0.603790 0.058200 -0.049745
N24   N     N_R   0.681470 0.027730 0.207040 -0.091318
N25   N     N_R   0.681470 0.972270 0.207040 -0.097143
N26   N     N_R   0.318530 0.027730 0.792960 -0.092316
N27   N     N_R   0.892620 0.396210 0.941800 -0.050610
N28   N     N_R   0.392620 0.103790 0.941800 -0.054633
N29   N     N_R   0.607380 0.896210 0.058200 -0.053685
N30   N     N_R   0.607380 0.103790 0.058200 -0.049753
N31   N     N_R   0.392620 0.896210 0.941800 -0.050609
N32   N     N_R   0.952210 0.397600 0.057910 -0.042315
Ni1   Ni    Ni4+2 0.934150 0.565840 0.869060 0.229059
Ni2   Ni    Ni4+2 0.065850 0.434160 0.130940 0.221271
Ni3   Ni    Ni4+2 0.065850 0.565840 0.130940 0.219294
Ni4   Ni    Ni4+2 0.934150 0.434160 0.869060 0.224644
Ni5   Ni    Ni4+2 0.434150 0.065840 0.869060 0.229054
Ni6   Ni    Ni4+2 0.565850 0.934160 0.130940 0.221249
Ni7   Ni    Ni4+2 0.565850 0.065840 0.130940 0.219295
Ni8   Ni    Ni4+2 0.434150 0.934160 0.869060 0.224650
O1    O     O_2   0.658774 0.373771 0.626011 -0.660522
O2    O     O_2   0.493698 0.574528 0.251906 -0.539773
O3    O     O_2   0.558655 0.407699 0.336578 -0.550192
O4    O     O_2   0.553057 0.608606 0.665165 -0.565688
O5    O     O_2   0.974270 0.934934 0.655446 -0.547483
O6    O     O_2   0.993676 0.074533 0.251889 -0.539753
O7    O     O_2   0.058656 0.907701 0.336570 -0.550117
O8    O     O_2   0.053063 0.108607 0.665165 -0.565691
O9    O     O_2   0.639157 0.395735 0.825746 -0.542285
O10   O     O_2   0.140858 0.760475 0.204225 -0.595252
O11   O     O_2   0.369063 0.395661 0.173030 -0.552430
O12   O     O_2   0.338003 0.630803 0.277034 -0.618625
O13   O     O_2   0.853889 0.748914 0.789569 -0.605402
O14   O     O_2   0.139157 0.895741 0.825763 -0.542275
O15   O     O_2   0.640812 0.260474 0.204181 -0.595296
O16   O     O_2   0.869062 0.895661 0.173029 -0.552432
O17   O     O_2   0.353889 0.248914 0.789568 -0.605388
O18   O     O_2   0.046987 0.373182 0.540338 -0.558532
O19   O     O_2   0.823590 0.636913 0.298535 -0.600826
O20   O     O_2   0.866329 0.356165 0.371385 -0.570363
O21   O     O_2   0.771124 0.570915 0.491653 -0.601149
O22   O     O_2   0.546550 0.873032 0.540161 -0.558584
O23   O     O_2   0.361009 0.376362 0.367644 -0.662978
O24   O     O_2   0.323685 0.136961 0.298620 -0.600818
O25   O     O_2   0.365849 0.856249 0.371074 -0.570283
O26   O     O_2   0.271091 0.070971 0.491572 -0.601057
O27   O     O_2   0.667342 0.617331 0.573874 -0.620137
O28   O     O_2   0.158778 0.873770 0.626013 -0.660511
O29   O     O_2   0.838000 0.130803 0.277025 -0.618576
O30   O     O_2   0.861014 0.876364 0.367645 -0.662987
O31   O     O_2   0.167345 0.117331 0.573874 -0.620089
O32   O     O_2   0.474264 0.434934 0.655449 -0.547453

loop_
_geom_bond_atom_site_label_1
_geom_bond_atom_site_label_2
_ccdc_geom_bond_type
C44   C49   A    
C71   C75   A    
C48   H15   S    
C100  C110  A    
C85   H30   S    
C7    C98   S    
C33   O21   D    
N6    N30   A    
C78   H45   S    
C111  N31   A    
C4    O1    D    
C9    H37   S    
C111  C112  A    
C87   H2    S    
C86   N9    A    
C20   C129  S    
C8    O28   D    
C31   H59   S    
C92   H6    S    
N24   N25   A    
C5    C96   S    
C54   H21   S    
N9    Ni3   S    
N30   Ni7   S    
C19   O7    D    
C48   C57   A    
C12   H40   S    
C95   C117  A    
C103  N26   A    
C21   H49   S    
N27   Ni4   S    
C59   C105  S    
C46   C62   A    
C86   C113  A    
N16   Ni5   S    
C36   O24   D    
C96   C118  A    
C8    C99   S    
C41   C58   A    
C22   O10   D    
C83   N6    A    
C30   C64   S    
C52   C61   A    
C21   O9    D    
C18   C127  S    
C26   H53   S    
C3    C127  S    
C17   C126  S    
C123  C125  S    
C80   N3    A    
C62   C108  S    
C54   C63   A    
N22   N26   A    
C68   C74   A    
C23   C40   S    
C74   C114  S    
C98   N21   A    
C89   C109  A    
C19   C128  S    
C95   N18   A    
C73   C113  S    
C32   H60   S    
C92   N15   A    
C78   C108  A    
C118  C122  S    
C90   C113  A    
N22   Ni8   S    
C97   C118  A    
C69   C71   A    
C130  H9    S    
C87   C114  A    
C23   O11   D    
C8    H36   S    
C111  H67   S    
C79   H24   S    
C91   H5    S    
C13   C128  S    
C125  C130  S    
N10   N11   A    
C39   C55   A    
C12   C121  S    
C24   C119  S    
C51   H18   S    
C36   C70   S    
C121  C124  S    
C88   N11   A    
C53   H20   S    
C6    H33   S    
C84   N7    A    
C6    O23   D    
C14   C123  S    
N10   Ni4   S    
C85   C108  A    
C43   C48   A    
C121  C130  S    
N15   Ni8   S    
C25   H52   S    
C72   C76   A    
C129  C132  S    
C123  C131  S    
C34   H62   S    
C132  H11   S    
C30   H58   S    
C39   C52   A    
C99   N22   A    
C33   H61   S    
N26   Ni5   S    
C14   O2    D    
C49   H16   S    
C93   N16   A    
C24   C126  S    
N25   Ni6   S    
C5    O12   D    
C86   H68   S    
C3    C24   S    
C56   H23   S    
C1    H1    S    
C24   C129  S    
N8    Ni7   S    
N24   Ni7   S    
C2    C117  S    
C45   C105  A    
C81   N4    A    
C38   C72   S    
C16   H43   S    
C44   C63   A    
C78   N28   A    
C90   N13   A    
C15   O3    D    
C4    H31   S    
C45   N12   A    
C70   C72   A    
C15   C124  S    
C83   H28   S    
C55   C106  S    
C37   H64   S    
N19   Ni3   S    
C77   C107  A    
C60   C110  S    
C20   H48   S    
C26   O14   D    
C65   C73   A    
C25   C41   S    
N19   N20   A    
C25   O13   D    
C3    C128  S    
N7    N29   A    
N29   Ni6   S    
C66   C73   A    
N4    Ni3   S    
C28   C44   S    
C102  N25   A    
N9    N13   A    
C49   C58   A    
N11   Ni1   S    
C79   C106  A    
N31   Ni8   S    
C93   C116  A    
C82   C112  A    
C63   C109  S    
N15   N16   A    
C127  C129  S    
C23   H51   S    
C93   H7    S    
C77   H22   S    
C45   H12   S    
C4    C95   S    
C90   H4    S    
C53   C62   A    
C18   O6    D    
N1    Ni1   S    
C42   C61   A    
C17   O5    D    
C27   H54   S    
C65   C68   A    
C76   C116  S    
N32   Ni2   S    
C2    C131  S    
C38   H65   S    
C37   O25   D    
C7    O27   D    
C92   C116  A    
C34   C69   S    
C56   C106  A    
C131  H10   S    
N23   Ni3   S    
C43   C60   A    
C1    N1    A    
N7    Ni8   S    
C101  N24   A    
C34   O22   D    
C57   C107  S    
C3    H13   S    
C37   C71   S    
C35   C51   A    
C87   N10   A    
C29   H57   S    
N3    N12   A    
C28   H55   S    
C75   C115  S    
C50   C59   A    
C122  C124  S    
N13   Ni2   S    
C19   H47   S    
C11   H39   S    
C13   C120  S    
C102  C120  A    
C26   C42   S    
N18   N21   A    
C32   C66   S    
C6    C97   S    
C16   C125  S    
C2    C121  S    
N20   Ni2   S    
C31   C65   S    
C7    H35   S    
C83   C110  A    
C77   N32   A    
C126  C128  S    
C81   H26   S    
C15   H42   S    
N21   Ni1   S    
C30   O18   D    
C101  C120  A    
C11   O31   D    
N2    N23   A    
C1    C104  A    
C103  C119  A    
C28   O16   D    
C88   H3    S    
N14   N17   A    
C56   N23   A    
N12   Ni2   S    
C94   C115  A    
C17   H44   S    
C21   C35   S    
C18   H46   S    
N1    N4    A    
C10   H38   S    
C96   N19   A    
C11   C103  S    
C5    H32   S    
C46   C50   A    
C98   C117  A    
C84   C109  A    
C29   C46   S    
C35   C57   A    
C12   O32   D    
N14   Ni7   S    
C38   O26   D    
C36   H63   S    
N18   Ni4   S    
N28   Ni5   S    
C22   H50   S    
C64   C66   A    
C85   N8    A    
N8    N28   A    
N2    Ni1   S    
C67   N27   A    
C82   H27   S    
C61   C112  S    
C50   H17   S    
C67   C107  A    
C80   H25   S    
N17   Ni6   S    
C91   N14   A    
C52   H19   S    
C22   C39   S    
C80   C105  A    
C10   C102  S    
C100  N30   A    
C89   H56   S    
C13   C132  S    
C91   C115  A    
N27   N32   A    
N6    Ni5   S    
C42   C47   A    
C94   N17   A    
C88   C114  A    
N5    Ni6   S    
C32   O20   D    
C29   O17   D    
C41   C54   A    
C47   H14   S    
N5    N31   A    
C126  C132  S    
C99   C119  A    
C13   C127  S    
C2    C125  S    
C27   C43   S    
C47   C55   A    
N3    Ni4   S    
C58   C104  S    
C69   C76   A    
C124  C131  S    
C9    C101  S    
C14   H41   S    
C10   O30   D    
C40   C53   A    
C70   C75   A    
C40   C59   A    
C97   N20   A    
C64   C74   A    
C94   H8    S    
C79   N2    A    
C31   O19   D    
C51   C60   A    
C9    O29   D    
C89   N29   A    
C122  C123  S    
C20   O8    D    
C27   O15   D    
C16   O4    D    
C122  C130  S    
C82   N5    A    
C84   H29   S    
C33   C68   S    
C67   H34   S    
C81   C104  A    
C100  H66   S    
