data_mof_unit_32700.cif
_audit_creation_date              2013-03-05T15:53:24-0500
_audit_creation_method            fapswitch 2.2
_symmetry_space_group_name_H-M    P1
_symmetry_Int_Tables_number       1
_space_group_crystal_system       triclinic
_cell_length_a                    10.617656
_cell_length_b                    10.658824
_cell_length_c                    16.914007
_cell_angle_alpha                 98.845139
_cell_angle_beta                  98.713922
_cell_angle_gamma                 61.697966
_cell_volume                      1658.5131408

loop_
_atom_site_label
_atom_site_type_symbol
_atom_site_description
_atom_site_fract_x
_atom_site_fract_y
_atom_site_fract_z
_atom_type_partial_charge
O1    O     O_R   0.751220 0.499230 0.435170 -0.517276
O2    O     O_R   0.477220 0.727600 0.436870 -0.500730
C1    C     C_R   0.355199 0.774360 0.398613 0.555366
O3    O     O_R   0.258650 0.745120 0.411470 -0.517039
O4    O     O_R   0.297070 0.467240 0.395960 -0.505224
C2    C     C_R   0.370379 0.346638 0.358860 0.538528
O5    O     O_R   0.488830 0.252610 0.387790 -0.507967
O6    O     O_R   0.724400 0.302390 0.420980 -0.493770
C3    C     C_R   0.779792 0.375135 0.402820 0.548771
O7    O     O_R   0.752100 0.501210 0.612190 -0.499750
O8    O     O_R   0.478040 0.729440 0.600970 -0.504402
C4    C     C_R   0.378974 0.717076 0.631739 0.534800
O9    O     O_R   0.259530 0.747110 0.588490 -0.474979
O10   O     O_R   0.297880 0.469080 0.560050 -0.506394
C5    C     C_R   0.366636 0.345511 0.584932 0.537083
O11   O     O_R   0.489720 0.254590 0.564810 -0.517264
O12   O     O_R   0.725220 0.304230 0.585080 -0.484708
C6    C     C_R   0.719029 0.410117 0.635693 0.531179
Cr1   Cr    Cr6+3 0.608340 0.611040 0.520430 1.030582
Cr2   Cr    Cr6+3 0.287650 0.601120 0.489350 1.032171
Cr3   Cr    Cr6+3 0.604040 0.287870 0.490280 1.029796
O13   O     O_3   0.500010 0.500010 0.500020 -0.294565
C7    C     C_1   0.343867 0.336339 0.275093 -0.065660
C8    C     C_1   0.332098 0.326657 0.203849 -0.061708
C9    C     C_3   0.773533 0.258556 0.203563 -0.123456
C10   C     C_3   0.695786 0.401342 0.255249 -0.112752
H1    H     H_    0.580844 0.452493 0.266618 0.116129
H2    H     H_    0.721305 0.197386 0.166842 0.129654
C11   C     C_3   0.819944 0.346487 0.321732 0.056426
C12   C     C_3   0.896318 0.204009 0.271612 -0.132864
C13   C     C_3   0.975821 0.270157 0.236806 -0.114593
C14   C     C_3   0.898172 0.412934 0.288194 -0.116586
C15   C     C_3   0.775078 0.467621 0.220862 -0.125160
C16   C     C_3   0.851617 0.325640 0.170445 0.057543
H3    H     H_    0.943208 0.098756 0.296137 0.115906
H4    H     H_    0.090689 0.219003 0.225295 0.113798
H5    H     H_    0.950685 0.474166 0.324549 0.126814
H6    H     H_    0.727778 0.573339 0.196817 0.120481
C17   C     C_3   0.415193 0.711916 0.201693 -0.151383
C18   C     C_3   0.289765 0.739183 0.248686 -0.109074
H7    H     H_    0.251438 0.660129 0.252979 0.133429
H8    H     H_    0.475445 0.614530 0.161704 0.107145
C19   C     C_3   0.347241 0.812334 0.319548 0.060130
C20   C     C_3   0.474269 0.783582 0.273984 -0.118569
C21   C     C_3   0.381623 0.931505 0.241423 -0.119833
C22   C     C_3   0.256064 0.958448 0.288937 -0.151487
C23   C     C_3   0.197374 0.886481 0.217464 -0.105299
C24   C     C_3   0.323597 0.858072 0.170997 0.060570
H9    H     H_    0.586825 0.743652 0.301092 0.133300
H10   H     H_    0.419790 0.010068 0.235813 0.135983
H11   H     H_    0.196002 0.055665 0.329075 0.106864
H12   H     H_    0.083502 0.926461 0.192650 0.138281
C25   C     C_3   0.459547 0.274609 0.777364 -0.149916
C26   C     C_3   0.385942 0.413465 0.734461 -0.111170
H13   H     H_    0.434999 0.483552 0.730563 0.087520
H14   H     H_    0.567422 0.232676 0.811139 0.138288
C27   C     C_3   0.336739 0.333352 0.662869 0.022254
C28   C     C_3   0.410818 0.195213 0.704976 -0.113152
C29   C     C_3   0.268256 0.242712 0.741333 -0.148977
C30   C     C_3   0.193974 0.381446 0.697639 -0.115024
C31   C     C_3   0.245092 0.457208 0.770082 0.222091
C32   C     C_3   0.318078 0.322143 0.813318 0.042524
H15   H     H_    0.477494 0.086562 0.676213 0.154238
H16   H     H_    0.220215 0.171823 0.746132 0.129152
H17   H     H_    0.086164 0.424608 0.663819 0.154597
C33   C     C_1   0.769315 0.367397 0.715505 -0.035047
C34   C     C_1   0.813836 0.329491 0.782085 -0.035844
C35   C     C_1   0.356968 0.767403 0.714254 -0.029509
C36   C     C_1   0.325715 0.813241 0.781854 0.002649
O14   O     O_R   0.171830 0.913880 0.057510 -0.507427
O15   O     O_R   0.940690 0.186050 0.054730 -0.509485
C37   C     C_R   0.890078 0.311298 0.090124 0.533655
O16   O     O_R   0.920470 0.405720 0.075010 -0.516584
O17   O     O_R   0.196690 0.370460 0.084120 -0.491646
C38   C     C_R   0.319449 0.299780 0.120155 0.538517
O18   O     O_R   0.412990 0.180750 0.091610 -0.520483
O19   O     O_R   0.366620 0.943130 0.065760 -0.508558
C39   C     C_R   0.294200 0.892259 0.089012 0.551105
O20   O     O_R   0.160510 0.906330 0.879210 -0.427927
O21   O     O_R   0.930190 0.179050 0.889450 -0.493110
C40   C     C_R   0.879115 0.301969 0.862085 0.536163
O22   O     O_R   0.909140 0.398170 0.896710 -0.495810
O23   O     O_R   0.186190 0.363460 0.918830 -0.457810
C41   C     C_R   0.308526 0.294297 0.892230 0.565205
O24   O     O_R   0.401670 0.173200 0.913310 -0.520819
O25   O     O_R   0.356120 0.936130 0.900470 -0.512049
C42   C     C_R   0.282213 0.880605 0.859655 0.570228
Cr4   Cr    Cr6+3 0.054020 0.052700 0.970850 1.080027
Cr5   Cr    Cr6+3 0.059230 0.375120 0.993390 1.072241
Cr6   Cr    Cr6+3 0.374950 0.061200 0.992340 1.028487
O26   O     O_3   0.162740 0.163010 0.985530 -0.276564
N1    N     N_R   0.155548 0.601547 0.804803 0.078816
O27   O     O_R   0.084587 0.704305 0.758241 -0.323612
O28   O     O_R   0.146304 0.628928 0.881908 -0.325469

loop_
_geom_bond_atom_site_label_1
_geom_bond_atom_site_label_2
_geom_bond_distance
_ccdc_geom_bond_type
C20   H9    1.109627 S    
C18   C23   1.530930 S    
O11   Cr3   2.048830 S    
O14   C39   1.252681 A    
C2    O5    1.262832 A    
C38   O18   1.261446 A    
O14   Cr4   2.063710 S    
O20   C42   1.272799 A    
C40   O22   1.250900 A    
Cr6   O26   1.977102 S    
O4    Cr2   1.939280 S    
O19   C39   1.261942 A    
C9    H2    1.110096 S    
C4    C35   1.428266 S    
O8    Cr1   1.936281 S    
C29   H16   1.111111 S    
O22   Cr5   2.058313 S    
C12   H3    1.108803 S    
O17   Cr5   1.940022 S    
C11   C14   1.528854 S    
C12   C13   1.548812 S    
C21   C24   1.536008 S    
C5    O11   1.263049 A    
C9    C12   1.547511 S    
C24   C39   1.438585 S    
C26   H13   1.108254 S    
C18   C19   1.535933 S    
O23   C41   1.264973 A    
O6    C3    1.265644 A    
C7    C8    1.186038 T    
Cr5   O26   1.983096 S    
C36   C42   1.428171 S    
C31   N1    1.456046 S    
C3    C11   1.442571 S    
C9    C16   1.529198 S    
C37   O16   1.262723 A    
C33   C34   1.205156 T    
C29   C30   1.551919 S    
Cr3   O13   1.983007 S    
C5    C27   1.440014 S    
O20   Cr4   2.056599 S    
O12   C6    1.288632 A    
C17   H8    1.108934 S    
O23   Cr5   1.931587 S    
O19   Cr6   1.937313 S    
O1    Cr1   2.054589 S    
O17   C38   1.267799 A    
O10   Cr2   1.937984 S    
Cr1   O13   1.971679 S    
O1    C3    1.260241 A    
C41   O24   1.263122 A    
O25   Cr6   1.937333 S    
C17   C18   1.540296 S    
O25   C42   1.262223 A    
C35   C36   1.202314 T    
C27   C30   1.531982 S    
C28   C29   1.544440 S    
C21   C22   1.547972 S    
C22   H11   1.108858 S    
O12   Cr3   1.938700 S    
C30   C31   1.535534 S    
C19   C20   1.535359 S    
C11   C12   1.525508 S    
C25   C32   1.530718 S    
C10   C15   1.544302 S    
C23   C24   1.538395 S    
Cr4   O26   1.971549 S    
O7    Cr1   2.062924 S    
O24   Cr6   2.054077 S    
C1    C19   1.434974 S    
N1    O28   1.300068 A    
C15   C16   1.524713 S    
C10   H1    1.109759 S    
C13   C16   1.537788 S    
C14   H5    1.110287 S    
C17   C20   1.551368 S    
C18   H7    1.110762 S    
Cr2   O13   1.977450 S    
C30   H17   1.110111 S    
C34   C40   1.429165 S    
C1    O3    1.259617 A    
C16   C37   1.442499 S    
C20   C21   1.545658 S    
C25   H14   1.110332 S    
C28   H15   1.110269 S    
C32   C41   1.439176 S    
C22   C23   1.542073 S    
C29   C32   1.546479 S    
O9    Cr2   2.056961 S    
O2    Cr1   1.944974 S    
O10   C5    1.269024 A    
C13   C14   1.540057 S    
O21   C40   1.289019 A    
O6    Cr3   1.930857 S    
C25   C28   1.545167 S    
C8    C38   1.399352 S    
C25   C26   1.545810 S    
C23   H12   1.110059 S    
C26   C31   1.530479 S    
C6    C33   1.433471 S    
C15   H6    1.108967 S    
C14   C15   1.541328 S    
O2    C1    1.256387 A    
C9    C10   1.542780 S    
O16   Cr5   2.050612 S    
O15   C37   1.265232 A    
O21   Cr4   1.944392 S    
O5    Cr3   2.058094 S    
C27   C28   1.532459 S    
O4    C2    1.266184 A    
C21   H10   1.110103 S    
O7    C6    1.307031 A    
C2    C7    1.399770 S    
N1    O27   1.300199 A    
C31   C32   1.517246 S    
C19   C22   1.515653 S    
O15   Cr4   1.938135 S    
O3    Cr2   2.058288 S    
C4    O9    1.285265 A    
C10   C11   1.538281 S    
C13   H4    1.109694 S    
O8    C4    1.308819 A    
O18   Cr6   2.056858 S    
C17   C24   1.517031 S    
C26   C27   1.543291 S    
