data_mof_unit_62469.cif
_audit_creation_date              2013-03-05T16:08:45-0500
_audit_creation_method            fapswitch 2.2
_symmetry_space_group_name_H-M    P1
_symmetry_Int_Tables_number       1
_space_group_crystal_system       triclinic
_cell_length_a                    27.771017
_cell_length_b                    11.569158
_cell_length_c                    10.771548
_cell_angle_alpha                 90.008836
_cell_angle_beta                  89.999957
_cell_angle_gamma                 90.000017
_cell_volume                      3460.76135479

loop_
_atom_site_label
_atom_site_type_symbol
_atom_site_description
_atom_site_fract_x
_atom_site_fract_y
_atom_site_fract_z
_atom_type_partial_charge
O1    O     O_R   0.500000 0.334450 0.602530 -0.606707
O2    O     O_R   0.500000 0.665550 0.397470 -0.606707
O3    O     O_R   0.500000 0.665550 0.602530 -0.606889
O4    O     O_R   0.500000 0.334450 0.397470 -0.606889
C1    C     C_R   0.500000 0.281161 0.499999 0.915442
C2    C     C_R   0.500000 0.718839 0.500001 0.915442
O5    O     O_R   0.428750 0.500000 0.602520 -0.616693
O6    O     O_R   0.571250 0.500000 0.397480 -0.616668
O7    O     O_R   0.571250 0.500000 0.602520 -0.616668
O8    O     O_R   0.428750 0.500000 0.397480 -0.616693
C3    C     C_R   0.405695 0.500000 0.500000 0.960200
C4    C     C_R   0.594305 0.500000 0.500000 0.960340
Zn1   Zn    Zn3+2 0.500000 0.500000 0.636920 1.012936
Zn2   Zn    Zn3+2 0.500000 0.500000 0.363080 1.012936
C5    C     C_R   0.177865 0.396858 0.502807 0.673161
C6    C     C_R   0.822234 0.601113 0.477983 0.674472
C7    C     C_R   0.177865 0.603140 0.497194 0.673161
C8    C     C_R   0.822234 0.398885 0.522015 0.674473
O9    O     O_2   0.203330 0.297516 0.505551 -0.422753
O10   O     O_2   0.796797 0.698676 0.457403 -0.421159
O11   O     O_2   0.203330 0.702483 0.494450 -0.422753
O12   O     O_2   0.796797 0.301322 0.542596 -0.421159
N1    N     N_R   0.201573 0.499999 0.500000 -0.337504
N2    N     N_R   0.798496 0.499999 0.499999 -0.338842
C9    C     C_R   0.277755 0.499096 0.612751 0.663712
C10   C     C_R   0.722243 0.498767 0.387245 0.665645
C11   C     C_R   0.277755 0.500903 0.387250 0.663712
C12   C     C_R   0.722243 0.501232 0.612754 0.665644
C13   C     C_R   0.327786 0.499116 0.612828 -0.273047
C14   C     C_R   0.672212 0.498789 0.387187 -0.273708
C15   C     C_R   0.327786 0.500884 0.387172 -0.273047
C16   C     C_R   0.672212 0.501210 0.612812 -0.273708
C17   C     C_R   0.252822 0.500000 0.500000 -0.001720
C18   C     C_R   0.747212 0.499999 0.499999 -0.006320
C19   C     C_R   0.101854 0.499999 0.500000 -0.203469
C20   C     C_R   0.898246 0.499999 0.499999 -0.204637
C21   C     C_R   0.127399 0.394421 0.502970 -0.166802
C22   C     C_R   0.872701 0.603476 0.477383 -0.166206
C23   C     C_R   0.127399 0.605578 0.497030 -0.166801
C24   C     C_R   0.872701 0.396522 0.522615 -0.166205
C25   C     C_R   0.101979 0.289774 0.504944 0.728685
C26   C     C_R   0.898124 0.705853 0.454029 0.729525
C27   C     C_R   0.101979 0.710224 0.495056 0.728685
C28   C     C_R   0.898124 0.294145 0.545969 0.729525
C29   C     C_R   0.353104 0.500000 0.500000 -0.236211
C30   C     C_R   0.646897 0.500000 0.500000 -0.236799
H1    H     H_    0.346608 0.501582 0.299108 0.212618
H2    H     H_    0.653389 0.502251 0.700870 0.212840
H3    H     H_    0.346608 0.498417 0.700893 0.212618
H4    H     H_    0.653389 0.497748 0.299129 0.212840
C31   C     C_R   0.974594 0.394681 0.517130 0.013414
C32   C     C_R   0.025508 0.606209 0.491235 0.013097
C33   C     C_R   0.974594 0.605317 0.482869 0.013414
C34   C     C_R   0.025508 0.393790 0.508764 0.013097
C35   C     C_R   0.949305 0.499999 0.499999 0.092441
C36   C     C_R   0.050797 0.499999 0.500000 0.092110
C37   C     C_R   0.948010 0.293563 0.543562 -0.278340
C38   C     C_R   0.052091 0.710279 0.492549 -0.278705
C39   C     C_R   0.948010 0.706434 0.456437 -0.278341
C40   C     C_R   0.052091 0.289719 0.507451 -0.278705
H5    H     H_    0.964800 0.212347 0.566343 0.188301
H6    H     H_    0.035302 0.794182 0.495104 0.188747
H7    H     H_    0.964800 0.787651 0.433656 0.188301
H8    H     H_    0.035302 0.205816 0.504896 0.188747
C41   C     C_1   0.500000 0.161048 0.499992 -0.152383
C42   C     C_1   0.500000 0.838952 0.500008 -0.152383
C43   C     C_1   0.500000 0.059151 0.499989 0.035544
C44   C     C_1   0.500000 0.940849 0.500010 0.035544
N3    N     N_1   0.500000 0.500000 0.180630 -0.076216
N4    N     N_1   0.500000 0.500000 0.819370 -0.076216
C45   C     C_1   0.500000 0.500000 0.069742 0.073527
C46   C     C_1   0.500000 0.500000 0.930258 0.073527
F1    F     F_    0.253420 0.501723 0.278015 -0.600444
F2    F     F_    0.746541 0.502855 0.722038 -0.598549
F3    F     F_    0.253420 0.498276 0.721986 -0.600444
F4    F     F_    0.746541 0.497143 0.277961 -0.598549
F5    F     F_    0.124973 0.186121 0.504146 -0.555097
F6    F     F_    0.875131 0.806681 0.428156 -0.561096
F7    F     F_    0.124973 0.813878 0.495854 -0.555097
F8    F     F_    0.875130 0.193317 0.571841 -0.561096

loop_
_geom_bond_atom_site_label_1
_geom_bond_atom_site_label_2
_geom_bond_distance
_ccdc_geom_bond_type
C38   H6    1.077216 S    
C42   C44   1.178864 T    
O3    C2    1.264901 A    
C12   F2    1.356975 S    
C33   C39   1.412345 A    
C13   H3    1.083101 S    
C11   C17   1.398056 A    
C5    O9    1.349794 S    
C7    N1    1.363183 A    
C2    C42   1.389602 S    
O1    C1    1.264762 A    
C19   C21   1.412884 A    
C22   C26   1.401671 A    
C25   F5    1.358633 S    
Zn1   N4    1.965268 S    
C27   F7    1.358633 S    
C7    C23   1.401769 A    
N3    C45   1.194440 T    
C8    C24   1.401813 A    
C5    C21   1.401769 A    
C20   C24   1.412744 A    
O7    Zn1   2.013081 S    
C27   C38   1.385696 A    
C10   C18   1.398606 A    
C41   C43   1.178864 T    
C10   F4    1.356973 S    
C31   C37   1.412347 A    
O3    Zn1   1.950824 S    
C6    O10   1.349908 S    
C5    N1    1.363183 A    
C14   H4    1.083102 S    
C12   C18   1.398606 A    
C6    N2    1.363574 A    
C15   H1    1.083101 S    
C21   C25   1.401614 A    
C16   H2    1.083103 S    
O2    C2    1.264762 A    
C12   C16   1.389406 A    
O5    C3    1.276485 A    
C33   C35   1.418422 A    
C9    C13   1.389426 A    
C34   C36   1.418443 A    
C11   C15   1.389426 A    
C43   C44   1.368658 S    
C28   F8    1.358757 S    
C4    C30   1.460522 S    
O8    Zn2   2.013081 S    
C34   C40   1.412377 A    
N1    C17   1.423237 S    
N2    C18   1.424225 S    
C13   C29   1.404094 A    
C9    F3    1.356920 S    
C19   C23   1.412885 A    
O5    Zn1   2.013081 S    
C28   C37   1.385649 A    
O6    C4    1.276487 A    
C37   H5    1.077287 S    
C32   C38   1.412379 A    
C1    C41   1.389602 S    
C10   C14   1.389409 A    
Zn2   N3    1.965269 S    
C8    N2    1.363573 A    
C3    C29   1.460511 S    
O1    Zn1   1.950713 S    
C32   C33   1.416862 A    
O6    Zn2   2.013081 S    
C19   C36   1.417921 A    
C8    O12   1.349907 S    
C16   C30   1.403950 A    
C14   C30   1.403950 A    
C25   C40   1.385698 A    
O4    C1    1.264901 A    
C26   C39   1.385650 A    
C23   C27   1.401616 A    
C26   F6    1.358757 S    
C39   H7    1.077287 S    
C40   H8    1.077215 S    
C31   C34   1.416862 A    
C20   C22   1.412744 A    
C45   C46   1.502451 S    
C20   C35   1.417949 A    
C31   C35   1.418423 A    
O4    Zn2   1.950825 S    
O2    Zn2   1.950712 S    
O7    C4    1.276488 A    
C7    O11   1.349794 S    
O8    C3    1.276485 A    
C24   C28   1.401671 A    
C15   C29   1.404094 A    
C9    C17   1.398056 A    
N4    C46   1.194440 T    
C11   F1    1.356920 S    
C32   C36   1.418442 A    
C6    C22   1.401813 A    
