data_mof_unit_25868.cif
_audit_creation_date              2012-12-10T17:56:17-0500
_audit_creation_method            fapswitch 2.2
_symmetry_space_group_name_H-M    P1
_symmetry_Int_Tables_number       1
_space_group_crystal_system       triclinic
_cell_length_a                    13.001641
_cell_length_b                    10.806161
_cell_length_c                    9.521308
_cell_angle_alpha                 89.775652
_cell_angle_beta                  95.667585
_cell_angle_gamma                 90.246714
_cell_volume                      1331.16321971

loop_
_atom_site_label
_atom_site_type_symbol
_atom_type_description
_atom_site_fract_x
_atom_site_fract_y
_atom_site_fract_z
_atom_type_partial_charge
C1    C     C_R   0.502158 0.262271 0.500681 0.869874
C2    C     C_R   0.497842 0.737729 0.499319 0.869874
C3    C     C_R   0.497200 0.871540 0.498450 -0.164711
C4    C     C_R   0.502800 0.128460 0.501550 -0.164711
C5    C     C_R   0.438531 0.419736 0.066454 0.007965
C6    C     C_R   0.561469 0.580264 0.933546 0.007965
C7    C     C_R   0.438682 0.419664 0.917689 0.055536
C8    C     C_R   0.561317 0.580336 0.082311 0.055536
C9    C     C_R   0.300849 0.498201 0.474317 0.867270
C10   C     C_R   0.699151 0.501799 0.525683 0.867270
C11   C     C_R   0.811208 0.496113 0.539374 -0.116105
C12   C     C_R   0.188792 0.503887 0.460626 -0.116105
C13   C     C_R   0.034614 0.604817 0.356228 -0.111513
C14   C     C_R   0.965386 0.395183 0.643772 -0.111513
C15   C     C_R   0.140080 0.585409 0.361494 -0.238780
C16   C     C_R   0.859920 0.414591 0.638506 -0.238780
C17   C     C_R   0.131197 0.436188 0.552292 0.322134
C18   C     C_R   0.868803 0.563812 0.447708 0.322134
C19   C     C_R   0.024388 0.457097 0.549341 0.040183
C20   C     C_R   0.975611 0.542903 0.450659 0.040183
C21   C     C_R   0.445983 0.066568 0.390544 -0.226183
C22   C     C_R   0.554017 0.933432 0.609456 -0.226183
C23   C     C_R   0.442304 0.938431 0.388384 0.396993
C24   C     C_R   0.557696 0.061569 0.611616 0.396993
Cu1   Cu    Cu3+1 0.500000 0.500020 0.640660 1.024773
Cu2   Cu    Cu3+1 0.500000 0.499980 0.359340 1.024773
H1    H     H_    0.815546 0.362580 0.709363 0.211453
H2    H     H_    0.184454 0.637420 0.290637 0.211453
H3    H     H_    0.000557 0.669646 0.278446 0.218464
H4    H     H_    0.999443 0.330354 0.721554 0.218464
H5    H     H_    0.402535 0.118104 0.306769 0.193242
H6    H     H_    0.597465 0.881896 0.693230 0.193242
H7    H     H_    0.389306 0.355385 0.116126 0.138101
H8    H     H_    0.610694 0.644615 0.883874 0.138101
H9    H     H_    0.389863 0.354992 0.855391 0.183152
H10   H     H_    0.610137 0.645008 0.144609 0.183152
N1    N     N_R   0.500030 0.500030 0.852080 -0.178130
N2    N     N_R   0.499970 0.499970 0.147920 -0.178131
O1    O     O_R   0.499990 0.319660 0.618740 -0.534461
O2    O     O_R   0.500010 0.680340 0.381260 -0.534461
O3    O     O_R   0.499990 0.319630 0.381170 -0.601043
O4    O     O_R   0.500010 0.680370 0.618830 -0.601043
O5    O     O_R   0.349000 0.499990 0.599490 -0.548930
O6    O     O_R   0.651000 0.500010 0.400510 -0.548930
O7    O     O_R   0.348990 0.499960 0.361920 -0.587285
O8    O     O_R   0.651010 0.500040 0.638080 -0.587285
Cl1   Cl    Cl    0.807416 0.678384 0.334875 -0.635786
Cl2   Cl    Cl    0.192583 0.321616 0.665125 -0.635786
Cl3   Cl    Cl    0.363533 0.866772 0.250285 -0.586213
Cl4   Cl    Cl    0.636467 0.133227 0.749715 -0.586213

loop_
_geom_bond_atom_site_label_1
_geom_bond_atom_site_label_2
_ccdc_geom_bond_type
Cu1   O4    S    
C10   O8    A    
C17   Cl2   S    
C11   C18   A    
C9    O7    A    
C11   C16   A    
C3    C23   A    
C19   C20   A    
Cu2   O7    S    
C12   C15   A    
C1    C4    S    
C18   Cl1   S    
Cu1   O5    S    
C16   H1    S    
C13   C15   A    
C2    C3    S    
C7    N1    A    
C6    N1    A    
Cu2   O6    S    
C5    N2    A    
Cu1   O1    S    
C12   C17   A    
C4    C21   A    
C21   H5    S    
Cu2   O2    S    
C15   H2    S    
C22   H6    S    
C8    N2    A    
C14   H4    S    
C14   C19   A    
C22   C24   A    
C1    O3    A    
C17   C19   A    
C2    O4    A    
C18   C20   A    
C21   C23   A    
C24   Cl4   S    
C4    C24   A    
C9    C12   S    
C14   C16   A    
C9    O5    A    
C23   Cl3   S    
C10   C11   S    
C1    O1    A    
C10   O6    A    
C2    O2    A    
C8    H10   S    
C13   H3    S    
C5    C7    A    
Cu2   N2    S    
C3    C22   A    
C6    C8    A    
C13   C20   A    
Cu1   N1    S    
Cu1   Cu2   S    
C7    H9    S    
Cu1   O8    S    
C6    H8    S    
Cu2   O3    S    
C5    H7    S    
