data_mof_unit_64143.cif
_audit_creation_date              2012-12-10T19:02:10-0500
_audit_creation_method            fapswitch 2.2
_symmetry_space_group_name_H-M    P1
_symmetry_Int_Tables_number       1
_space_group_crystal_system       triclinic
_cell_length_a                    13.345782
_cell_length_b                    14.258699
_cell_length_c                    16.665648
_cell_angle_alpha                 90.000156
_cell_angle_beta                  87.656805
_cell_angle_gamma                 90.000101
_cell_volume                      3168.71257812

loop_
_atom_site_label
_atom_site_type_symbol
_atom_type_description
_atom_site_fract_x
_atom_site_fract_y
_atom_site_fract_z
_atom_type_partial_charge
C1    C     C_R   0.500000 0.673504 0.500000 0.916168
C2    C     C_1   0.169371 0.499955 0.499980 0.167893
C3    C     C_1   0.950470 0.499920 0.500010 -0.007109
C4    C     C_1   0.049530 0.499920 0.499990 -0.007109
C5    C     C_R   0.489582 0.497996 0.656239 0.972134
C6    C     C_R   0.510418 0.497996 0.343761 0.972116
C7    C     C_R   0.485947 0.469909 0.740672 -0.288713
C8    C     C_R   0.514052 0.469905 0.259329 -0.288712
C9    C     C_R   0.550212 0.399137 0.770157 0.386096
C10   C     C_R   0.449776 0.399143 0.229843 0.386148
C11   C     C_R   0.522433 0.356012 0.843356 0.085849
C12   C     C_R   0.500000 0.326512 0.500000 0.974810
C13   C     C_R   0.477549 0.356012 0.156646 0.085874
C14   C     C_R   0.452663 0.400501 0.895989 -0.112596
C15   C     C_R   0.547329 0.400488 0.104014 -0.112510
C16   C     C_R   0.392891 0.474472 0.868538 0.487431
C17   C     C_R   0.607116 0.474448 0.131466 0.487404
C18   C     C_R   0.406555 0.504453 0.789385 -0.319036
C19   C     C_R   0.593453 0.504435 0.210616 -0.319019
C20   C     C_2   0.455723 0.381390 0.982186 -0.051999
C21   C     C_2   0.544266 0.381380 0.017817 -0.052139
C22   C     C_1   0.500000 0.774145 0.500000 -0.184006
C23   C     C_1   0.500000 0.225899 0.500000 -0.122861
C24   C     C_1   0.500000 0.858708 0.500000 0.027558
C25   C     C_1   0.500000 0.141353 0.500000 0.045407
C26   C     C_1   0.500000 0.957759 0.500000 0.049569
C27   C     C_1   0.500000 0.042313 0.500000 0.051462
C28   C     C_1   0.830629 0.499955 0.500020 0.167888
H1    H     H_    0.642312 0.557749 0.233874 0.213591
H2    H     H_    0.357706 0.557774 0.766128 0.213600
H3    H     H_    0.613486 0.385616 0.981496 0.224233
H4    H     H_    0.386504 0.385639 0.018506 0.224311
H5    H     H_    0.802658 0.294149 0.748773 0.395071
H6    H     H_    0.197330 0.294158 0.251232 0.395069
H7    H     H_    0.303076 0.592572 0.050788 0.400677
H8    H     H_    0.696956 0.592183 0.949085 0.400601
I1    I     I_    0.431290 0.215979 0.128647 -0.122030
I2    I     I_    0.568665 0.215970 0.871353 -0.122005
N1    N     N_1   0.738130 0.500000 0.500020 -0.034777
N2    N     N_1   0.261870 0.500000 0.499980 -0.034774
O1    O     O_R   0.423530 0.626280 0.499990 -0.602892
O2    O     O_2   0.721708 0.455366 0.692694 -0.280069
O3    O     O_3   0.743355 0.312278 0.782978 -0.491522
O4    O     O_2   0.351983 0.306418 0.349510 -0.317238
O5    O     O_2   0.278286 0.455399 0.307300 -0.280011
O6    O     O_3   0.256618 0.312312 0.217020 -0.491490
O7    O     O_2   0.253087 0.610535 0.888413 -0.249549
O8    O     O_2   0.223746 0.461744 0.959299 -0.261540
O9    O     O_3   0.358601 0.574979 0.012476 -0.520870
O10   O     O_2   0.746962 0.610478 0.111591 -0.249330
O11   O     O_2   0.776257 0.461677 0.040710 -0.261731
O12   O     O_R   0.576470 0.373720 0.500010 -0.576734
O13   O     O_3   0.641436 0.574950 0.987529 -0.520795
O14   O     O_R   0.576470 0.626280 0.500010 -0.602893
O15   O     O_R   0.423530 0.373720 0.499990 -0.576739
O16   O     O_R   0.414510 0.500000 0.615790 -0.626638
O17   O     O_R   0.585490 0.500000 0.384210 -0.626639
O18   O     O_R   0.567420 0.500000 0.615810 -0.535406
O19   O     O_R   0.432580 0.500000 0.384190 -0.535403
O20   O     O_2   0.647985 0.306393 0.650490 -0.317200
S1    S     S_3+6 0.667209 0.368464 0.721024 0.061070
S2    S     S_3+6 0.332771 0.368488 0.278974 0.061114
S3    S     S_3+6 0.302229 0.531675 0.931958 0.066616
S4    S     S_3+6 0.697795 0.531629 0.068047 0.066666
Zn1   Zn    Zn3+2 0.397910 0.500000 0.499990 1.058830
Zn2   Zn    Zn3+2 0.602090 0.500000 0.500010 1.058827

loop_
_geom_bond_atom_site_label_1
_geom_bond_atom_site_label_2
_ccdc_geom_bond_type
H7    O9    S    
C11   I2    S    
C2    C4    S    
C1    O14   A    
C5    C7    S    
H6    O6    S    
C16   S3    S    
C14   C20   S    
C25   C27   S    
O10   S4    D    
C5    O16   A    
C13   I1    S    
O2    S1    D    
O17   Zn2   S    
C9    C11   A    
C7    C18   A    
O4    S2    D    
C7    C9    A    
C23   C25   T    
C1    C22   S    
C19   H1    S    
O19   Zn1   S    
C21   H3    S    
C6    O17   A    
C26   C27   T    
C10   S2    S    
C5    O18   A    
O6    S2    S    
O9    S3    S    
C22   C24   T    
C1    O1    A    
C3    C28   S    
C12   O12   A    
C24   C26   S    
C12   C23   S    
C14   C16   A    
N2    Zn1   S    
C13   C15   A    
C17   S4    S    
O7    S3    D    
C18   H2    S    
N1    Zn2   S    
C9    S1    S    
C8    C19   A    
O1    Zn1   S    
C3    C4    T    
C12   O15   A    
C2    N2    T    
O5    S2    D    
C15   C21   S    
O12   Zn2   S    
C20   C21   D    
O3    S1    S    
C16   C18   A    
C20   H4    S    
C11   C14   A    
C15   C17   A    
O13   S4    S    
C17   C19   A    
O8    S3    D    
C6    C8    S    
H8    O13   S    
C28   N1    T    
O15   Zn1   S    
O14   Zn2   S    
C6    O19   A    
O18   Zn2   S    
C8    C10   A    
O11   S4    D    
O16   Zn1   S    
O20   S1    D    
C10   C13   A    
H5    O3    S    
