data_mof_unit_22658.cif
_audit_creation_date              2013-03-05T16:34:52-0500
_audit_creation_method            fapswitch 2.2
_symmetry_space_group_name_H-M    P1
_symmetry_Int_Tables_number       1
_space_group_crystal_system       triclinic
_cell_length_a                    15.102594
_cell_length_b                    9.098224
_cell_length_c                    7.794793
_cell_angle_alpha                 90.048074
_cell_angle_beta                  90.269959
_cell_angle_gamma                 90.317983
_cell_volume                      1071.02864774

loop_
_atom_site_label
_atom_site_type_symbol
_atom_site_description
_atom_site_fract_x
_atom_site_fract_y
_atom_site_fract_z
_atom_type_partial_charge
O1    O     O_R   0.500000 0.288390 0.642760 -0.583313
O2    O     O_R   0.500000 0.711610 0.357240 -0.583258
O3    O     O_R   0.500000 0.711610 0.642760 -0.566303
O4    O     O_R   0.500000 0.288390 0.357240 -0.566280
H1    H     H_    0.918968 0.129497 0.461782 0.168413
H2    H     H_    0.081044 0.870505 0.537512 0.168224
H3    H     H_    0.924203 0.872085 0.537521 0.152412
H4    H     H_    0.075795 0.127913 0.461871 0.152300
C1    C     C_R   0.500514 0.220055 0.499984 0.873053
C2    C     C_R   0.499488 0.779945 0.500016 0.873032
O5    O     O_R   0.370260 0.500000 0.642800 -0.601637
O6    O     O_R   0.629740 0.500000 0.357200 -0.601628
O7    O     O_R   0.629740 0.500000 0.642800 -0.548605
O8    O     O_R   0.370260 0.500000 0.357200 -0.548515
C3    C     C_R   0.328846 0.498267 0.499529 0.841206
C4    C     C_R   0.671154 0.501729 0.500469 0.840817
Cu1   Cu    Cu3+1 0.500000 0.500000 0.669080 1.054723
Cu2   Cu    Cu3+1 0.500000 0.500000 0.330920 1.054781
N1    N     N_1   0.500000 0.500000 0.076820 -0.036726
N2    N     N_1   0.500000 0.500000 0.923180 -0.036729
C5    C     C_R   0.813950 0.636709 0.503005 -0.064617
C6    C     C_R   0.186049 0.363258 0.496848 -0.064627
C7    C     C_R   0.812129 0.366381 0.504434 -0.086558
C8    C     C_R   0.187869 0.633576 0.495478 -0.086341
C9    C     C_R   0.767441 0.501806 0.502148 -0.146222
C10   C     C_R   0.232559 0.498162 0.497819 -0.146178
C11   C     C_R   0.905426 0.365685 0.496482 0.099434
C12   C     C_R   0.094572 0.634283 0.503231 0.099311
C13   C     C_R   0.907249 0.635638 0.506970 0.040702
C14   C     C_R   0.092749 0.364336 0.492734 0.040674
C15   C     C_R   0.953045 0.500316 0.500773 0.048681
C16   C     C_R   0.046952 0.499656 0.498928 0.048752
C17   C     C_R   0.952317 0.233784 0.478815 -0.139493
C18   C     C_R   0.047684 0.766203 0.520685 -0.139752
C19   C     C_R   0.956052 0.766972 0.521720 -0.217687
C20   C     C_R   0.043948 0.233015 0.477804 -0.217864
C21   C     C_1   0.500207 0.065364 0.499969 -0.107255
C22   C     C_1   0.499797 0.934635 0.500032 -0.107270
C23   C     C_2   0.765306 0.778696 0.496645 0.385420
H5    H     H_    0.787876 0.866256 0.412820 0.080707
O9    O     O_2   0.701347 0.800415 0.588147 -0.521087
C24   C     C_2   0.234684 0.221265 0.503347 0.385330
H6    H     H_    0.212021 0.133689 0.587056 0.080568
O10   O     O_2   0.298761 0.199570 0.412136 -0.521212
C25   C     C_2   0.759648 0.227620 0.518274 0.345861
H7    H     H_    0.699155 0.213650 0.444221 0.057612
O11   O     O_2   0.781030 0.131532 0.619364 -0.528186
C26   C     C_2   0.240342 0.772339 0.481863 0.345288
H8    H     H_    0.300546 0.786563 0.556660 0.057901
O12   O     O_2   0.219287 0.868114 0.380172 -0.527863

loop_
_geom_bond_atom_site_label_1
_geom_bond_atom_site_label_2
_geom_bond_distance
_ccdc_geom_bond_type
C24   O10   1.220369 D    
C21   C22   1.189383 T    
C7    C25   1.491181 S    
O7    Cu1   1.971049 S    
O2    Cu2   1.936004 S    
C8    C12   1.410652 A    
C4    C9    1.454175 S    
O8    Cu2   1.971051 S    
O1    Cu1   1.936005 S    
C15   C16   1.418431 A    
C5    C23   1.490404 S    
C14   C20   1.404800 A    
C2    C22   1.407390 S    
O4    Cu2   1.936347 S    
Cu1   N2    1.980656 S    
C26   O12   1.220898 D    
Cu1   Cu2   2.635888 S    
C12   C18   1.403782 A    
C13   C15   1.416399 A    
O3    C2    1.275045 A    
C25   H7    1.085187 S    
C11   C17   1.403825 A    
C14   C16   1.416392 A    
H3    C19   1.080090 S    
C6    C24   1.490414 S    
C5    C13   1.409344 A    
O6    C4    1.277444 A    
C1    C21   1.407392 S    
C26   H8    1.084865 S    
C8    C10   1.408155 A    
O3    Cu1   1.936347 S    
C7    C11   1.410733 A    
C7    C9    1.408220 A    
H4    C20   1.080109 S    
C18   C19   1.383996 A    
O7    C4    1.276233 A    
C24   H6    1.085231 S    
C11   C15   1.417267 A    
C8    C26   1.491010 S    
H2    C18   1.079553 S    
C12   C16   1.417240 A    
C17   C20   1.383973 A    
O1    C1    1.274421 A    
C23   O9    1.220315 D    
Cu2   N1    1.980656 S    
C6    C10   1.410770 A    
C25   O11   1.221215 D    
O6    Cu2   1.969129 S    
C23   H5    1.085229 S    
C13   C19   1.404791 A    
O8    C3    1.276219 A    
O5    Cu1   1.969131 S    
C3    C10   1.454175 S    
C5    C9    1.410759 A    
C6    C14   1.409379 A    
O4    C1    1.275048 A    
O5    C3    1.277459 A    
N1    N2    1.197593 T    
H1    C17   1.079547 S    
O2    C2    1.274422 A    
