data_mof_unit_30319.cif
_audit_creation_date              2012-12-10T20:44:49-0500
_audit_creation_method            fapswitch 2.2
_symmetry_space_group_name_H-M    P1
_symmetry_Int_Tables_number       1
_space_group_crystal_system       triclinic
_cell_length_a                    9.847308
_cell_length_b                    10.673798
_cell_length_c                    16.814739
_cell_angle_alpha                 89.401172
_cell_angle_beta                  94.471271
_cell_angle_gamma                 89.672619
_cell_volume                      1761.85364362

loop_
_atom_site_label
_atom_site_type_symbol
_atom_type_description
_atom_site_fract_x
_atom_site_fract_y
_atom_site_fract_z
_atom_type_partial_charge
C1    C     C_R   0.500959 0.260205 0.502249 0.897610
C2    C     C_R   0.506143 0.129023 0.513360 -0.144136
C3    C     C_R   0.404836 0.067347 0.552264 -0.232761
C4    C     C_R   0.517661 0.495103 0.653395 0.858473
C5    C     C_R   0.402067 0.936824 0.553673 0.168177
C6    C     C_R   0.502223 0.871595 0.513719 -0.142204
C7    C     C_R   0.613345 0.935983 0.487656 0.051122
C8    C     C_3   0.684588 0.930914 0.411754 -0.192888
C9    C     C_3   0.689127 0.073524 0.414485 -0.513638
C10   C     C_R   0.079671 0.444160 0.561077 0.226361
C11   C     C_R   0.064171 0.565082 0.443791 -0.143569
C12   C     C_R   0.654443 0.474806 0.783119 -0.221848
C13   C     C_R   0.920049 0.565016 0.443763 -0.138490
C14   C     C_R   0.937025 0.444539 0.561216 0.215407
C15   C     C_3   0.934645 0.310042 0.585607 -0.504152
C16   C     C_R   0.499869 0.739875 0.503180 0.912186
C17   C     C_3   0.088713 0.309215 0.584779 -0.531421
C18   C     C_R   0.482313 0.497407 0.346732 0.886784
C19   C     C_R   0.527645 0.473647 0.739030 -0.025297
C20   C     C_R   0.409806 0.442920 0.776327 -0.238424
C21   C     C_R   0.417754 0.416703 0.857096 -0.166246
C22   C     C_R   0.544180 0.422703 0.902227 0.328737
C23   C     C_R   0.578417 0.406986 0.145177 -0.175426
C24   C     C_R   0.662263 0.449290 0.864535 -0.198050
C25   C     C_3   0.291042 0.872059 0.595166 -0.855860
C26   C     C_R   0.601449 0.880838 0.339172 0.180466
C27   C     C_R   0.664906 0.802315 0.286465 -0.155321
C28   C     C_R   0.592620 0.758716 0.217518 -0.132009
C29   C     C_R   0.455855 0.791739 0.200914 -0.105823
C30   C     C_R   0.391319 0.869252 0.252939 -0.160741
C31   C     C_R   0.463640 0.914539 0.321402 -0.154912
C32   C     C_R   0.587306 0.432908 0.225687 -0.256321
C33   C     C_R   0.453488 0.423381 0.099380 0.329725
C34   C     C_R   0.471849 0.474176 0.261712 -0.012444
C35   C     C_R   0.346023 0.484896 0.217052 -0.221066
C36   C     C_R   0.337272 0.459366 0.136068 -0.213003
C37   C     C_R   0.617156 0.063125 0.489363 0.097282
H1    H     H_    0.684757 0.420783 0.259560 0.164315
H2    H     H_    0.669834 0.377126 0.118685 0.149137
H3    H     H_    0.125617 0.249337 0.537154 0.219377
H4    H     H_    0.759786 0.454011 0.898876 0.135644
H5    H     H_    0.746922 0.496353 0.754978 0.158411
H6    H     H_    0.255367 0.514980 0.244295 0.155438
H7    H     H_    0.324487 0.394601 0.884209 0.146340
H8    H     H_    0.240929 0.472040 0.101130 0.136514
H9    H     H_    0.311139 0.438532 0.743203 0.159436
H10   H     H_    0.325760 0.120398 0.578366 0.161945
H11   H     H_    0.216228 0.829938 0.550569 0.253244
H12   H     H_    0.787763 0.887833 0.422153 0.150527
H13   H     H_    0.335951 0.798332 0.636457 0.240743
H14   H     H_    0.234665 0.938701 0.631028 0.223413
H15   H     H_    0.771035 0.776207 0.298040 0.103794
H16   H     H_    0.642664 0.699073 0.176959 0.143079
H17   H     H_    0.399951 0.757290 0.147693 0.138323
H18   H     H_    0.285420 0.895085 0.239904 0.131943
H19   H     H_    0.412207 0.976230 0.360148 0.138401
H20   H     H_    0.794120 0.110213 0.426029 0.191391
H21   H     H_    0.627074 0.123060 0.365553 0.199885
H22   H     H_    0.112206 0.615591 0.397562 0.143815
H23   H     H_    0.859134 0.615340 0.397513 0.140292
H24   H     H_    0.899104 0.297469 0.646304 0.200295
H25   H     H_    0.883128 0.249895 0.539055 0.220195
H26   H     H_    0.142282 0.295007 0.644880 0.193995
N1    N     N_2   0.555034 0.414359 0.986139 -0.211743
N2    N     N_2   0.442954 0.416148 0.015615 -0.211146
N3    N     N_R   0.142860 0.499130 0.500540 -0.104844
N4    N     N_R   0.857210 0.499170 0.500530 -0.105710
O1    O     O_R   0.614690 0.316790 0.499990 -0.615542
O2    O     O_R   0.385350 0.316760 0.500000 -0.624139
O3    O     O_R   0.627460 0.498860 0.616130 -0.621035
O4    O     O_R   0.398120 0.498820 0.616130 -0.624848
O5    O     O_R   0.614650 0.683240 0.500000 -0.617478
O6    O     O_R   0.385310 0.683210 0.500010 -0.614330
O7    O     O_R   0.601880 0.501180 0.383870 -0.624766
O8    O     O_R   0.372540 0.501140 0.383870 -0.622589
Zn1   Zn    Zn3+2 0.653130 0.500020 0.499990 0.943332
Zn2   Zn    Zn3+2 0.346870 0.499980 0.500010 0.938667

loop_
_geom_bond_atom_site_label_1
_geom_bond_atom_site_label_2
_ccdc_geom_bond_type
C18   O8    A    
C8    C26   S    
O2    Zn2   S    
C35   C36   A    
C16   O5    A    
O5    Zn1   S    
C33   C36   A    
C4    O3    A    
C33   N2    S    
C7    C8    S    
C13   H23   S    
C26   C27   A    
O7    Zn1   S    
C28   C29   A    
C34   C35   A    
C30   C31   A    
C29   H17   S    
C10   C17   S    
C1    O1    A    
C1    C2    S    
C25   H13   S    
C12   H5    S    
C4    C19   S    
C19   C20   A    
C8    C9    S    
C23   C33   A    
C14   N4    A    
C32   H1    S    
C31   H19   S    
C35   H6    S    
C11   N3    A    
C26   C31   A    
C18   O7    A    
C21   C22   A    
C24   H4    S    
C11   H22   S    
C10   N3    A    
C15   H24   S    
C16   O6    A    
C10   C14   A    
C22   N1    S    
C1    O2    A    
C17   H3    S    
C32   C34   A    
C25   H14   S    
C29   C30   A    
C21   H7    S    
C18   C34   S    
C9    C37   S    
C7    C37   A    
C36   H8    S    
O8    Zn2   S    
C25   H11   S    
C5    C25   S    
O3    Zn1   S    
C22   C24   A    
O4    Zn2   S    
C27   H15   S    
C13   N4    A    
C15   C17   S    
N3    Zn2   S    
C9    H21   S    
C23   C32   A    
C3    C5    A    
C28   H16   S    
C6    C7    A    
O1    Zn1   S    
C30   H18   S    
C12   C24   A    
N1    N2    D    
C2    C3    A    
C17   H26   S    
C11   C13   A    
C2    C37   A    
C5    C6    A    
C23   H2    S    
C12   C19   A    
C3    H10   S    
C15   H25   S    
C9    H20   S    
C6    C16   S    
C20   C21   A    
C27   C28   A    
O6    Zn2   S    
C14   C15   S    
N4    Zn1   S    
C8    H12   S    
C4    O4    A    
C20   H9    S    
