data_mof_unit_19929.cif
_audit_creation_date              2012-12-10T18:57:51-0500
_audit_creation_method            fapswitch 2.2
_symmetry_space_group_name_H-M    P1
_symmetry_Int_Tables_number       1
_space_group_crystal_system       triclinic
_cell_length_a                    10.644951
_cell_length_b                    9.892108
_cell_length_c                    8.917155
_cell_angle_alpha                 90.152021
_cell_angle_beta                  90.020708
_cell_angle_gamma                 90.43465
_cell_volume                      938.954990888

loop_
_atom_site_label
_atom_site_type_symbol
_atom_type_description
_atom_site_fract_x
_atom_site_fract_y
_atom_site_fract_z
_atom_type_partial_charge
C1    C     C_R   0.260701 0.499496 0.500134 0.805491
C2    C     C_R   0.065725 0.539513 0.631965 -0.061791
C3    C     C_R   0.871989 0.502051 0.499306 -0.210219
C4    C     C_R   0.128011 0.497949 0.500694 -0.210219
C5    C     C_R   0.578444 0.073367 0.593237 0.098916
C6    C     C_R   0.421556 0.926633 0.406763 0.098916
C7    C     C_R   0.421571 0.071555 0.406771 0.104885
C8    C     C_R   0.578429 0.928445 0.593229 0.104886
C9    C     C_2   0.138189 0.435456 0.227307 0.463083
C10   C     C_2   0.861810 0.564543 0.772693 0.463083
C11   C     C_2   0.860682 0.412323 0.235524 0.593225
C12   C     C_R   0.739299 0.500504 0.499866 0.805491
C13   C     C_2   0.139318 0.587677 0.764476 0.593225
C14   C     C_R   0.499572 0.499891 0.218750 0.900547
C15   C     C_R   0.500428 0.500109 0.781250 0.900547
C16   C     C_1   0.499824 0.499842 0.065388 -0.171163
C17   C     C_1   0.500176 0.500158 0.934612 -0.171162
C18   C     C_R   0.065258 0.461628 0.367487 -0.024293
C19   C     C_R   0.934741 0.538371 0.632513 -0.024294
C20   C     C_R   0.934275 0.460487 0.368035 -0.061791
H1    H     H_    0.228480 0.386004 0.231921 0.061852
H2    H     H_    0.247015 0.117281 0.333659 0.174585
H3    H     H_    0.752985 0.882719 0.666340 0.174585
H4    H     H_    0.640413 0.882164 0.801317 0.173750
H5    H     H_    0.771520 0.613996 0.768079 0.061852
H6    H     H_    0.772848 0.460471 0.206342 0.025249
H7    H     H_    0.227152 0.539529 0.793658 0.025248
H8    H     H_    0.753024 0.122396 0.666325 0.184324
H9    H     H_    0.640493 0.121701 0.801328 0.179494
H10   H     H_    0.359508 0.878299 0.198671 0.179495
H11   H     H_    0.246976 0.877604 0.333674 0.184324
H12   H     H_    0.359587 0.117836 0.198683 0.173750
N1    N     N_R   0.500000 0.857200 0.500000 -0.078972
N2    N     N_R   0.500000 0.142800 0.500000 -0.078972
N3    N     N_3   0.660241 0.148429 0.690476 -0.377654
N4    N     N_3   0.339760 0.851571 0.309523 -0.377654
N5    N     N_3   0.339806 0.144715 0.309540 -0.403110
N6    N     N_3   0.660194 0.855285 0.690460 -0.403110
O1    O     O_R   0.316770 0.614620 0.499990 -0.594447
O2    O     O_2   0.899106 0.525046 0.894169 -0.494862
O3    O     O_2   0.894730 0.314874 0.162117 -0.530947
O4    O     O_2   0.105270 0.685126 0.837882 -0.530947
O5    O     O_R   0.683230 0.385380 0.500010 -0.594447
O6    O     O_R   0.683230 0.614620 0.500010 -0.606728
O7    O     O_R   0.316770 0.385380 0.499990 -0.606728
O8    O     O_R   0.500010 0.614640 0.285340 -0.593349
O9    O     O_R   0.499990 0.385360 0.714660 -0.593349
O10   O     O_R   0.499990 0.614640 0.714660 -0.606146
O11   O     O_R   0.500010 0.385360 0.285340 -0.606146
O12   O     O_2   0.100894 0.474955 0.105830 -0.494862
Zn1   Zn    Zn3+2 0.500000 0.653120 0.500000 0.988279
Zn2   Zn    Zn3+2 0.500000 0.346880 0.500000 0.988279

loop_
_geom_bond_atom_site_label_1
_geom_bond_atom_site_label_2
_ccdc_geom_bond_type
C5    C8    A    
O1    Zn1   S    
C3    C19   A    
C6    C7    A    
H10   N4    S    
N1    Zn1   S    
H3    N6    S    
H9    N3    S    
H4    N6    S    
O7    Zn2   S    
C6    N1    A    
C15   O9    A    
C10   C19   S    
O11   Zn2   S    
C9    H1    S    
C5    N2    A    
C1    C4    S    
C7    N5    S    
C4    C18   A    
C3    C20   A    
C12   O6    A    
H12   N5    S    
C1    O7    A    
O9    Zn2   S    
C8    N6    S    
C15   O10   A    
C2    C4    A    
C5    N3    S    
O6    Zn1   S    
C13   O4    D    
C6    N4    S    
C11   O3    D    
C12   O5    A    
C18   C20   A    
C8    N1    A    
C11   C20   S    
C7    N2    A    
C14   C16   S    
O5    Zn2   S    
C14   O11   A    
C1    O1    A    
C9    C18   S    
C10   H5    S    
C10   O2    D    
C15   C17   S    
C2    C13   S    
H11   N4    S    
C13   H7    S    
C3    C12   S    
C11   H6    S    
C2    C19   A    
H2    N5    S    
N2    Zn2   S    
O8    Zn1   S    
O10   Zn1   S    
C9    O12   D    
H8    N3    S    
C16   C17   T    
C14   O8    A    
