data_mof_unit_62108.cif
_audit_creation_date              2012-12-10T18:16:47-0500
_audit_creation_method            fapswitch 2.2
_symmetry_space_group_name_H-M    P1
_symmetry_Int_Tables_number       1
_space_group_crystal_system       triclinic
_cell_length_a                    38.939931
_cell_length_b                    32.258497
_cell_length_c                    21.447323
_cell_angle_alpha                 90.125546
_cell_angle_beta                  124.295656
_cell_angle_gamma                 89.950951
_cell_volume                      22256.9420731

loop_
_atom_site_label
_atom_site_type_symbol
_atom_type_description
_atom_site_fract_x
_atom_site_fract_y
_atom_site_fract_z
_atom_type_partial_charge
C1    C     C_R   0.920492 0.999983 0.418637 0.870632
C2    C     C_R   0.079546 0.999883 0.581164 0.870883
C3    C     C_R   0.420481 0.499952 0.418608 0.869011
C4    C     C_R   0.579549 0.499882 0.581123 0.870533
C5    C     C_3   0.999253 0.000948 0.687880 -0.362304
C6    C     C_3   0.001838 0.000923 0.313306 -0.333543
C7    C     C_3   0.498703 0.500935 0.687424 -0.362758
C8    C     C_3   0.501793 0.500955 0.313249 -0.333432
C9    C     C_R   0.727257 0.964944 0.191810 0.390555
C10   C     C_R   0.273597 0.965756 0.812392 0.388622
C11   C     C_R   0.227038 0.464547 0.191600 0.392816
C12   C     C_R   0.773617 0.465943 0.812249 0.387906
C13   C     C_R   0.706181 0.995680 0.205210 0.000240
C14   C     C_R   0.294036 0.996656 0.798089 0.003629
C15   C     C_R   0.206124 0.495339 0.205281 0.000076
C16   C     C_R   0.794047 0.496824 0.797958 0.004597
C17   C     C_R   0.728354 0.026332 0.259906 -0.289845
C18   C     C_R   0.271339 0.026115 0.741953 -0.295247
C19   C     C_R   0.228452 0.525688 0.260564 -0.289693
C20   C     C_R   0.771371 0.526237 0.741744 -0.293828
C21   C     C_R   0.771802 0.028328 0.301978 0.028164
C22   C     C_R   0.227907 0.026189 0.697732 0.027084
C23   C     C_R   0.271910 0.527164 0.303131 0.028103
C24   C     C_R   0.727911 0.526188 0.697227 0.026974
C25   C     C_R   0.793535 0.997923 0.289277 0.011589
C26   C     C_R   0.206623 0.997240 0.714095 0.016772
C27   C     C_R   0.293484 0.497111 0.289437 0.009987
C28   C     C_R   0.706641 0.497331 0.713761 0.017463
C29   C     C_R   0.771492 0.966561 0.233587 -0.129611
C30   C     C_R   0.229340 0.967297 0.772637 -0.128804
C31   C     C_R   0.271282 0.466084 0.233118 -0.129530
C32   C     C_R   0.729362 0.467493 0.772540 -0.128439
C33   C     C_1   0.661369 0.997623 0.161729 0.086836
C34   C     C_1   0.338754 0.998804 0.840011 0.092017
C35   C     C_1   0.161334 0.497467 0.161765 0.089767
C36   C     C_1   0.838764 0.498964 0.839934 0.089935
C37   C     C_1   0.838512 0.999228 0.332571 -0.014360
C38   C     C_1   0.161590 0.997844 0.668748 -0.017279
C39   C     C_1   0.338477 0.498628 0.332459 -0.013229
C40   C     C_1   0.661600 0.497882 0.668477 -0.017475
C41   C     C_1   0.875978 0.999797 0.371201 -0.055492
C42   C     C_1   0.124100 0.999063 0.629054 -0.058751
C43   C     C_1   0.375949 0.499564 0.371087 -0.053888
C44   C     C_1   0.624112 0.499066 0.628893 -0.060045
C45   C     C_R   0.999731 0.000185 0.620201 0.942001
C46   C     C_R   0.000740 0.000157 0.380316 0.942766
C47   C     C_R   0.499441 0.500199 0.619932 0.942716
C48   C     C_R   0.500722 0.500160 0.380291 0.941066
C49   C     C_1   0.623922 0.999069 0.124829 -0.099709
C50   C     C_1   0.376156 0.999965 0.875748 -0.092862
C51   C     C_1   0.123900 0.499003 0.124828 -0.092680
C52   C     C_1   0.876169 0.500072 0.875730 -0.097671
C53   C     C_R   0.999991 0.920433 0.000010 0.922666
C54   C     C_R   0.499991 0.420433 0.999982 0.920633
C55   C     C_R   0.999696 0.000557 0.879222 0.922434
C56   C     C_R   0.000413 0.999992 0.120967 0.913753
C57   C     C_R   0.499679 0.499987 0.879225 0.923455
C58   C     C_R   0.500409 0.500119 0.120951 0.914664
C59   C     C_R   0.000060 0.079871 0.000629 0.769172
C60   C     C_R   0.500073 0.579901 0.999809 0.771545
C61   C     C_R   0.499589 0.920803 0.999568 0.824452
C62   C     C_R   0.999410 0.420865 0.999303 0.826459
C63   C     C_R   0.579360 0.000019 0.079685 0.811648
C64   C     C_R   0.420671 0.000333 0.920395 0.812327
C65   C     C_R   0.079353 0.500019 0.079680 0.815981
C66   C     C_R   0.920672 0.500361 0.920398 0.808501
C67   C     C_R   0.499995 0.079468 0.000053 0.798871
C68   C     C_R   0.999995 0.579468 0.000052 0.798564
C69   C     C_R   0.477423 0.228359 0.022311 -0.163028
C70   C     C_R   0.522540 0.228202 0.977954 -0.164732
C71   C     C_R   0.977319 0.728353 0.022113 -0.162563
C72   C     C_R   0.022641 0.728206 0.978199 -0.164582
C73   C     C_R   0.499976 0.206401 0.000163 0.142231
C74   C     C_R   0.999974 0.706400 0.000180 0.142007
C75   C     C_R   0.022620 0.771636 0.978140 -0.146314
C76   C     C_R   0.977318 0.771785 0.022098 -0.141108
C77   C     C_R   0.522518 0.271632 0.977882 -0.145790
C78   C     C_R   0.477421 0.271790 0.022284 -0.142348
C79   C     C_3   0.963955 0.983383 0.692662 0.275653
C80   C     C_3   0.037162 0.983142 0.308677 0.272924
C81   C     C_3   0.464088 0.482013 0.692902 0.275288
C82   C     C_3   0.536705 0.482454 0.308134 0.273270
C83   C     C_R   0.999973 0.793579 0.000089 0.128870
C84   C     C_R   0.499973 0.293579 0.000046 0.128879
C85   C     C_1   0.499977 0.161601 0.000181 -0.051472
C86   C     C_1   0.999975 0.661601 0.000188 -0.051233
C87   C     C_1   0.999966 0.838356 0.000045 -0.005386
C88   C     C_1   0.499966 0.338356 0.999997 -0.005346
C89   C     C_1   0.999972 0.875819 0.000022 -0.029798
C90   C     C_1   0.499973 0.375819 0.999978 -0.029223
C91   C     C_1   0.499982 0.124119 0.000158 -0.148715
C92   C     C_1   0.999981 0.624119 0.000159 -0.148379
C93   C     C_R   0.466467 0.772324 0.944992 0.313706
C94   C     C_R   0.540632 0.773294 0.044123 0.355060
C95   C     C_R   0.966774 0.272766 0.946846 0.330112
C96   C     C_R   0.039721 0.273471 0.055085 0.353252
C97   C     C_R   0.502782 0.794504 0.996400 -0.139259
C98   C     C_R   0.002972 0.294718 0.000147 -0.149670
C99   C     C_R   0.036978 0.229584 0.060784 -0.106386
C100  C     C_R   0.970639 0.230374 0.933687 -0.063177
C101  C     C_R   0.538640 0.729677 0.052770 -0.090060
C102  C     C_R   0.470603 0.730614 0.928516 -0.066531
C103  C     C_R   0.003191 0.207760 0.997512 -0.050711
C104  C     C_R   0.504067 0.707650 0.990704 -0.039102
C105  C     C_1   0.500724 0.839162 0.998818 0.210289
C106  C     C_1   0.000899 0.339378 0.999482 0.203658
C107  C     C_3   0.996852 0.962412 0.767830 0.350000
C108  C     C_3   0.004136 0.961875 0.233602 0.338640
C109  C     C_3   0.497779 0.461874 0.768427 0.348416
C110  C     C_3   0.503208 0.461960 0.232559 0.341786
C111  C     C_1   0.001427 0.162473 0.999778 -0.002130
C112  C     C_1   0.501863 0.662455 0.994271 -0.003863
C113  C     C_1   0.000436 0.124828 0.000511 -0.170319
C114  C     C_1   0.500571 0.624860 0.997097 -0.173922
C115  C     C_1   0.499719 0.876467 0.999508 -0.040849
C116  C     C_1   0.999578 0.376642 0.999023 -0.035085
C117  C     C_3   0.998685 0.001687 0.810248 -0.300588
C118  C     C_3   0.001973 0.000951 0.190680 -0.300092
C119  C     C_3   0.498572 0.500985 0.810186 -0.300612
C120  C     C_3   0.501933 0.501089 0.190610 -0.300820
C121  C     C_3   0.965534 0.023233 0.735419 -0.181095
C122  C     C_3   0.035490 0.022695 0.265541 -0.165926
C123  C     C_3   0.464535 0.521610 0.735045 -0.177002
C124  C     C_3   0.535899 0.522063 0.265967 -0.167625
C125  C     C_3   0.001242 0.040316 0.731000 0.391483
C126  C     C_3   0.999996 0.040102 0.270085 0.423598
C127  C     C_3   0.499510 0.540097 0.729896 0.396394
C128  C     C_3   0.500780 0.540197 0.270956 0.423881
C129  C     C_3   0.034365 0.019216 0.806410 -0.270489
C130  C     C_3   0.966624 0.018954 0.194886 -0.324017
C131  C     C_3   0.533476 0.519916 0.805608 -0.273810
C132  C     C_3   0.466981 0.519816 0.195247 -0.326041
C133  C     C_3   0.031786 0.979958 0.762684 0.308087
C134  C     C_3   0.969201 0.979751 0.238611 0.248137
C135  C     C_3   0.532026 0.480764 0.762609 0.308366
C136  C     C_3   0.468694 0.480555 0.238044 0.245796
Cu1   Cu    Cu3+1 0.000000 0.041030 0.500000 1.146981
Cu2   Cu    Cu3+1 0.500000 0.541030 0.500000 1.146902
Cu3   Cu    Cu3+1 1.000000 0.958990 0.500000 1.158920
Cu4   Cu    Cu3+1 0.500000 0.458990 0.500000 1.160057
Cu5   Cu    Cu3+1 0.041030 0.000050 0.040990 1.046435
Cu6   Cu    Cu3+1 0.958970 0.000050 0.959010 1.035520
Cu7   Cu    Cu3+1 0.541030 0.500050 0.040990 1.047865
Cu8   Cu    Cu3+1 0.458970 0.500050 0.959010 1.035498
Cu9   Cu    Cu3+1 0.500010 0.000050 0.062750 1.025921
Cu10  Cu    Cu3+1 0.499990 0.000050 0.937250 1.023814
Cu11  Cu    Cu3+1 0.000010 0.500050 0.062750 1.029524
Cu12  Cu    Cu3+1 0.999990 0.500050 0.937250 1.021634
H1    H     H_    0.959686 0.788355 0.039199 0.168213
H2    H     H_    0.040255 0.788089 0.960995 0.163244
H3    H     H_    0.459869 0.288364 0.039554 0.167851
H4    H     H_    0.540073 0.288081 0.960561 0.163906
H5    H     H_    0.459843 0.211919 0.039581 0.149386
H6    H     H_    0.540108 0.211639 0.960709 0.147977
H7    H     H_    0.959659 0.711910 0.039206 0.149737
H8    H     H_    0.040288 0.711646 0.961121 0.147891
H9    H     H_    0.063298 0.033802 0.853882 0.225104
H10   H     H_    0.937729 0.033662 0.147724 0.219379
H11   H     H_    0.561987 0.535326 0.852641 0.224302
H12   H     H_    0.438422 0.535146 0.148411 0.218802
H13   H     H_    0.711394 0.049300 0.269411 0.159682
H14   H     H_    0.287878 0.049087 0.731484 0.159548
H15   H     H_    0.211651 0.548664 0.270445 0.159833
H16   H     H_    0.787941 0.549200 0.731360 0.159732
O1    O     O_R   0.940150 0.034650 0.440170 -0.582463
O2    O     O_R   0.059850 0.034650 0.559830 -0.587438
O3    O     O_R   0.440150 0.534650 0.440170 -0.580992
O4    O     O_R   0.559850 0.534650 0.559830 -0.589099
O5    O     O_R   0.559860 0.000050 0.112810 -0.580058
O6    O     O_R   0.440140 0.000050 0.887190 -0.581193
O7    O     O_R   0.059860 0.500050 0.112810 -0.577911
O8    O     O_R   0.940140 0.500050 0.887190 -0.580489
O9    O     O_R   0.559850 0.999980 0.006800 -0.562490
O10   O     O_R   0.440150 0.999980 0.993200 -0.560751
O11   O     O_R   0.059850 0.499980 0.006800 -0.563208
O12   O     O_R   0.940150 0.499980 0.993200 -0.562782
O13   O     O_R   0.500000 0.059900 0.052920 -0.579114
O14   O     O_R   0.500000 0.059900 0.947080 -0.579495
O15   O     O_R   0.000000 0.559900 0.052920 -0.579245
O16   O     O_R   0.000000 0.559900 0.947080 -0.579504
O17   O     O_R   0.940170 0.965370 0.440140 -0.562416
O18   O     O_R   0.059830 0.965370 0.559860 -0.563229
O19   O     O_R   0.440170 0.465370 0.440140 -0.562718
O20   O     O_R   0.559830 0.465370 0.559860 -0.562461
O21   O     O_R   0.000010 0.034650 0.591580 -0.541464
O22   O     O_R   0.999990 0.034650 0.408420 -0.540905
O23   O     O_R   0.500010 0.534650 0.591580 -0.542694
O24   O     O_R   0.499990 0.534650 0.408420 -0.541124
O25   O     O_R   0.000020 0.965370 0.591550 -0.531094
O26   O     O_R   0.999980 0.965370 0.408450 -0.531622
O27   O     O_R   0.500020 0.465370 0.591550 -0.529075
O28   O     O_R   0.499980 0.465370 0.408450 -0.531610
O29   O     O_R   0.034640 0.940200 0.034570 -0.559164
O30   O     O_R   0.965360 0.940200 0.965430 -0.565704
O31   O     O_R   0.534640 0.440200 0.034570 -0.559945
O32   O     O_R   0.465360 0.440200 0.965430 -0.565553
O33   O     O_R   0.034640 0.000050 0.943030 -0.569962
O34   O     O_R   0.965360 0.000050 0.056970 -0.587591
O35   O     O_R   0.534640 0.500050 0.943030 -0.569438
O36   O     O_R   0.465360 0.500050 0.056970 -0.586838
O37   O     O_R   0.965370 0.000070 0.873780 -0.572985
O38   O     O_R   0.034630 0.000070 0.126220 -0.568146
O39   O     O_R   0.465370 0.500070 0.873780 -0.575160
O40   O     O_R   0.534630 0.500070 0.126220 -0.569280
O41   O     O_R   0.034650 0.059910 0.034650 -0.597918
O42   O     O_R   0.965350 0.059910 0.965350 -0.592524
O43   O     O_R   0.534650 0.559910 0.034650 -0.595391
O44   O     O_R   0.465350 0.559910 0.965350 -0.592466
O45   O     O_R   0.500030 0.940190 0.053050 -0.567242
O46   O     O_R   0.499970 0.940190 0.946950 -0.563283
O47   O     O_R   0.000030 0.440190 0.053050 -0.561100
O48   O     O_R   0.999970 0.440190 0.946950 -0.570123
S1    S     S_3+6 0.994277 0.911455 0.797863 0.051807
O49   O     O_2   0.030444 0.904997 0.878040 -0.310192
O50   O     O_2   0.954538 0.907399 0.793605 -0.297028
O51   O     O_3   0.995837 0.875486 0.742575 -0.449773
H17   H     H_    0.971821 0.856962 0.725825 0.379378
S2    S     S_3+6 0.007688 0.910731 0.205108 0.055081
O52   O     O_2   0.969517 0.901465 0.128163 -0.297219
O53   O     O_2   0.045192 0.908499 0.201718 -0.309241
O54   O     O_3   0.011894 0.875480 0.266812 -0.435879
H18   H     H_    0.038849 0.861255 0.287197 0.373601
S3    S     S_3+6 0.496724 0.410735 0.799512 0.050747
O55   O     O_2   0.533325 0.404990 0.879539 -0.304576
O56   O     O_2   0.457353 0.405516 0.796194 -0.301787
O57   O     O_3   0.498791 0.375075 0.744338 -0.450785
H19   H     H_    0.474287 0.356948 0.725698 0.379474
S4    S     S_3+6 0.505450 0.410747 0.202729 0.055214
O58   O     O_2   0.467415 0.402723 0.125009 -0.296838
O59   O     O_2   0.543307 0.407326 0.200631 -0.309312
O60   O     O_3   0.507879 0.375407 0.262692 -0.436891
H20   H     H_    0.533545 0.359249 0.280981 0.374211
C137  C     C_R   0.793126 0.064486 0.354182 0.124634
C138  C     C_R   0.777698 0.104944 0.329203 -0.138834
C139  C     C_R   0.798093 0.139297 0.375767 -0.119555
C140  C     C_R   0.834647 0.133926 0.447172 -0.091443
C141  C     C_R   0.850289 0.094144 0.472786 -0.130750
C142  C     C_R   0.829006 0.059482 0.427864 -0.152131
H21   H     H_    0.750157 0.110064 0.273126 0.133736
H22   H     H_    0.785914 0.170162 0.356023 0.141841
H23   H     H_    0.850919 0.160549 0.482647 0.139650
H24   H     H_    0.879093 0.090443 0.527435 0.164792
H25   H     H_    0.840826 0.028936 0.450406 0.176800
C143  C     C_R   0.206072 0.055747 0.632726 0.131503
C144  C     C_R   0.220523 0.060508 0.585845 -0.125282
C145  C     C_R   0.201561 0.088683 0.526132 -0.152395
C146  C     C_R   0.167060 0.111395 0.510412 -0.090887
C147  C     C_R   0.152227 0.107019 0.556067 -0.078968
C148  C     C_R   0.172255 0.080184 0.618025 -0.134775
H26   H     H_    0.246711 0.042582 0.595883 0.136276
H27   H     H_    0.213885 0.092960 0.492267 0.128936
H28   H     H_    0.152094 0.132784 0.463516 0.133846
H29   H     H_    0.125659 0.124964 0.544120 0.162541
H30   H     H_    0.161375 0.078947 0.654592 0.144515
C149  C     C_R   0.293685 0.562215 0.357746 0.122929
C150  C     C_R   0.279792 0.603264 0.335030 -0.138177
C151  C     C_R   0.301124 0.636552 0.384045 -0.122079
C152  C     C_R   0.337003 0.629432 0.455707 -0.088218
C153  C     C_R   0.350976 0.588968 0.479140 -0.121526
C154  C     C_R   0.328770 0.555429 0.431616 -0.155351
H31   H     H_    0.252835 0.609637 0.278853 0.134204
H32   H     H_    0.290236 0.667934 0.366021 0.141864
H33   H     H_    0.354052 0.655217 0.493042 0.138256
H34   H     H_    0.379259 0.583817 0.533989 0.171008
H35   H     H_    0.339342 0.524305 0.452050 0.179297
C155  C     C_R   0.706191 0.555466 0.631698 0.131520
C156  C     C_R   0.721205 0.560266 0.585747 -0.127329
C157  C     C_R   0.702481 0.588228 0.525719 -0.154517
C158  C     C_R   0.667475 0.610563 0.508475 -0.090664
C159  C     C_R   0.652019 0.606112 0.553095 -0.079012
C160  C     C_R   0.671891 0.579619 0.615572 -0.135362
H36   H     H_    0.747719 0.542545 0.596750 0.136435
H37   H     H_    0.715302 0.592564 0.492693 0.130074
H38   H     H_    0.652626 0.631696 0.461154 0.135713
H39   H     H_    0.625051 0.623756 0.539963 0.164603
H40   H     H_    0.660562 0.578477 0.651417 0.144723
C161  C     C_R   0.946557 0.212237 0.853734 0.122268
C162  C     C_R   0.963802 0.179282 0.836112 -0.165048
C163  C     C_R   0.942883 0.162361 0.763500 -0.111518
C164  C     C_R   0.904536 0.177647 0.705814 -0.091915
C165  C     C_R   0.888118 0.211886 0.719380 -0.163757
C166  C     C_R   0.909355 0.229801 0.791290 -0.056382
H41   H     H_    0.994326 0.167048 0.877076 0.163172
H42   H     H_    0.956069 0.136781 0.751750 0.215311
H43   H     H_    0.888073 0.163538 0.650288 0.145460
H44   H     H_    0.859196 0.225251 0.673497 0.150029
H45   H     H_    0.895979 0.257963 0.793892 0.220216
C167  C     C_R   0.063550 0.208108 0.135986 0.149513
C168  C     C_R   0.043679 0.190416 0.167913 -0.140496
C169  C     C_R   0.067038 0.174405 0.241329 -0.111730
C170  C     C_R   0.110448 0.176238 0.284433 -0.093996
C171  C     C_R   0.130796 0.192106 0.252920 -0.137586
C172  C     C_R   0.107605 0.206709 0.178410 -0.029145
H46   H     H_    0.009969 0.189219 0.136054 0.164350
H47   H     H_    0.051646 0.160173 0.264921 0.198154
H48   H     H_    0.128386 0.163817 0.341184 0.133649
H49   H     H_    0.164594 0.192865 0.286262 0.143212
H50   H     H_    0.124573 0.216927 0.155288 0.182156
C173  C     C_R   0.445087 0.714771 0.846864 0.129705
C174  C     C_R   0.455939 0.678095 0.825278 -0.163710
C175  C     C_R   0.433294 0.664790 0.749954 -0.106965
C176  C     C_R   0.398921 0.686736 0.694107 -0.100425
C177  C     C_R   0.389395 0.724412 0.712001 -0.145041
C178  C     C_R   0.413229 0.739066 0.786273 -0.053944
H51   H     H_    0.483014 0.660132 0.864437 0.165381
H52   H     H_    0.442297 0.637254 0.734208 0.212814
H53   H     H_    0.380820 0.675379 0.636535 0.137863
H54   H     H_    0.364312 0.743067 0.667700 0.149154
H55   H     H_    0.406882 0.770346 0.793120 0.202979
C179  C     C_R   0.564843 0.710011 0.130278 0.122875
C180  C     C_R   0.544499 0.689385 0.158906 -0.151920
C181  C     C_R   0.566887 0.673881 0.232630 -0.121014
C182  C     C_R   0.609785 0.679146 0.279930 -0.100665
C183  C     C_R   0.630676 0.699108 0.253144 -0.151580
C184  C     C_R   0.608656 0.713699 0.178794 -0.027546
H56   H     H_    0.511053 0.685445 0.124502 0.166410
H57   H     H_    0.551176 0.657189 0.253172 0.199331
H58   H     H_    0.626982 0.666836 0.336724 0.137884
H59   H     H_    0.664106 0.703182 0.290085 0.148859
H60   H     H_    0.626889 0.727364 0.161243 0.207583
S5    S     S_3+6 0.417669 0.794854 0.916757 -0.008475
O61   O     O_2   0.383196 0.763326 0.879485 -0.280507
O62   O     O_2   0.420904 0.811855 0.985210 -0.250570
O63   O     O_3   0.406955 0.834436 0.857233 -0.569111
H61   H     H_    0.376902 0.840130 0.831918 0.390966
S6    S     S_3+6 0.588613 0.801274 0.088114 0.004451
O64   O     O_2   0.619043 0.777994 0.079208 -0.264906
O65   O     O_2   0.582376 0.842932 0.051873 -0.318420
O66   O     O_3   0.608408 0.808164 0.180268 -0.529885
H62   H     H_    0.622274 0.835591 0.193287 0.392560
S7    S     S_3+6 0.917944 0.296677 0.915112 -0.009116
O67   O     O_2   0.884176 0.264895 0.889330 -0.279848
O68   O     O_2   0.921965 0.321218 0.978681 -0.265890
O69   O     O_3   0.905418 0.329570 0.844342 -0.564946
H63   H     H_    0.877708 0.340788 0.827362 0.395547
S8    S     S_3+6 0.087221 0.302041 0.119461 0.011583
O70   O     O_2   0.121319 0.285980 0.112322 -0.272570
O71   O     O_2   0.083895 0.348275 0.103410 -0.308993
O72   O     O_3   0.100618 0.295586 0.209326 -0.515935
H64   H     H_    0.116230 0.321354 0.236804 0.385033
S9    S     S_3+6 0.920151 0.955556 0.617328 0.021548
O73   O     O_2   0.901792 0.978296 0.544121 -0.366926
O74   O     O_2   0.933917 0.913508 0.609368 -0.246128
O75   O     O_3   0.884202 0.950478 0.637068 -0.503117
H65   H     H_    0.875739 0.920958 0.627504 0.384798
S10   S     S_3+6 0.080665 0.956454 0.386566 0.014553
O76   O     O_2   0.101716 0.983642 0.455574 -0.333373
O77   O     O_2   0.065726 0.917850 0.403421 -0.257963
O78   O     O_3   0.114613 0.943874 0.364589 -0.510983
H66   H     H_    0.118279 0.913435 0.371192 0.381478
S11   S     S_3+6 0.421302 0.453124 0.617743 0.018287
O79   O     O_2   0.401818 0.476518 0.544893 -0.366136
O80   O     O_2   0.436700 0.412245 0.608963 -0.248844
O81   O     O_3   0.385828 0.445189 0.637927 -0.506497
H67   H     H_    0.379425 0.415160 0.630058 0.385043
S12   S     S_3+6 0.579632 0.454656 0.385012 0.016939
O82   O     O_2   0.601047 0.480937 0.455137 -0.333946
O83   O     O_2   0.563880 0.415996 0.399942 -0.254896
O84   O     O_3   0.613505 0.442052 0.362878 -0.510992
H68   H     H_    0.617304 0.411659 0.369795 0.382849
C185  C     C_R   0.928295 0.047563 0.721820 0.185275
C186  C     C_R   0.890818 0.048376 0.649934 -0.055725
C187  C     C_R   0.855210 0.066951 0.638406 -0.162735
C188  C     C_R   0.856541 0.085055 0.698867 -0.118975
C189  C     C_R   0.893964 0.086106 0.770160 -0.115542
C190  C     C_R   0.929917 0.068753 0.780910 -0.105296
H69   H     H_    0.888908 0.034866 0.602345 0.184078
H70   H     H_    0.826528 0.067119 0.582540 0.153859
H71   H     H_    0.828811 0.099012 0.689986 0.149150
H72   H     H_    0.895420 0.101310 0.816685 0.159131
H73   H     H_    0.959031 0.072565 0.835212 0.129140
C191  C     C_R   0.070887 0.047416 0.272686 0.176186
C192  C     C_R   0.112305 0.042385 0.334731 -0.047146
C193  C     C_R   0.145155 0.058631 0.333367 -0.166153
C194  C     C_R   0.137135 0.080870 0.270761 -0.142243
C195  C     C_R   0.096099 0.088242 0.210626 -0.110087
C196  C     C_R   0.063124 0.073037 0.212865 -0.071248
H74   H     H_    0.119844 0.025789 0.384238 0.218580
H75   H     H_    0.176936 0.053234 0.380314 0.146006
H76   H     H_    0.162718 0.092919 0.269549 0.141849
H77   H     H_    0.089843 0.106143 0.162582 0.151578
H78   H     H_    0.031554 0.079254 0.165632 0.133239
C197  C     C_R   0.427477 0.545271 0.723734 0.191953
C198  C     C_R   0.388333 0.543485 0.654559 -0.072022
C199  C     C_R   0.353621 0.562674 0.645721 -0.160795
C200  C     C_R   0.357355 0.583379 0.706500 -0.112451
C201  C     C_R   0.396160 0.586264 0.775270 -0.128408
C202  C     C_R   0.431276 0.568760 0.782872 -0.101208
H79   H     H_    0.384324 0.527841 0.606668 0.192646
H80   H     H_    0.323767 0.561288 0.591666 0.153965
H81   H     H_    0.330286 0.597733 0.699761 0.150591
H82   H     H_    0.399327 0.603126 0.822024 0.161201
H83   H     H_    0.461387 0.573781 0.835028 0.129704
C203  C     C_R   0.571813 0.546200 0.274017 0.178510
C204  C     C_R   0.613024 0.540639 0.336422 -0.045106
C205  C     C_R   0.646247 0.556861 0.336295 -0.164870
C206  C     C_R   0.638861 0.579680 0.274722 -0.141374
C207  C     C_R   0.598065 0.587333 0.214070 -0.113971
C208  C     C_R   0.564713 0.572070 0.214975 -0.076158
H84   H     H_    0.620086 0.523709 0.385298 0.217388
H85   H     H_    0.677859 0.551017 0.383423 0.146763
H86   H     H_    0.664734 0.591763 0.274527 0.144496
H87   H     H_    0.592276 0.605415 0.166566 0.156471
H88   H     H_    0.533331 0.578618 0.167409 0.132972
S13   S     S_3+6 0.008605 0.092703 0.713405 0.004320
O85   O     O_2   0.040113 0.094269 0.693965 -0.237378
O86   O     O_2   0.967997 0.110118 0.649215 -0.332503
O87   O     O_3   0.026729 0.120911 0.792089 -0.572341
H89   H     H_    0.028084 0.149690 0.777605 0.377764
S14   S     S_3+6 0.995447 0.092770 0.290571 0.015183
O88   O     O_2   0.961636 0.096366 0.304083 -0.241946
O89   O     O_2   0.036072 0.106918 0.359595 -0.312432
O90   O     O_3   0.983069 0.122572 0.216497 -0.568822
H90   H     H_    0.980170 0.150903 0.231073 0.373746
S15   S     S_3+6 0.503801 0.593072 0.710786 0.006416
O91   O     O_2   0.535923 0.597261 0.693167 -0.237981
O92   O     O_2   0.462543 0.608113 0.644855 -0.333193
O93   O     O_3   0.518731 0.621450 0.788011 -0.572027
H91   H     H_    0.520748 0.650230 0.774429 0.380360
S16   S     S_3+6 0.497195 0.592966 0.292402 0.015893
O94   O     O_2   0.464010 0.597159 0.307389 -0.239811
O95   O     O_2   0.538295 0.606655 0.360756 -0.313352
O96   O     O_3   0.484420 0.622813 0.218208 -0.569007
H92   H     H_    0.482685 0.651260 0.233773 0.375425
S17   S     S_3+6 0.075636 0.952387 0.777890 0.050216
O97   O     O_2   0.061337 0.913753 0.730298 -0.256678
O98   O     O_2   0.098547 0.979339 0.755767 -0.293727
O99   O     O_3   0.107690 0.939899 0.869629 -0.505879
H93   H     H_    0.099658 0.911421 0.873660 0.380358
S18   S     S_3+6 0.924829 0.952306 0.221592 0.060657
O100  O     O_2   0.938349 0.911672 0.262854 -0.211927
O101  O     O_2   0.903948 0.977885 0.249776 -0.298783
O102  O     O_3   0.890897 0.943503 0.128657 -0.499028
H94   H     H_    0.906776 0.948201 0.105946 0.360357
S19   S     S_3+6 0.576562 0.454523 0.778087 0.050411
O103  O     O_2   0.563169 0.415918 0.730490 -0.259136
O104  O     O_2   0.598936 0.482438 0.756136 -0.294218
O105  O     O_3   0.608784 0.442146 0.869856 -0.503060
H95   H     H_    0.602111 0.413017 0.873525 0.379906
S20   S     S_3+6 0.423754 0.454079 0.220524 0.061345
O106  O     O_2   0.436622 0.413648 0.262578 -0.213146
O107  O     O_2   0.402907 0.480633 0.247659 -0.299250
O108  O     O_3   0.390021 0.444872 0.127555 -0.490021
H96   H     H_    0.406087 0.451593 0.104689 0.354984
C209  C     C_R   0.795047 0.936535 0.218258 0.145813
C210  C     C_R   0.823838 0.909239 0.275081 -0.105889
C211  C     C_R   0.846366 0.881482 0.261111 -0.091486
C212  C     C_R   0.839800 0.880128 0.189994 -0.004380
C213  C     C_R   0.811147 0.906983 0.133020 -0.034039
C214  C     C_R   0.789314 0.935538 0.147325 -0.031943
H97   H     H_    0.829011 0.909649 0.330305 0.154405
H98   H     H_    0.868874 0.860955 0.305464 0.155290
H99   H     H_    0.857081 0.858395 0.179184 0.163748
H100  H     H_    0.805936 0.905758 0.077806 0.159894
H101  H     H_    0.767552 0.956440 0.102837 0.160239
C215  C     C_R   0.206823 0.938238 0.792289 0.143151
C216  C     C_R   0.174349 0.912959 0.736605 -0.105182
C217  C     C_R   0.153533 0.885828 0.755373 -0.049970
C218  C     C_R   0.166053 0.882204 0.830360 -0.031644
C219  C     C_R   0.198539 0.906688 0.886384 -0.062973
C220  C     C_R   0.218059 0.935381 0.867222 -0.021452
H102  H     H_    0.164981 0.914199 0.678522 0.152277
H103  H     H_    0.127843 0.867411 0.711658 0.157658
H104  H     H_    0.150510 0.860492 0.845040 0.143298
H105  H     H_    0.208654 0.903425 0.944725 0.147914
H106  H     H_    0.242685 0.954549 0.911307 0.161034
C221  C     C_R   0.294670 0.436328 0.216969 0.147477
C222  C     C_R   0.323743 0.409012 0.273355 -0.105023
C223  C     C_R   0.346080 0.381477 0.258563 -0.090341
C224  C     C_R   0.339057 0.380381 0.187075 -0.004596
C225  C     C_R   0.310130 0.407271 0.130541 -0.036407
C226  C     C_R   0.288462 0.435590 0.145643 -0.032184
H107  H     H_    0.329264 0.409214 0.328855 0.154132
H108  H     H_    0.368791 0.360920 0.302567 0.155306
H109  H     H_    0.356194 0.358817 0.175634 0.163262
H110  H     H_    0.304566 0.406247 0.075041 0.158760
H111  H     H_    0.266445 0.456497 0.101464 0.159012
C227  C     C_R   0.706923 0.438573 0.792542 0.142110
C228  C     C_R   0.674464 0.413161 0.737160 -0.104173
C229  C     C_R   0.653846 0.386023 0.756348 -0.047788
C230  C     C_R   0.666528 0.382544 0.831448 -0.037703
C231  C     C_R   0.698971 0.407191 0.887166 -0.063682
C232  C     C_R   0.718296 0.435880 0.867588 -0.019435
H112  H     H_    0.664988 0.414273 0.679007 0.152068
H113  H     H_    0.628193 0.367472 0.712875 0.157762
H114  H     H_    0.651149 0.360816 0.846452 0.142479
H115  H     H_    0.709219 0.404039 0.945600 0.147971
H116  H     H_    0.742914 0.455150 0.911457 0.161311
S21   S     S_3+6 0.698063 0.925292 0.122712 0.015648
O109  O     O_2   0.686046 0.940982 0.046945 -0.300679
O110  O     O_2   0.723042 0.886223 0.141005 -0.256316
O111  O     O_3   0.654533 0.913321 0.117651 -0.510586
H117  H     H_    0.637419 0.897333 0.070137 0.414929
S22   S     S_3+6 0.303981 0.925019 0.877590 0.008114
O112  O     O_2   0.320049 0.939444 0.956226 -0.291728
O113  O     O_2   0.278701 0.886264 0.860410 -0.268776
O114  O     O_3   0.344823 0.913101 0.873691 -0.530980
H118  H     H_    0.359620 0.890638 0.911054 0.404528
S23   S     S_3+6 0.197568 0.424839 0.122734 0.014128
O115  O     O_2   0.184430 0.440670 0.046409 -0.298739
O116  O     O_2   0.222766 0.386009 0.140071 -0.266660
O117  O     O_3   0.154714 0.412392 0.119771 -0.495151
H119  H     H_    0.139942 0.391529 0.078503 0.408982
S24   S     S_3+6 0.804017 0.425245 0.877526 0.010069
O118  O     O_2   0.820148 0.439901 0.956076 -0.299685
O119  O     O_2   0.778796 0.386498 0.860795 -0.259229
O120  O     O_3   0.844778 0.413203 0.873423 -0.530111
H120  H     H_    0.863134 0.395830 0.918465 0.403026

loop_
_geom_bond_atom_site_label_1
_geom_bond_atom_site_label_2
_ccdc_geom_bond_type
C99   C103  A    
C144  H26   S    
C215  C220  A    
C155  C160  A    
S17   O97   D    
C123  C197  S    
S3    O55   D    
C218  C219  A    
C229  C230  A    
Cu9   Cu10  S    
S3    O57   S    
C182  H58   S    
C175  C176  A    
C174  C175  A    
C79   C121  S    
C141  H24   S    
S16   O94   D    
C48   O24   A    
Cu12  O48   S    
C28   C40   S    
C75   H2    S    
Cu7   Cu8   S    
C96   C99   A    
C143  C144  A    
C216  C217  A    
C229  H113  S    
C9    C13   A    
C226  H111  S    
C179  C180  A    
C11   C15   A    
C12   C16   A    
O63   H61   S    
S23   O116  D    
C61   C115  S    
S6    O64   D    
Cu3   O17   S    
C67   C91   S    
C97   C105  S    
C232  H116  S    
C58   O40   A    
C144  C145  A    
C65   O11   A    
C53   O30   A    
C66   O12   A    
C171  H49   S    
C130  C134  S    
Cu5   O33   S    
C76   C83   A    
C82   C124  S    
S4    O58   D    
C63   O9    A    
S22   O113  D    
S1    O50   D    
C25   C29   A    
Cu4   O19   S    
C54   O32   A    
C27   C31   A    
Cu6   O37   S    
C28   C32   A    
C191  C196  A    
C1    O17   A    
Cu11  O12   S    
C26   C38   S    
C94   C97   A    
C183  C184  A    
C223  C224  A    
S12   O84   S    
C17   C21   A    
C4    O4    A    
C120  C124  S    
C205  H85   S    
C19   C23   A    
C13   C33   S    
C156  H36   S    
C10   C30   A    
C6    C80   S    
C214  H101  S    
Cu8   O36   S    
C16   C20   A    
S6    O66   S    
Cu6   O30   S    
C186  H69   S    
C111  C113  T    
C46   O22   A    
S8    O72   S    
Cu2   Cu4   S    
C206  H86   S    
C129  C133  S    
C59   O42   A    
C124  C203  S    
C87   C89   T    
C53   C89   S    
S4    O59   D    
S17   O99   S    
O69   H63   S    
C64   O10   A    
C201  C202  A    
C102  C173  S    
S24   O118  D    
S18   O101  D    
Cu1   O22   S    
C55   C117  S    
C165  H44   S    
C228  H112  S    
S16   O96   S    
C84   C88   S    
S8    O70   D    
C194  C195  A    
C60   O43   A    
C168  H46   S    
C119  C123  S    
C98   C106  S    
C212  C213  A    
C196  H78   S    
C110  S4    S    
C189  C190  A    
C45   O21   A    
C55   O33   A    
C68   C92   S    
C200  C201  A    
C61   O46   A    
Cu6   O42   S    
C209  C210  A    
C127  C131  S    
C203  C204  A    
Cu11  O15   S    
S5    O61   D    
O84   H68   S    
C62   O48   A    
C12   S24   S    
C190  H73   S    
S4    O60   S    
C93   S5    S    
C231  H115  S    
S19   O104  D    
C174  H51   S    
C140  H23   S    
C185  C190  A    
C122  C126  S    
O78   H66   S    
C72   H8    S    
C100  C161  S    
C109  C135  S    
C139  H22   S    
C110  C136  S    
Cu11  Cu12  S    
Cu3   O26   S    
C136  S20   S    
C112  C114  T    
S11   O81   S    
C3    O3    A    
C99   C167  S    
C191  C192  A    
C5    C133  S    
C184  H60   S    
C176  C177  A    
C158  H38   S    
C81   C123  S    
C175  H52   S    
C54   C90   S    
C224  H109  S    
C51   C65   S    
C186  C187  A    
C55   O37   A    
C127  S15   S    
C188  C189  A    
Cu10  O14   S    
Cu2   O4    S    
C151  C152  A    
C118  C122  S    
C172  H50   S    
C193  C194  A    
C164  H43   S    
C123  C127  S    
C8    C128  S    
S15   O91   D    
C215  C216  A    
C207  C208  A    
C96   C98   A    
C119  C131  S    
C216  H102  S    
S15   O92   D    
C5    C79   S    
C117  C129  S    
C173  C178  A    
C36   C52   T    
S24   O120  S    
C193  H75   S    
C166  H45   S    
C141  C142  A    
C57   O35   A    
C70   C77   A    
C82   S12   S    
C72   C75   A    
C58   O36   A    
C77   H4    S    
C78   H3    S    
C230  C231  A    
Cu9   O45   S    
C145  H27   S    
S9    O74   D    
C160  H40   S    
C21   C137  S    
C143  C148  A    
C164  C165  A    
C200  H81   S    
C10   C14   A    
S13   O87   S    
C104  C112  S    
C147  H29   S    
C19   H15   S    
C77   C84   A    
C94   S6    S    
C142  H25   S    
C4    O20   A    
C188  H71   S    
Cu2   O24   S    
C121  C125  S    
O54   H18   S    
C125  C129  S    
C204  H84   S    
C140  C141  A    
S10   O77   D    
C107  S1    S    
C132  C136  S    
S5    O63   S    
S12   O83   D    
C168  C169  A    
Cu5   O29   S    
O87   H89   S    
C131  H11   S    
S21   O110  D    
C73   C85   S    
S14   O88   D    
C17   H13   S    
C189  H72   S    
C7    C81   S    
C26   C30   A    
C162  H41   S    
C47   O23   A    
C93   C97   A    
O99   H93   S    
S10   O78   S    
C183  H59   S    
C21   C25   A    
C149  C154  A    
C122  C191  S    
C24   C155  S    
C18   C22   A    
C159  H39   S    
C105  C115  T    
C146  H28   S    
C24   C28   A    
C67   O14   A    
C14   C34   S    
C34   C50   T    
C156  C157  A    
S3    O56   D    
C177  H54   S    
Cu8   O32   S    
C217  C218  A    
C80   C108  S    
C68   O15   A    
C13   C17   A    
O105  H95   S    
S16   O95   D    
C152  C153  A    
C198  H79   S    
C16   C36   S    
C2    C42   S    
C121  C185  S    
C37   C41   T    
C227  C228  A    
S7    O69   S    
Cu5   O41   S    
C9    S21   S    
C40   C44   T    
C222  C223  A    
O81   H67   S    
C5    C125  S    
Cu4   O27   S    
C162  C163  A    
S6    O65   D    
C7    C127  S    
C150  H31   S    
C3    O19   A    
C149  C150  A    
C83   C87   S    
O90   H90   S    
C8    C136  S    
C53   O29   A    
C228  C229  A    
C161  C166  A    
C22   C143  S    
C139  C140  A    
S2    O52   D    
C80   C122  S    
S1    O49   D    
C15   C19   A    
Cu1   Cu3   S    
Cu4   O20   S    
C125  S13   S    
S2    O54   S    
C8    C82   S    
C126  S14   S    
C203  C208  A    
C71   C76   A    
C126  C130  S    
C33   C49   T    
C20   H16   S    
O111  H117  S    
C103  C111  S    
C169  C170  A    
C187  H70   S    
C211  H98   S    
Cu1   O2    S    
C145  C146  A    
C60   C114  S    
C209  C214  A    
Cu7   O43   S    
C101  C179  S    
S11   O79   D    
C32   C227  S    
C187  C188  A    
C69   C73   A    
C2    O2    A    
C56   O34   A    
C124  C128  S    
C108  S2    S    
C59   O41   A    
C221  C226  A    
C135  S19   S    
C148  H30   S    
Cu12  O16   S    
C120  C132  S    
C158  C159  A    
S17   O98   D    
C208  H88   S    
Cu11  O47   S    
S24   O119  D    
Cu1   O21   S    
C179  C184  A    
C80   S10   S    
C178  H55   S    
Cu9   O5    S    
C211  C212  A    
C31   C221  S    
C205  C206  A    
C6    C126  S    
C72   C74   A    
C153  H34   S    
C95   C100  A    
C60   O44   A    
C4    C44   S    
C202  H83   S    
C194  H76   S    
C5    C45   S    
C176  H53   S    
C100  C103  A    
C69   H5    S    
C151  H32   S    
C106  C116  T    
C7    C47   S    
C137  C142  A    
C8    C48   S    
C108  C134  S    
C118  C130  S    
Cu8   O39   S    
C11   S23   S    
O72   H64   S    
C223  H108  S    
S23   O117  S    
C71   H7    S    
C57   O39   A    
C70   C73   A    
C58   C120  S    
C79   C107  S    
C61   O45   A    
C167  C172  A    
S18   O102  S    
Cu3   O18   S    
S8    O71   D    
C88   C90   T    
C101  C104  A    
C217  H103  S    
C81   S11   S    
C138  C139  A    
Cu1   O1    S    
C128  S16   S    
C52   C66   S    
C147  C148  A    
C109  C119  S    
C199  C200  A    
S1    O51   S    
O117  H119  S    
C54   O31   A    
C195  H77   S    
C56   C118  S    
C207  H87   S    
Cu3   O25   S    
C93   C102  A    
C71   C74   A    
C204  C205  A    
S11   O80   D    
C10   S22   S    
C218  H104  S    
C230  H114  S    
S20   O108  S    
S2    O53   D    
C130  H10   S    
C170  H48   S    
C163  C164  A    
C107  C133  S    
S7    O67   D    
C225  H110  S    
C18   H14   S    
C75   C83   A    
C182  C183  A    
C227  C232  A    
C47   O27   A    
C48   O28   A    
C62   C116  S    
C219  C220  A    
C231  C232  A    
C22   C26   A    
Cu5   O38   S    
C159  C160  A    
C154  H35   S    
C206  C207  A    
C107  C117  S    
C213  H100  S    
C157  C158  A    
Cu8   O44   S    
C180  C181  A    
C210  C211  A    
C49   C63   S    
C76   H1    S    
C50   C64   S    
O66   H62   S    
C14   C18   A    
C152  H33   S    
C225  C226  A    
C198  C199  A    
C129  H9    S    
C85   C91   T    
C95   C98   A    
O120  H120  S    
S9    O73   D    
C181  C182  A    
S22   O114  S    
C3    C43   S    
C132  H12   S    
C65   O7    A    
C82   C110  S    
C66   O8    A    
C171  C172  A    
C38   C42   T    
C131  C135  S    
S13   O86   D    
C29   C209  S    
C63   O5    A    
C56   O38   A    
C222  H107  S    
S23   O115  D    
Cu10  O9    S    
C79   S9    S    
O114  H118  S    
C2    O18   A    
C117  C121  S    
S18   O100  D    
O75   H65   S    
C134  S18   S    
C25   C37   S    
C197  C202  A    
Cu5   Cu6   S    
C20   C24   A    
C94   C101  A    
C27   C39   S    
S5    O62   D    
C219  H105  S    
C62   O47   A    
C23   C27   A    
S21   O109  D    
S14   O89   D    
C59   C113  S    
C57   C119  S    
S19   O105  S    
C170  C171  A    
Cu7   O40   S    
Cu7   O31   S    
C177  C178  A    
C180  H56   S    
C12   C32   A    
C64   O6    A    
Cu6   O34   S    
C69   C78   A    
C46   O26   A    
C128  C132  S    
C15   C35   S    
Cu10  O46   S    
Cu11  O7    S    
C96   S8    S    
Cu12  O11   S    
C169  H47   S    
C108  C118  S    
O51   H17   S    
S14   O90   S    
C23   C149  S    
C201  H82   S    
C67   O13   A    
C110  C120  S    
O96   H92   S    
C173  C174  A    
C39   C43   T    
C165  C166  A    
C163  H42   S    
C95   S7    S    
C68   O16   A    
C199  H80   S    
Cu2   O3    S    
C157  H37   S    
C30   C215  S    
C192  H74   S    
C7    C135  S    
C221  C222  A    
C1    O1    A    
C150  C151  A    
S15   O93   S    
O57   H19   S    
C212  H99   S    
C74   C86   S    
C102  C104  A    
S7    O68   D    
C210  H97   S    
C45   O25   A    
C213  C214  A    
Cu10  O6    S    
Cu4   O28   S    
C153  C154  A    
C195  C196  A    
O93   H91   S    
C137  C138  A    
S9    O75   S    
C1    C41   S    
C133  S17   S    
S22   O112  D    
Cu9   O10   S    
C6    C46   S    
C70   H6    S    
C81   C109  S    
C109  S3    S    
C146  C147  A    
C9    C29   A    
Cu7   O35   S    
C185  C186  A    
C167  C168  A    
Cu2   O23   S    
O108  H96   S    
C6    C134  S    
C86   C92   T    
C192  C193  A    
C35   C51   T    
S10   O76   D    
C220  H106  S    
S12   O82   D    
Cu12  O8    S    
S20   O107  D    
S13   O85   D    
C138  H21   S    
S21   O111  S    
C224  C225  A    
C155  C156  A    
C11   C31   A    
S19   O103  D    
C78   C84   A    
O102  H94   S    
Cu9   O13   S    
O60   H20   S    
C181  H57   S    
S20   O106  D    
C161  C162  A    
C197  C198  A    
