data_mof_unit_9859.cif
_audit_creation_date              2012-12-10T20:49:43-0500
_audit_creation_method            fapswitch 2.2
_symmetry_space_group_name_H-M    P1
_symmetry_Int_Tables_number       1
_space_group_crystal_system       triclinic
_cell_length_a                    8.099556
_cell_length_b                    8.920557
_cell_length_c                    16.935308
_cell_angle_alpha                 89.982418
_cell_angle_beta                  85.433517
_cell_angle_gamma                 89.964762
_cell_volume                      1219.73470414

loop_
_atom_site_label
_atom_site_type_symbol
_atom_type_description
_atom_site_fract_x
_atom_site_fract_y
_atom_site_fract_z
_atom_type_partial_charge
C1    C     C_R   0.499972 0.782024 0.499984 0.940791
C2    C     C_R   0.500017 0.217978 0.500135 0.965425
C3    C     C_1   0.499957 0.934804 0.500044 -0.113342
C4    C     C_1   0.500046 0.065222 0.500105 -0.087345
C5    C     C_R   0.477528 0.491628 0.653067 0.991898
C6    C     C_R   0.521904 0.495124 0.347107 1.014350
C7    C     C_R   0.462079 0.443131 0.735506 -0.317546
C8    C     C_R   0.529582 0.467608 0.262749 -0.327190
C9    C     C_R   0.570742 0.331611 0.761025 0.290700
C10   C     C_R   0.429089 0.352872 0.235480 0.335423
C11   C     C_R   0.554245 0.282654 0.839715 0.149395
C12   C     C_R   0.398918 0.346665 0.155700 0.134128
C13   C     C_R   0.427629 0.342531 0.891481 -0.090279
C14   C     C_R   0.478964 0.450976 0.102690 -0.139570
C15   C     C_R   0.305826 0.436904 0.863429 0.324123
C16   C     C_R   0.590824 0.557186 0.129236 0.363732
C17   C     C_R   0.326675 0.492439 0.786393 0.293802
C18   C     C_R   0.615252 0.566352 0.209756 0.283575
C19   C     C_2   0.443732 0.329559 0.976293 -0.115741
C20   C     C_2   0.443804 0.454190 0.019710 -0.031203
H1    H     H_    0.429103 0.562963 0.992107 0.211833
H2    H     H_    0.481155 0.223736 0.000744 0.188090
N1    N     N_1   0.926360 0.500000 0.499990 0.020209
N2    N     N_1   0.073640 0.500000 0.500010 0.018778
O1    O     O_R   0.363150 0.714660 0.500000 -0.612615
O2    O     O_R   0.636850 0.285340 0.500000 -0.599301
O3    O     O_R   0.636850 0.714660 0.500000 -0.611061
O4    O     O_R   0.363150 0.285340 0.500000 -0.601249
O5    O     O_R   0.346950 0.500000 0.615800 -0.585850
O6    O     O_R   0.653050 0.500000 0.384200 -0.588085
O7    O     O_R   0.620700 0.500000 0.615800 -0.574105
O8    O     O_R   0.379300 0.500000 0.384200 -0.591166
Zn1   Zn    Zn3+2 0.317220 0.500000 0.500010 1.098029
Zn2   Zn    Zn3+2 0.682780 0.500000 0.499990 1.102776
Cl1   Cl    Cl    0.127687 0.487132 0.925377 -0.493738
Cl2   Cl    Cl    0.698299 0.681852 0.061883 -0.497811
N3    N     N_2   0.273047 0.248126 0.131738 -0.271690
H3    H     H_    0.198428 0.286834 0.089569 0.273291
C21   C     C_3   0.310686 0.089122 0.128060 -0.568762
H4    H     H_    0.302672 0.046909 0.066796 0.209411
H5    H     H_    0.218479 0.027575 0.167715 0.287440
H6    H     H_    0.436803 0.064783 0.146398 0.258138
N4    N     N_2   0.670060 0.179770 0.868711 -0.282367
H7    H     H_    0.790687 0.192848 0.845394 0.300064
C22   C     C_3   0.615939 0.025207 0.870083 -0.620811
H8    H     H_    0.707469 0.954775 0.898552 0.273712
H9    H     H_    0.605405 0.984054 0.808757 0.263686
H10   H     H_    0.494179 0.013681 0.904676 0.233710
Cl3   Cl    Cl    0.722191 0.244246 0.694867 -0.572317
Cl4   Cl    Cl    0.330713 0.221058 0.302207 -0.562431
Cl5   Cl    Cl    0.742846 0.708921 0.244508 -0.490323
Cl6   Cl    Cl    0.186646 0.629943 0.756300 -0.480611

loop_
_geom_bond_atom_site_label_1
_geom_bond_atom_site_label_2
_ccdc_geom_bond_type
O4    Zn1   S    
C6    O8    A    
N1    N2    T    
C11   N4    S    
N3    H3    S    
C14   C20   S    
C11   C13   A    
C2    C4    S    
C19   C20   D    
N4    H7    S    
N1    Zn2   S    
C1    O3    A    
O8    Zn1   S    
C22   H9    S    
O7    Zn2   S    
C2    O2    A    
C1    C3    S    
C22   H8    S    
C16   Cl2   S    
C1    O1    A    
N4    C22   S    
C9    C11   A    
C10   C12   A    
C17   Cl6   S    
C8    C10   A    
C6    O6    A    
C12   C14   A    
C18   Cl5   S    
C21   H6    S    
C7    C9    A    
C13   C15   A    
O3    Zn2   S    
N3    C21   S    
C14   C16   A    
C2    O4    A    
O6    Zn2   S    
C3    C4    T    
C10   Cl4   S    
C5    O5    A    
O5    Zn1   S    
C12   N3    S    
C19   H2    S    
C9    Cl3   S    
C20   H1    S    
C21   H5    S    
C16   C18   A    
C22   H10   S    
C15   Cl1   S    
C21   H4    S    
C5    C7    S    
C13   C19   S    
C6    C8    S    
C7    C17   A    
C15   C17   A    
O2    Zn2   S    
C8    C18   A    
N2    Zn1   S    
O1    Zn1   S    
C5    O7    A    
