data_mof_unit_8212.cif
_audit_creation_date              2012-12-10T20:36:35-0500
_audit_creation_method            fapswitch 2.2
_symmetry_space_group_name_H-M    P1
_symmetry_Int_Tables_number       1
_space_group_crystal_system       triclinic
_cell_length_a                    10.499671
_cell_length_b                    10.673402
_cell_length_c                    9.872758
_cell_angle_alpha                 89.968297
_cell_angle_beta                  89.415393
_cell_angle_gamma                 90.064597
_cell_volume                      1106.35396649

loop_
_atom_site_label
_atom_site_type_symbol
_atom_type_description
_atom_site_fract_x
_atom_site_fract_y
_atom_site_fract_z
_atom_type_partial_charge
C1    C     C_R   0.503850 0.259975 0.500035 0.873844
C2    C     C_3   0.961520 0.498483 0.370146 -0.141141
C3    C     C_3   0.043185 0.396222 0.437504 -0.185762
C4    C     C_3   0.122228 0.500151 0.501802 0.029188
C5    C     C_R   0.521410 0.063786 0.622957 0.138267
C6    C     C_R   0.524090 0.128590 0.500596 -0.105144
C7    C     C_R   0.551221 0.064913 0.379455 -0.233252
C8    C     C_R   0.551461 0.935324 0.379427 -0.233358
C9    C     C_R   0.524516 0.871386 0.500532 -0.103780
C10   C     C_R   0.521713 0.936007 0.622939 0.123854
C11   C     C_3   0.428501 0.928448 0.738183 -0.476873
C12   C     C_R   0.257288 0.500059 0.500669 0.864354
C13   C     C_3   0.427966 0.070456 0.738015 -0.494191
C14   C     C_R   0.439937 0.406646 0.071971 0.218741
C15   C     C_R   0.568731 0.585604 0.071143 -0.139534
C16   C     C_R   0.568707 0.585644 0.927202 -0.135210
C17   C     C_R   0.439795 0.406742 0.929470 0.218840
C18   C     C_3   0.301311 0.376073 0.925932 -0.523123
C19   C     C_3   0.301749 0.375205 0.079667 -0.512439
C20   C     C_R   0.504095 0.740001 0.499939 0.873772
C21   C     C_R   0.742697 0.499980 0.499260 0.855514
C22   C     C_3   0.038314 0.501626 0.629233 -0.138092
C23   C     C_3   0.956638 0.397658 0.564877 -0.175250
C24   C     C_3   0.877714 0.499930 0.497725 0.037415
C25   C     C_3   0.956743 0.603870 0.561857 -0.181784
C26   C     C_3   0.043301 0.602415 0.434521 -0.183747
H1    H     H_    0.916555 0.314362 0.617626 0.131531
H2    H     H_    0.471636 0.887621 0.830611 0.201062
H3    H     H_    0.335026 0.111228 0.707830 0.196370
H4    H     H_    0.622282 0.656218 0.124781 0.140600
H5    H     H_    0.622208 0.656308 0.872332 0.143995
H6    H     H_    0.243734 0.453528 0.883206 0.213232
H7    H     H_    0.282924 0.282368 0.881321 0.197158
H8    H     H_    0.243462 0.451493 0.125312 0.222724
H9    H     H_    0.284884 0.280715 0.123768 0.197138
H10   H     H_    0.072460 0.503415 0.735101 0.132244
H11   H     H_    0.916688 0.688311 0.612167 0.128229
H12   H     H_    0.083453 0.685685 0.381792 0.132034
H13   H     H_    0.926195 0.497193 0.264532 0.141305
H14   H     H_    0.083338 0.311871 0.387094 0.130217
H15   H     H_    0.563396 0.114076 0.284155 0.169988
H16   H     H_    0.563785 0.886321 0.284125 0.165801
H17   H     H_    0.335811 0.886627 0.708473 0.202237
N1    N     N_R   0.499140 0.499140 0.142800 -0.105755
N2    N     N_R   0.499140 0.499180 0.857150 -0.105206
O1    O     O_R   0.500020 0.316790 0.614690 -0.615265
O2    O     O_R   0.500000 0.316760 0.385350 -0.623596
O3    O     O_R   0.313960 0.499990 0.614650 -0.626330
O4    O     O_R   0.313940 0.499950 0.385310 -0.620203
O5    O     O_R   0.500000 0.683240 0.614650 -0.620330
O6    O     O_R   0.499980 0.683210 0.385310 -0.625248
O7    O     O_R   0.686060 0.500050 0.614690 -0.621926
O8    O     O_R   0.686040 0.500010 0.385350 -0.628381
Zn1   Zn    Zn3+2 0.500010 0.500020 0.653130 0.937255
Zn2   Zn    Zn3+2 0.499990 0.499980 0.346870 0.935257
H18   H     H_    0.470541 0.111780 0.830479 0.202754

loop_
_geom_bond_atom_site_label_1
_geom_bond_atom_site_label_2
_ccdc_geom_bond_type
C16   N2    A    
C15   N1    A    
C4    C26   S    
C23   C24   S    
C11   H17   S    
C6    C7    A    
C23   H1    S    
C2    C3    S    
C4    C12   S    
C4    C22   S    
C9    C10   A    
C2    H13   S    
C9    C20   S    
C3    C23   S    
C14   C17   A    
C12   O3    A    
C13   H18   S    
O1    Zn1   S    
C7    H15   S    
C12   O4    A    
O2    Zn2   S    
O7    Zn1   S    
C7    C8    A    
C2    C26   S    
C19   H9    S    
C16   H5    S    
O3    Zn1   S    
C11   C13   S    
N1    Zn2   S    
O5    Zn1   S    
C11   H2    S    
C21   O8    A    
C13   H3    S    
C8    H16   S    
N2    Zn1   S    
C17   C18   S    
C20   O6    A    
O6    Zn2   S    
O8    Zn2   S    
C2    C24   S    
C5    C6    A    
C18   H7    S    
C1    O1    A    
C18   H6    S    
C10   C11   S    
C15   C16   A    
C5    C10   A    
C22   H10   S    
C24   C25   S    
C15   H4    S    
C14   N1    A    
C18   C19   S    
C21   C24   S    
C22   C23   S    
C26   H12   S    
C20   O5    A    
C3    H14   S    
C25   H11   S    
C25   C26   S    
O4    Zn2   S    
C5    C13   S    
C14   C19   S    
C19   H8    S    
C21   O7    A    
C1    O2    A    
C3    C4    S    
C1    C6    S    
C17   N2    A    
C8    C9    A    
C22   C25   S    
