data_mof_unit_44108.cif
_audit_creation_date              2012-12-10T20:52:59-0500
_audit_creation_method            fapswitch 2.2
_symmetry_space_group_name_H-M    P1
_symmetry_Int_Tables_number       1
_space_group_crystal_system       triclinic
_cell_length_a                    18.44693
_cell_length_b                    18.41383
_cell_length_c                    18.431972
_cell_angle_alpha                 59.477476
_cell_angle_beta                  59.341432
_cell_angle_gamma                 59.255903
_cell_volume                      4362.4561359

loop_
_atom_site_label
_atom_site_type_symbol
_atom_type_description
_atom_site_fract_x
_atom_site_fract_y
_atom_site_fract_z
_atom_type_partial_charge
Br1   Br    Br    0.045709 0.724714 0.562564 -0.499392
Br2   Br    Br    0.954247 0.275096 0.438019 -0.499218
Br3   Br    Br    0.040522 0.525760 0.737003 -0.502689
Br4   Br    Br    0.959455 0.473794 0.263208 -0.502731
Br5   Br    Br    0.599445 0.040601 0.716360 -0.593437
Br6   Br    Br    0.400769 0.959373 0.283614 -0.593399
C1    C     C_R   0.390453 0.108580 0.111786 0.864046
C2    C     C_R   0.382218 0.807006 0.776018 -0.160698
C3    C     C_R   0.905680 0.538475 0.034892 0.045666
C4    C     C_R   0.476658 0.094469 0.962139 0.035711
C5    C     C_R   0.523289 0.905523 0.037868 0.035704
C6    C     C_R   0.948964 0.943237 0.549286 -0.140145
C7    C     C_R   0.051040 0.056757 0.450722 -0.140085
C8    C     C_R   0.949491 0.548974 0.942669 -0.134401
C9    C     C_R   0.050501 0.451022 0.057340 -0.134395
C10   C     C_R   0.551265 0.948236 0.943670 -0.132293
C11   C     C_R   0.448734 0.051758 0.056334 -0.132266
C12   C     C_1   0.231366 0.527326 0.344794 0.136818
C13   C     C_R   0.192128 0.224226 0.618443 -0.161279
C14   C     C_1   0.768599 0.472743 0.655191 0.136884
C15   C     C_1   0.524792 0.344473 0.232223 0.117717
C16   C     C_1   0.475229 0.655527 0.767766 0.117711
C17   C     C_1   0.343314 0.232334 0.526740 0.132203
C18   C     C_1   0.656670 0.767683 0.473241 0.132255
C19   C     C_R   0.807861 0.775778 0.381545 -0.161269
C20   C     C_R   0.181375 0.577251 0.284221 0.045091
C21   C     C_R   0.818589 0.422788 0.715767 0.045114
C22   C     C_R   0.576160 0.283801 0.181836 0.055761
C23   C     C_R   0.423852 0.716198 0.818155 0.055765
C24   C     C_R   0.283067 0.182022 0.576977 0.050944
C25   C     C_R   0.716925 0.817986 0.423013 0.050936
C26   C     C_R   0.091297 0.584448 0.314635 0.079149
C27   C     C_R   0.609547 0.891411 0.888222 0.864081
C28   C     C_R   0.908677 0.415557 0.685359 0.079171
C29   C     C_R   0.584507 0.314225 0.091395 0.092321
C30   C     C_R   0.415494 0.685773 0.908599 0.092332
C31   C     C_R   0.314038 0.091581 0.584406 0.090077
C32   C     C_R   0.685962 0.908423 0.415593 0.090095
C33   C     C_R   0.044959 0.633183 0.253655 -0.115291
C34   C     C_R   0.955018 0.366785 0.746340 -0.115217
C35   C     C_R   0.634413 0.253023 0.044816 -0.156456
C36   C     C_R   0.365575 0.746973 0.955181 -0.156465
C37   C     C_R   0.253280 0.045029 0.633310 -0.153425
C38   C     C_R   0.107345 0.112943 0.390752 0.874700
C39   C     C_R   0.746728 0.954966 0.366696 -0.153410
C40   C     C_R   0.087454 0.674353 0.163552 -0.113796
C41   C     C_R   0.912515 0.325615 0.836440 -0.113729
C42   C     C_R   0.675767 0.162764 0.087359 -0.114029
C43   C     C_R   0.324222 0.837232 0.912638 -0.114056
C44   C     C_R   0.162882 0.087644 0.674487 -0.112171
C45   C     C_R   0.837123 0.912347 0.325516 -0.112238
C46   C     C_R   0.176504 0.667167 0.133566 -0.141324
C47   C     C_R   0.823455 0.332836 0.866421 -0.141344
C48   C     C_R   0.667488 0.132807 0.176729 -0.132329
C49   C     C_R   0.892637 0.887075 0.609248 0.874885
C50   C     C_R   0.332513 0.867190 0.823264 -0.132345
C51   C     C_R   0.132364 0.177036 0.667071 -0.130155
C52   C     C_R   0.867632 0.822960 0.332924 -0.130202
C53   C     C_R   0.989878 0.590699 0.464940 -0.223761
C54   C     C_R   0.010111 0.409302 0.535058 -0.223667
C55   C     C_R   0.590797 0.464466 0.989649 -0.263798
C56   C     C_R   0.409203 0.535533 0.010349 -0.263790
C57   C     C_R   0.464448 0.989862 0.590724 -0.234779
C58   C     C_R   0.535554 0.010146 0.409274 -0.234722
C59   C     C_R   0.944808 0.552416 0.555158 -0.038537
C60   C     C_R   0.104950 0.390868 0.115459 0.861668
C61   C     C_R   0.055183 0.447585 0.444841 -0.038557
C62   C     C_R   0.552502 0.554975 0.944696 -0.037228
C63   C     C_R   0.447498 0.445025 0.055302 -0.037221
C64   C     C_R   0.555000 0.944713 0.552518 -0.048718
C65   C     C_R   0.445001 0.055294 0.447480 -0.048709
C66   C     C_R   0.955030 0.460522 0.590767 -0.005904
C67   C     C_R   0.044956 0.539481 0.409231 -0.005918
C68   C     C_R   0.460492 0.590977 0.955079 0.001765
C69   C     C_R   0.539509 0.409022 0.044917 0.001764
C70   C     C_R   0.591043 0.954923 0.460572 -0.007924
C71   C     C_R   0.895059 0.609131 0.884530 0.861655
C72   C     C_R   0.408959 0.045086 0.539427 -0.007904
C73   C     C_R   0.110812 0.390467 0.389734 0.871259
C74   C     C_R   0.889185 0.609533 0.610266 0.871213
C75   C     C_R   0.390459 0.389864 0.110713 0.782208
C76   C     C_R   0.609540 0.610136 0.889286 0.782192
C77   C     C_R   0.389846 0.110740 0.390420 0.831666
C78   C     C_R   0.610154 0.889261 0.609580 0.831629
C79   C     C_R   0.187921 0.925008 0.460156 -0.134372
C80   C     C_R   0.812107 0.075002 0.539715 -0.134360
C81   C     C_R   0.189285 0.428416 0.929239 -0.144622
C82   C     C_R   0.223474 0.618731 0.193569 -0.152319
C83   C     C_R   0.810710 0.571710 0.070736 -0.144568
C84   C     C_R   0.455179 0.188924 0.924763 -0.154534
C85   C     C_R   0.544654 0.811067 0.075252 -0.154601
C86   C     C_R   0.232049 0.833132 0.481827 -0.178786
C87   C     C_R   0.767985 0.166881 0.518062 -0.178721
C88   C     C_R   0.233496 0.435509 0.839868 -0.196200
C89   C     C_R   0.766492 0.564622 0.160106 -0.196190
C90   C     C_R   0.480871 0.232062 0.833027 -0.196213
C91   C     C_R   0.518903 0.767923 0.166995 -0.196257
C92   C     C_R   0.184947 0.776641 0.517770 -0.144138
C93   C     C_R   0.776482 0.381306 0.806416 -0.152291
C94   C     C_R   0.815071 0.223344 0.482277 -0.144130
C95   C     C_R   0.184851 0.471442 0.784934 -0.133404
C96   C     C_R   0.815129 0.528563 0.215081 -0.133439
C97   C     C_R   0.525954 0.183347 0.775887 -0.125965
C98   C     C_R   0.473912 0.816635 0.224129 -0.125946
C99   C     C_R   0.092459 0.810804 0.536130 0.246221
C100  C     C_R   0.907545 0.189155 0.464018 0.246365
C101  C     C_R   0.091260 0.504090 0.817524 0.255276
C102  C     C_R   0.908717 0.495817 0.182525 0.255030
C103  C     C_R   0.547893 0.090351 0.809226 0.239387
C104  C     C_R   0.617794 0.192992 0.223972 -0.160724
C105  C     C_R   0.452106 0.909634 0.190777 0.239339
C106  C     C_R   0.044026 0.904664 0.522296 0.009127
C107  C     C_R   0.955981 0.095317 0.477751 0.009084
C108  C     C_R   0.043750 0.505985 0.907480 -0.002552
C109  C     C_R   0.956235 0.493987 0.092542 -0.002515
C110  C     C_R   0.526362 0.043158 0.904173 0.018684
C111  C     C_R   0.473633 0.956833 0.095831 0.018676
C112  C     C_R   0.094233 0.962561 0.477547 0.030657
C113  C     C_R   0.905780 0.037433 0.522421 0.030602
C114  C     C_R   0.094312 0.461560 0.965110 0.045637
H1    H     H_    0.778669 0.294377 0.471024 0.174577
H2    H     H_    0.339140 0.563204 0.016851 0.171900
H3    H     H_    0.436751 0.983502 0.660738 0.179377
H4    H     H_    0.563250 0.016505 0.339261 0.179406
H5    H     H_    0.228106 0.966237 0.430617 0.170332
H6    H     H_    0.771934 0.033786 0.569160 0.170353
H7    H     H_    0.230929 0.397525 0.969520 0.118952
H8    H     H_    0.769069 0.602671 0.030437 0.118963
H9    H     H_    0.418689 0.231000 0.965871 0.116581
H10   H     H_    0.581080 0.768994 0.034146 0.116616
H11   H     H_    0.303752 0.805862 0.467780 0.173608
H12   H     H_    0.221346 0.705597 0.529090 0.174557
H13   H     H_    0.696292 0.194166 0.532034 0.173605
H14   H     H_    0.305967 0.410092 0.813800 0.148078
H15   H     H_    0.694021 0.590116 0.186151 0.148148
H16   H     H_    0.464385 0.304107 0.806030 0.144296
H17   H     H_    0.535283 0.695876 0.194000 0.144315
H18   H     H_    0.209078 0.699005 0.063642 0.136673
H19   H     H_    0.790875 0.300998 0.936342 0.136674
H20   H     H_    0.699424 0.062759 0.209355 0.137344
H21   H     H_    0.300578 0.937238 0.790637 0.137336
H22   H     H_    0.062209 0.209706 0.698853 0.135559
H23   H     H_    0.779375 0.528823 0.283306 0.175822
H24   H     H_    0.937786 0.790287 0.301140 0.135561
H25   H     H_    0.292712 0.613310 0.169287 0.134966
H26   H     H_    0.707237 0.386751 0.830695 0.134982
H27   H     H_    0.611511 0.168721 0.293459 0.135717
H28   H     H_    0.388510 0.831278 0.706528 0.135727
H29   H     H_    0.167441 0.293729 0.612826 0.141793
H30   H     H_    0.832542 0.706278 0.387155 0.141776
H31   H     H_    0.976129 0.638527 0.275869 0.153853
H32   H     H_    0.023858 0.361409 0.724130 0.153935
H33   H     H_    0.640526 0.275181 0.975754 0.128601
H34   H     H_    0.220601 0.471138 0.716725 0.175827
H35   H     H_    0.359453 0.724815 0.024246 0.128587
H36   H     H_    0.275892 0.975949 0.638746 0.130201
H37   H     H_    0.724121 0.024044 0.361265 0.130181
H38   H     H_    0.051391 0.711606 0.116862 0.141320
H39   H     H_    0.948580 0.288334 0.883131 0.141342
H40   H     H_    0.713987 0.115916 0.051090 0.138995
H41   H     H_    0.285993 0.884078 0.948908 0.138986
H42   H     H_    0.116362 0.051421 0.711893 0.138713
H43   H     H_    0.883648 0.948564 0.288114 0.138690
H44   H     H_    0.456941 0.781153 0.295570 0.163810
H45   H     H_    0.542900 0.218826 0.704450 0.163876
H46   H     H_    0.983514 0.660707 0.437659 0.182161
H47   H     H_    0.016475 0.339295 0.562339 0.182255
H48   H     H_    0.660859 0.436796 0.983149 0.171908
N1    N     N_1   0.271263 0.487268 0.393531 -0.162456
N2    N     N_1   0.728703 0.512824 0.606450 -0.162444
N3    N     N_1   0.483559 0.393262 0.272471 -0.181466
N4    N     N_1   0.516468 0.606738 0.727517 -0.181456
N5    N     N_1   0.391763 0.272522 0.486423 -0.170834
N6    N     N_1   0.608213 0.727504 0.513552 -0.170799
O1    O     O_3   0.250000 0.250000 0.250000 -0.493179
O2    O     O_R   0.865800 0.694910 0.573470 -0.627696
O3    O     O_R   0.305090 0.426530 0.134200 -0.648727
O4    O     O_R   0.694910 0.573470 0.865800 -0.648717
O5    O     O_R   0.426530 0.134200 0.305090 -0.623132
O6    O     O_R   0.573470 0.865800 0.694910 -0.623166
O7    O     O_R   0.134190 0.426530 0.134200 -0.609420
O8    O     O_R   0.865810 0.573470 0.865800 -0.609332
O9    O     O_R   0.426530 0.134200 0.134190 -0.617396
O10   O     O_R   0.573470 0.865800 0.865810 -0.617478
O11   O     O_R   0.134200 0.134190 0.426530 -0.610223
O12   O     O_3   0.750000 0.750000 0.750000 -0.493163
O13   O     O_R   0.865800 0.865810 0.573470 -0.610371
O14   O     O_R   0.426530 0.305080 0.134210 -0.642871
O15   O     O_R   0.573470 0.694920 0.865790 -0.642883
O16   O     O_R   0.305080 0.134210 0.426530 -0.639944
O17   O     O_R   0.694920 0.865790 0.573470 -0.639952
O18   O     O_R   0.134210 0.426530 0.305080 -0.608612
O19   O     O_R   0.865790 0.573470 0.694920 -0.608537
O20   O     O_R   0.305080 0.134200 0.134200 -0.626169
O21   O     O_R   0.694920 0.865800 0.865800 -0.626088
O22   O     O_R   0.134200 0.134200 0.305080 -0.614232
O23   O     O_R   0.865800 0.865800 0.694920 -0.614071
O24   O     O_R   0.134200 0.305080 0.134200 -0.634438
O25   O     O_R   0.865800 0.694920 0.865800 -0.634467
O26   O     O_R   0.134200 0.305090 0.426530 -0.627610
Zn1   Zn    Zn3+2 0.206620 0.206630 0.380140 1.037815
Zn2   Zn    Zn3+2 0.793380 0.793370 0.619860 1.037739
Zn3   Zn    Zn3+2 0.206630 0.380140 0.206620 1.017461
Zn4   Zn    Zn3+2 0.793370 0.619860 0.793380 1.017540
Zn5   Zn    Zn3+2 0.380140 0.206620 0.206630 1.001116
Zn6   Zn    Zn3+2 0.619860 0.793380 0.793370 1.001076
Zn7   Zn    Zn3+2 0.206620 0.206620 0.206620 1.029534
Zn8   Zn    Zn3+2 0.793380 0.793380 0.793380 1.029638

loop_
_geom_bond_atom_site_label_1
_geom_bond_atom_site_label_2
_ccdc_geom_bond_type
C95   C101  A    
C34   C41   A    
C14   N2    T    
O5    Zn5   S    
C20   C26   A    
C16   C23   S    
O4    Zn4   S    
C44   H42   S    
Br6   C105  S    
C77   O16   A    
C79   H5    S    
C12   C20   S    
O1    Zn7   S    
C18   N6    T    
C2    C50   A    
C81   H7    S    
C7    C112  A    
C86   C92   A    
C90   H16   S    
C85   H10   S    
C32   C70   S    
C13   C51   A    
C42   C48   A    
C74   O19   A    
Br4   C102  S    
C23   C30   A    
O12   Zn2   S    
O19   Zn4   S    
C51   H22   S    
C28   C34   A    
C2    C23   A    
C102  C109  A    
C87   H13   S    
C8    C71   S    
C80   H6    S    
C39   C45   A    
C4    C11   A    
C62   C68   A    
C40   H38   S    
C81   C88   A    
C40   C46   A    
O10   Zn6   S    
C9    C114  A    
C48   C104  A    
C78   O17   A    
C94   H1    S    
C58   C65   A    
O11   Zn1   S    
C78   O6    A    
C32   C39   A    
C103  C110  A    
C88   H14   S    
C7    C38   S    
C107  C113  A    
C84   H9    S    
C30   C36   A    
C35   C42   A    
C48   H20   S    
O21   Zn8   S    
C88   C95   A    
O26   Zn1   S    
C1    C11   S    
C46   H18   S    
C82   H25   S    
O3    Zn3   S    
C45   H43   S    
C80   C113  A    
C61   C67   A    
O17   Zn2   S    
C49   O13   A    
C64   C78   S    
C53   C67   A    
C75   O14   A    
C43   H41   S    
C89   C96   A    
C11   C111  A    
C38   O11   A    
C41   C47   A    
C97   C103  A    
C59   C74   S    
C2    H28   S    
C35   H33   S    
O6    Zn6   S    
C10   C110  A    
C91   H17   S    
C79   C86   A    
C53   C59   A    
C65   C77   S    
C21   C28   A    
O14   Zn5   S    
C38   O22   A    
C54   H47   S    
O12   Zn6   S    
C100  C107  A    
C3    C109  A    
C17   C24   S    
O2    Zn2   S    
C46   C82   A    
C86   H11   S    
C39   H37   S    
C54   C61   A    
C3    C83   A    
C26   C67   S    
C41   H39   S    
C22   C104  A    
C8    C108  A    
C9    C60   S    
Br2   C100  S    
C55   C69   A    
C24   C31   A    
C19   H30   S    
C83   C89   A    
C3    C8    A    
C101  C108  A    
O20   Zn7   S    
C80   C87   A    
C5    C85   A    
C10   C27   S    
C6    C113  A    
C42   H40   S    
C5    C10   A    
O13   Zn2   S    
C57   C64   A    
O15   Zn6   S    
C21   C93   A    
C76   O4    A    
C27   O10   A    
C89   H15   S    
C71   O8    A    
C58   C70   A    
C74   O2    A    
O12   Zn4   S    
O16   Zn1   S    
C45   C52   A    
C85   C91   A    
C1    O20   A    
C96   C102  A    
C92   C99   A    
C87   C94   A    
O1    Zn1   S    
C60   O24   A    
C53   H46   S    
C30   C68   S    
C33   C40   A    
C50   H21   S    
C56   C63   A    
C75   O3    A    
C60   O7    A    
C7    C107  A    
C97   H45   S    
C73   O18   A    
C76   O15   A    
C64   C70   A    
O9    Zn5   S    
C47   C93   A    
C9    C109  A    
C31   C37   A    
C96   H23   S    
O1    Zn5   S    
C99   C106  A    
C37   H36   S    
C5    C111  A    
C28   C66   S    
C56   H2    S    
C58   H4    S    
C4    C110  A    
C12   N1    T    
C22   C29   A    
C73   O26   A    
O24   Zn7   S    
C47   H19   S    
C44   C51   A    
C19   C25   A    
C93   H26   S    
C29   C69   S    
C98   H44   S    
C98   C105  A    
C57   H3    S    
O12   Zn8   S    
C37   C44   A    
C84   C90   A    
C17   N5    T    
C14   C21   S    
C77   O5    A    
C59   C66   A    
C31   C72   S    
C94   C100  A    
C25   C32   A    
C1    O9    A    
C91   C98   A    
C105  C111  A    
C55   H48   S    
C62   C76   S    
O22   Zn7   S    
C36   H35   S    
O7    Zn3   S    
C18   C25   S    
O1    Zn3   S    
C81   C114  A    
C43   C50   A    
C15   N3    T    
C6    C106  A    
C106  C112  A    
C55   C62   A    
C49   O23   A    
Br5   C103  S    
C95   H34   S    
O25   Zn8   S    
C13   H29   S    
O18   Zn3   S    
C71   O25   A    
C63   C69   A    
C65   C72   A    
C79   C112  A    
C29   C35   A    
C33   H31   S    
C16   N4    T    
C6    C49   S    
C63   C75   S    
C36   C43   A    
C15   C22   S    
O8    Zn4   S    
C52   H24   S    
C34   H32   S    
C4    C84   A    
C27   O21   A    
C20   C82   A    
C19   C52   A    
C90   C97   A    
C92   H12   S    
C26   C33   A    
C54   C66   A    
C56   C68   A    
O23   Zn8   S    
C13   C24   A    
C83   H8    S    
C61   C73   S    
C108  C114  A    
C104  H27   S    
Br1   C99   S    
C57   C72   A    
Br3   C101  S    
