data_mof_unit_6915.cif
_audit_creation_date              2012-12-10T17:27:50-0500
_audit_creation_method            fapswitch 2.2
_symmetry_space_group_name_H-M    P1
_symmetry_Int_Tables_number       1
_space_group_crystal_system       triclinic
_cell_length_a                    10.596371
_cell_length_b                    12.05602
_cell_length_c                    12.847571
_cell_angle_alpha                 93.583045
_cell_angle_beta                  90.216512
_cell_angle_gamma                 87.140349
_cell_volume                      1636.02952759

loop_
_atom_site_label
_atom_site_type_symbol
_atom_type_description
_atom_site_fract_x
_atom_site_fract_y
_atom_site_fract_z
_atom_type_partial_charge
C1    C     C_R   0.499144 0.522156 0.700276 0.848643
C2    C     C_R   0.446868 0.634074 0.862427 -0.205652
C3    C     C_R   0.538289 0.445044 0.867591 -0.295240
C4    C     C_R   0.739178 0.501362 0.503753 0.871677
C5    C     C_R   0.525308 0.450412 0.974202 0.189947
C6    C     C_R   0.472593 0.548850 0.025643 0.188899
C7    C     C_R   0.459978 0.554341 0.132306 -0.284414
C8    C     C_R   0.552002 0.365543 0.137481 -0.223762
C9    C     C_R   0.563519 0.358661 0.030004 -0.229645
C10   C     C_R   0.356659 0.952969 0.431598 -0.332468
C11   C     C_R   0.373549 0.837958 0.434264 0.023298
C12   C     C_R   0.936437 0.460661 0.597512 0.086967
C13   C     C_R   0.567492 0.857079 0.524461 -0.047932
C14   C     C_R   0.554930 0.974951 0.524814 0.025915
C15   C     C_R   0.446794 0.023411 0.477767 0.042453
C16   C     C_R   0.500605 0.477790 0.299714 0.885027
C17   C     C_R   0.432382 0.141028 0.476270 0.050695
C18   C     C_R   0.628093 0.161875 0.564376 -0.066661
C19   C     C_R   0.646964 0.045666 0.568628 -0.103981
C20   C     C_R   0.260739 0.499703 0.503189 0.876959
C21   C     C_R   0.873500 0.421301 0.683863 -0.199718
C22   C     C_R   0.941905 0.379447 0.766934 -0.136923
C23   C     C_R   0.871291 0.504291 0.511977 -0.099446
C24   C     C_R   0.073308 0.377739 0.766306 -0.137868
C25   C     C_R   0.136714 0.417799 0.682575 -0.192456
C26   C     C_R   0.068721 0.458803 0.596841 0.089603
C27   C     C_R   0.318900 0.190601 0.426775 0.169779
C28   C     C_R   0.322576 0.218311 0.322448 -0.103679
C29   C     C_R   0.212672 0.257795 0.273454 -0.173797
C30   C     C_R   0.097766 0.266087 0.327198 -0.117579
C31   C     C_R   0.092563 0.234716 0.429933 -0.136504
C32   C     C_R   0.202690 0.197216 0.479831 -0.158564
C33   C     C_R   0.765351 0.001621 0.615787 0.109404
C34   C     C_R   0.932603 0.548976 0.430141 -0.219077
C35   C     C_R   0.882279 0.018789 0.569770 -0.151519
C36   C     C_R   0.994406 0.976755 0.613560 -0.133177
C37   C     C_R   0.990573 0.918104 0.703869 -0.100325
C38   C     C_R   0.874645 0.901741 0.750727 -0.131888
C39   C     C_R   0.762287 0.943669 0.707179 -0.171349
C40   C     C_R   0.061405 0.546781 0.429286 -0.209011
C41   C     C_R   0.128408 0.500176 0.510407 -0.075692
C42   C     C_R   0.502106 0.464087 0.188202 -0.051731
C43   C     C_R   0.496837 0.535563 0.811746 -0.044265
C44   C     C_R   0.434635 0.640694 0.969852 -0.228882
H1    H     H_    0.880541 0.582615 0.365406 0.153616
H2    H     H_    0.892729 0.349395 0.832476 0.134549
H3    H     H_    0.126280 0.346303 0.831351 0.137408
H4    H     H_    0.238631 0.417208 0.686434 0.153544
H5    H     H_    0.109322 0.579373 0.364128 0.144293
H6    H     H_    0.419532 0.629941 0.171921 0.155505
H7    H     H_    0.585342 0.295636 0.180854 0.154664
H8    H     H_    0.394632 0.716573 0.009014 0.137632
H9    H     H_    0.409994 0.207946 0.278843 0.125616
H10   H     H_    0.216312 0.280570 0.193396 0.135427
H11   H     H_    0.012634 0.296194 0.289090 0.133445
H12   H     H_    0.603640 0.282824 0.990842 0.137702
H13   H     H_    0.003398 0.240373 0.471191 0.141195
H14   H     H_    0.197653 0.173064 0.559444 0.127146
H15   H     H_    0.886327 0.063548 0.499450 0.123510
H16   H     H_    0.084202 0.989249 0.577300 0.129432
H17   H     H_    0.077412 0.885409 0.737565 0.124088
H18   H     H_    0.871838 0.856510 0.820783 0.131438
H19   H     H_    0.673025 0.930638 0.744214 0.127830
H20   H     H_    0.414382 0.704263 0.819042 0.159709
H21   H     H_    0.578935 0.369490 0.828011 0.154857
H22   H     H_    0.698548 0.216124 0.596874 0.149715
H23   H     H_    0.272828 0.985371 0.393306 0.155164
H24   H     H_    0.303228 0.784881 0.399850 0.132047
H25   H     H_    0.648539 0.816099 0.559484 0.146808
H26   H     H_    0.771605 0.423841 0.688866 0.143312
N1    N     N_R   0.523130 0.207800 0.519340 -0.121486
N2    N     N_R   0.476870 0.792180 0.480660 -0.102057
O1    O     O_R   0.506170 0.421690 0.658830 -0.635661
O2    O     O_R   0.491330 0.609320 0.646410 -0.620985
O3    O     O_R   0.690660 0.406170 0.506210 -0.634555
O4    O     O_R   0.675810 0.593790 0.493790 -0.615585
O5    O     O_R   0.508670 0.390680 0.353590 -0.624947
O6    O     O_R   0.493830 0.578310 0.341170 -0.621817
O7    O     O_R   0.324190 0.406210 0.506210 -0.607576
O8    O     O_R   0.309340 0.593830 0.493790 -0.630297
Zn1   Zn    Zn3+2 0.509910 0.374720 0.508290 0.931368
Zn2   Zn    Zn3+2 0.490090 0.625280 0.491710 0.937883

loop_
_geom_bond_atom_site_label_1
_geom_bond_atom_site_label_2
_ccdc_geom_bond_type
C35   C36   A    
C32   H14   S    
C20   C41   S    
C10   H23   S    
C12   C23   A    
C3    C43   A    
C29   C30   A    
C34   C40   A    
C1    O2    A    
C36   C37   A    
C8    C42   A    
C18   C19   A    
C10   C15   A    
C5    C6    A    
C29   H10   S    
C40   H5    S    
C35   H15   S    
C16   O5    A    
C7    C42   A    
C4    O3    A    
C1    C43   S    
C2    C44   A    
C8    C9    A    
C44   H8    S    
C6    C44   A    
C13   C14   A    
C3    H21   S    
O2    Zn2   S    
O1    Zn1   S    
C2    H20   S    
C20   O8    A    
C17   C27   S    
C24   C25   A    
O8    Zn2   S    
C19   C33   S    
O4    Zn2   S    
O7    Zn1   S    
C4    C23   S    
C11   N2    A    
O3    Zn1   S    
C3    C5    A    
C25   C26   A    
C12   C21   A    
C12   C26   A    
C5    C9    A    
C37   C38   A    
O6    Zn2   S    
C31   C32   A    
C25   H4    S    
O5    Zn1   S    
C2    C43   A    
C23   C34   A    
C9    H12   S    
C33   C39   A    
C8    H7    S    
C34   H1    S    
C40   C41   A    
C22   H2    S    
C17   N1    A    
C22   C24   A    
C16   C42   S    
C11   H24   S    
C18   N1    A    
C15   C17   A    
C28   C29   A    
C20   O7    A    
C27   C32   A    
C24   H3    S    
C14   C19   A    
C7    H6    S    
C36   H16   S    
C37   H17   S    
C28   H9    S    
C6    C7    A    
C13   N2    A    
C18   H22   S    
C39   H19   S    
C30   H11   S    
C21   H26   S    
C1    O1    A    
C31   H13   S    
C30   C31   A    
C38   C39   A    
C13   H25   S    
C33   C35   A    
C16   O6    A    
C4    O4    A    
C10   C11   A    
C27   C28   A    
C14   C15   A    
C38   H18   S    
C21   C22   A    
N2    Zn2   S    
C26   C41   A    
N1    Zn1   S    
