data_mof_unit_68094.cif
_audit_creation_date              2013-03-05T15:56:12-0500
_audit_creation_method            fapswitch 2.2
_symmetry_space_group_name_H-M    P1
_symmetry_Int_Tables_number       1
_space_group_crystal_system       triclinic
_cell_length_a                    7.131826
_cell_length_b                    15.0462
_cell_length_c                    16.110654
_cell_angle_alpha                 89.999549
_cell_angle_beta                  89.998909
_cell_angle_gamma                 90.000156
_cell_volume                      1728.78402095

loop_
_atom_site_label
_atom_site_type_symbol
_atom_site_description
_atom_site_fract_x
_atom_site_fract_y
_atom_site_fract_z
_atom_type_partial_charge
O1    O     O_R   0.638140 0.833910 0.163320 -0.604308
O2    O     O_R   0.361860 0.166090 0.836680 -0.609504
O3    O     O_R   0.361860 0.166090 0.663320 -0.604300
O4    O     O_R   0.638140 0.833910 0.336680 -0.609559
O5    O     O_R   0.138140 0.666090 0.336680 -0.604300
O6    O     O_R   0.861860 0.333910 0.663320 -0.609561
O7    O     O_R   0.861860 0.333910 0.836680 -0.604304
O8    O     O_R   0.138140 0.666090 0.163320 -0.609558
O9    O     O_R   0.308390 0.844930 0.336080 -0.586102
O10   O     O_R   0.691610 0.155070 0.663920 -0.587164
O11   O     O_R   0.691610 0.155070 0.836080 -0.586086
O12   O     O_R   0.308390 0.844930 0.163920 -0.587175
O13   O     O_R   0.808390 0.655070 0.163920 -0.586083
O14   O     O_R   0.191610 0.344930 0.836080 -0.587177
O15   O     O_R   0.191610 0.344930 0.663920 -0.586087
O16   O     O_R   0.808390 0.655070 0.336080 -0.587171
C1    C     C_R   0.480320 0.870774 0.360616 0.971167
C2    C     C_R   0.522333 0.134520 0.633582 0.928593
C3    C     C_R   0.519680 0.129232 0.860620 0.971211
C4    C     C_R   0.477670 0.865483 0.133584 0.928605
C5    C     C_R   0.980321 0.629229 0.139382 0.971181
C6    C     C_R   0.022332 0.365482 0.866417 0.928576
C7    C     C_R   0.019680 0.370773 0.639384 0.971169
C8    C     C_R   0.977666 0.634520 0.366418 0.928608
O17   O     O_3   0.471620 0.691320 0.250000 -0.299159
O18   O     O_3   0.528380 0.308680 0.750000 -0.299171
O19   O     O_3   0.971620 0.808680 0.250000 -0.299173
O20   O     O_3   0.028380 0.191320 0.750000 -0.299131
V1    V     V_3+5 0.196770 0.760880 0.250000 1.113344
V2    V     V_3+5 0.803230 0.239120 0.750000 1.113368
V3    V     V_3+5 0.696770 0.739120 0.250000 1.113355
V4    V     V_3+5 0.303230 0.260880 0.750000 1.113370
C9    C     C_R   0.825225 0.547849 0.485871 0.551126
C10   C     C_R   0.157805 0.497003 0.554985 0.535760
C11   C     C_R   0.174776 0.452159 0.985864 0.551130
C12   C     C_R   0.842194 0.503005 0.054981 0.535766
C13   C     C_R   0.325237 0.952168 0.014143 0.551041
C14   C     C_R   0.657817 0.003012 0.945022 0.535750
C15   C     C_R   0.674775 0.047849 0.514129 0.551137
C16   C     C_R   0.342194 0.997006 0.445013 0.535769
C17   C     C_R   0.826669 0.477849 0.544897 0.017837
C18   C     C_R   0.158362 0.540871 0.476734 0.023325
C19   C     C_R   0.173331 0.522158 0.044890 0.017831
C20   C     C_R   0.841639 0.459138 0.976730 0.023313
C21   C     C_R   0.326684 0.022177 0.955126 0.017878
C22   C     C_R   0.658374 0.959139 0.023271 0.023345
C23   C     C_R   0.673329 0.977850 0.455102 0.017832
C24   C     C_R   0.341638 0.040872 0.523265 0.023320
C25   C     C_R   0.000076 0.446618 0.577421 -0.505475
C26   C     C_R   0.987925 0.571355 0.441352 -0.469139
C27   C     C_R   0.999925 0.553387 0.077416 -0.505482
C28   C     C_R   0.012075 0.428651 0.941348 -0.469108
C29   C     C_R   0.500085 0.053396 0.922590 -0.505438
C30   C     C_R   0.487936 0.928654 0.058655 -0.469118
C31   C     C_R   0.499922 0.946620 0.422579 -0.505469
C32   C     C_R   0.512074 0.071355 0.558647 -0.469136
O21   O     O_3   0.663992 0.595863 0.475945 -0.642556
C33   C     C_3   0.685038 0.683078 0.508062 0.195245
H1    H     H_    0.671513 0.730028 0.455905 0.179230
H2    H     H_    0.823077 0.696130 0.538636 0.026204
C34   C     C_3   0.529762 0.701308 0.570523 -0.342314
H3    H     H_    0.430517 0.646059 0.569057 0.280926
H4    H     H_    0.591405 0.704961 0.633449 0.187077
C35   C     C_3   0.415790 0.784536 0.552245 -1.083036
H5    H     H_    0.508499 0.843161 0.550912 0.295774
H6    H     H_    0.309401 0.794932 0.601434 0.265107
H7    H     H_    0.341116 0.777018 0.492329 0.275402
O22   O     O_3   0.300544 0.513383 0.611965 -0.659967
C36   C     C_3   0.226238 0.536572 0.691605 0.187604
H8    H     H_    0.247875 0.480401 0.734812 0.159937
H9    H     H_    0.073831 0.553763 0.691198 0.064333
C37   C     C_3   0.326431 0.616220 0.728598 -0.362697
H10   H     H_    0.480000 0.604312 0.730055 0.212419
H11   H     H_    0.292354 0.675834 0.691613 0.220326
C38   C     C_3   0.255324 0.634744 0.815420 -1.076919
H12   H     H_    0.270351 0.575708 0.855906 0.287327
H13   H     H_    0.104625 0.652180 0.811532 0.291811
H14   H     H_    0.335718 0.691002 0.842120 0.276468
O23   O     O_3   0.336012 0.404148 0.975934 -0.642560
C39   C     C_3   0.314975 0.316935 0.008056 0.195227
H15   H     H_    0.328513 0.269984 0.955901 0.179236
H16   H     H_    0.176936 0.303881 0.038632 0.026212
C40   C     C_3   0.470248 0.298709 0.070517 -0.342322
H17   H     H_    0.569485 0.353961 0.069050 0.280936
H18   H     H_    0.408602 0.295055 0.133444 0.187081
C41   C     C_3   0.584232 0.215486 0.052239 -1.083052
H19   H     H_    0.491531 0.156858 0.050915 0.295782
H20   H     H_    0.690631 0.205096 0.101423 0.265109
H21   H     H_    0.658892 0.223004 0.992318 0.275398
O24   O     O_3   0.699452 0.486627 0.111963 -0.659973
C42   C     C_3   0.773750 0.463435 0.191603 0.187596
H22   H     H_    0.752107 0.519604 0.234810 0.159947
H23   H     H_    0.926154 0.446247 0.191196 0.064341
C43   C     C_3   0.673559 0.383787 0.228596 -0.362722
H24   H     H_    0.519992 0.395695 0.230059 0.212422
H25   H     H_    0.707633 0.324175 0.191609 0.220338
C44   C     C_3   0.744674 0.365259 0.315415 -1.076930
H26   H     H_    0.729669 0.424295 0.355902 0.287316
H27   H     H_    0.895368 0.347815 0.311519 0.291817
H28   H     H_    0.664273 0.309004 0.342119 0.276475
O25   O     O_3   0.164005 0.904150 0.024064 -0.642561
C45   C     C_3   0.185060 0.816939 0.991939 0.195254
H29   H     H_    0.171544 0.769983 0.044093 0.179232
H30   H     H_    0.323099 0.803894 0.961360 0.026201
C46   C     C_3   0.029784 0.798710 0.929481 -0.342383
H31   H     H_    0.930556 0.853966 0.930941 0.280940
H32   H     H_    0.091427 0.795047 0.866553 0.187072
C47   C     C_3   0.915787 0.715492 0.947769 -1.082976
H33   H     H_    0.008479 0.656861 0.949099 0.295764
H34   H     H_    0.809384 0.705100 0.898587 0.265094
H35   H     H_    0.841128 0.723017 0.007689 0.275402
O26   O     O_3   0.800544 0.986629 0.888035 -0.660018
C48   C     C_3   0.726208 0.963415 0.808408 0.187509
H36   H     H_    0.747749 0.019586 0.765194 0.159928
H37   H     H_    0.573822 0.946188 0.808843 0.064357
C49   C     C_3   0.826454 0.883788 0.771404 -0.362683
H38   H     H_    0.980014 0.895718 0.769941 0.212407
H39   H     H_    0.792423 0.824165 0.808385 0.220329
C50   C     C_3   0.755340 0.865259 0.684585 -1.076925
H40   H     H_    0.604647 0.847812 0.688480 0.291810
H41   H     H_    0.835744 0.809006 0.657881 0.276471
H42   H     H_    0.770340 0.924296 0.644098 0.287322
O27   O     O_3   0.836007 0.095863 0.524055 -0.642554
C51   C     C_3   0.814964 0.183078 0.491937 0.195245
H43   H     H_    0.828485 0.230028 0.544094 0.179226
H44   H     H_    0.676927 0.196130 0.461361 0.026204
C52   C     C_3   0.970244 0.201309 0.429478 -0.342308
H45   H     H_    0.069486 0.146059 0.430945 0.280920
H46   H     H_    0.908607 0.204964 0.366551 0.187083
C53   C     C_3   0.084218 0.284535 0.447757 -1.083047
H47   H     H_    0.991511 0.343161 0.449089 0.295777
H48   H     H_    0.190610 0.294931 0.398570 0.265110
H49   H     H_    0.158887 0.277017 0.507675 0.275401
O28   O     O_3   0.199441 0.013378 0.388038 -0.659977
C54   C     C_3   0.273713 0.036547 0.308386 0.187635
H50   H     H_    0.251962 0.980382 0.265183 0.159960
H51   H     H_    0.426142 0.053693 0.308765 0.064333
C55   C     C_3   0.173586 0.116223 0.271409 -0.362752
H52   H     H_    0.020009 0.104340 0.269946 0.212412
H53   H     H_    0.207708 0.175822 0.308409 0.220344
C56   C     C_3   0.244710 0.134758 0.184592 -1.076882
H54   H     H_    0.395411 0.152193 0.188488 0.291812
H55   H     H_    0.164325 0.191022 0.157896 0.276466
H56   H     H_    0.229685 0.075729 0.144098 0.287306
N1    N     N_2   0.652181 0.448988 0.577506 -0.043980
H57   H     H_    0.638408 0.451783 0.641156 0.215368
C57   C     C_3   0.569057 0.372241 0.537665 -0.689417
H58   H     H_    0.426434 0.388032 0.516340 0.245330
H59   H     H_    0.557809 0.316332 0.582024 0.225239
H60   H     H_    0.650770 0.350991 0.482973 0.193196
N2    N     N_2   0.330035 0.554213 0.435486 -0.048512
H61   H     H_    0.360551 0.620167 0.426131 0.249075
C58   C     C_3   0.357178 0.499763 0.362378 -0.751645
H62   H     H_    0.485213 0.522120 0.329614 0.255360
H63   H     H_    0.237577 0.505319 0.318580 0.206051
H64   H     H_    0.373453 0.429129 0.380147 0.225966
N3    N     N_2   0.347819 0.551016 0.077497 -0.043981
H65   H     H_    0.361589 0.548217 0.141147 0.215370
C59   C     C_3   0.430945 0.627766 0.037659 -0.689414
H66   H     H_    0.573565 0.611975 0.016327 0.245333
H67   H     H_    0.442204 0.683671 0.082023 0.225243
H68   H     H_    0.349227 0.649024 0.982973 0.193195
N4    N     N_2   0.669971 0.445805 0.935478 -0.048514
H69   H     H_    0.639448 0.379852 0.926123 0.249087
C60   C     C_3   0.642854 0.500254 0.862368 -0.751704
H70   H     H_    0.514826 0.477899 0.829599 0.255360
H71   H     H_    0.762466 0.494692 0.818574 0.206051
H72   H     H_    0.626584 0.570889 0.880134 0.225971
N5    N     N_2   0.152197 0.051044 0.922530 -0.043980
H73   H     H_    0.138231 0.048113 0.858873 0.215354
C61   C     C_3   0.069068 0.127809 0.962334 -0.689447
H74   H     H_    0.926411 0.112036 0.983633 0.245294
H75   H     H_    0.057897 0.183704 0.917958 0.225296
H76   H     H_    0.150731 0.149055 0.017041 0.193203
N6    N     N_2   0.830045 0.945799 0.064517 -0.048509
H77   H     H_    0.860560 0.879845 0.073876 0.249082
C62   C     C_3   0.857188 0.000255 0.137619 -0.751646
H78   H     H_    0.985223 0.977901 0.170383 0.255332
H79   H     H_    0.737587 0.994699 0.181420 0.206045
H80   H     H_    0.873463 0.070887 0.119843 0.225983
N7    N     N_2   0.847815 0.948990 0.422494 -0.043983
H81   H     H_    0.861583 0.951782 0.358847 0.215369
C63   C     C_3   0.930940 0.872244 0.462337 -0.689416
H82   H     H_    0.073559 0.888037 0.483667 0.245338
H83   H     H_    0.942199 0.816335 0.417978 0.225237
H84   H     H_    0.849220 0.850990 0.517027 0.193196
N8    N     N_2   0.169965 0.054214 0.564513 -0.048511
H85   H     H_    0.139451 0.120169 0.573867 0.249073
C64   C     C_3   0.142820 0.999766 0.637623 -0.751639
H86   H     H_    0.014784 0.022124 0.670386 0.255377
H87   H     H_    0.262420 0.005323 0.681422 0.206050
H88   H     H_    0.126548 0.929131 0.619856 0.225963

loop_
_geom_bond_atom_site_label_1
_geom_bond_atom_site_label_2
_geom_bond_distance
_ccdc_geom_bond_type
O17   V3    1.759440 S    
C54   C55   1.517222 S    
C61   H74   1.099613 S    
C38   H12   1.107215 S    
O18   V4    1.759440 S    
O25   C45   1.418547 S    
O12   V1    2.038664 S    
O19   V1    1.759443 S    
N5    H73   1.031320 S    
C57   H58   1.099601 S    
C10   C18   1.423015 A    
C23   N7    1.418833 S    
C19   C27   1.422955 A    
C44   H28   1.109184 S    
N1    H57   1.030995 S    
O24   C42   1.431356 S    
C54   H50   1.105747 S    
N6    C62   1.447717 S    
N7    H81   1.030935 S    
C49   H38   1.110025 S    
O16   V3    2.038686 S    
C46   H32   1.106379 S    
O11   C3    1.345707 A    
C14   C22   1.423015 A    
C60   H70   1.107055 S    
O3    C2    1.328521 A    
O8    V1    2.039400 S    
C51   H44   1.118212 S    
N4    C60   1.447726 S    
C39   C40   1.521228 S    
C59   H66   1.099603 S    
C45   H30   1.118215 S    
C41   H20   1.108217 S    
C7    C25   1.522618 S    
C33   H2    1.118212 S    
O1    V3    2.039387 S    
C15   O27   1.367378 S    
C47   H33   1.102583 S    
C45   C46   1.521232 S    
O2    V4    2.039386 S    
C11   O23   1.367375 S    
C34   H4    1.106377 S    
C16   C24   1.423024 A    
N1    C57   1.448070 S    
N4    H69   1.027065 S    
N3    H65   1.030996 S    
C40   H17   1.092051 S    
C64   H88   1.106756 S    
C49   H39   1.103918 S    
O22   C36   1.431358 S    
C62   H79   1.110174 S    
N2    H61   1.027068 S    
C59   H67   1.106722 S    
C20   N4    1.407441 S    
C58   H63   1.110170 S    
C11   C19   1.419042 A    
C1    C31   1.522634 S    
C34   H3    1.092061 S    
C2    C32   1.538194 S    
C48   C49   1.517214 S    
C3    C29   1.522578 S    
C33   C34   1.521233 S    
O15   C7    1.345728 A    
C23   C31   1.422962 A    
C21   C29   1.422925 A    
O16   C8    1.338646 A    
O7    V2    2.039399 S    
C54   H51   1.117309 S    
C8    C26   1.538182 S    
N5    C61   1.448028 S    
O12   C4    1.338648 A    
C12   O24   1.392758 S    
C43   H24   1.110019 S    
C37   C38   1.513728 S    
C17   C25   1.422962 A    
O26   C48   1.431356 S    
C44   H27   1.108089 S    
C44   H26   1.107214 S    
O5    V1    2.039373 S    
C50   H41   1.109183 S    
O17   V1    2.222100 S    
C61   H76   1.103720 S    
C57   H59   1.106721 S    
C36   H9    1.117309 S    
O19   V3    2.222094 S    
C45   H29   1.102008 S    
C35   H7    1.108253 S    
O27   C51   1.418543 S    
C57   H60   1.103729 S    
O11   V2    2.038663 S    
C24   N8    1.407442 S    
C4    C30   1.538180 S    
N7    C63   1.448069 S    
C10   O22   1.392757 S    
C42   H22   1.105717 S    
C41   H19   1.102582 S    
C39   H15   1.101999 S    
C60   H71   1.110170 S    
C43   C44   1.513726 S    
C9    C26   1.409215 A    
C15   C23   1.419050 A    
C16   O28   1.392758 S    
C55   C56   1.513723 S    
C21   N5    1.418808 S    
C56   H55   1.109190 S    
C35   H6    1.108218 S    
C34   C35   1.521696 S    
C53   H48   1.108216 S    
C63   H82   1.099602 S    
C52   H46   1.106373 S    
C42   H23   1.117283 S    
C61   H75   1.106695 S    
O10   V2    2.038698 S    
N6    H77   1.027067 S    
O20   V4    2.222094 S    
C62   H80   1.106761 S    
C22   C30   1.418741 A    
O8    C5    1.312700 A    
C59   H68   1.103728 S    
O13   C5    1.345723 A    
O3    V4    2.039391 S    
C15   C32   1.409216 A    
C46   C47   1.521699 S    
C58   H64   1.106756 S    
C43   H25   1.103919 S    
C18   N2    1.407440 S    
C38   H13   1.108093 S    
C14   C29   1.403836 A    
C12   C27   1.403824 A    
C55   H53   1.103940 S    
C18   C26   1.418742 A    
C51   C52   1.521232 S    
O4    C1    1.312706 A    
C37   H11   1.103933 S    
C40   H18   1.106372 S    
O18   V2    2.222100 S    
C60   H72   1.106758 S    
C63   H84   1.103729 S    
C53   H49   1.108251 S    
C13   C30   1.409204 A    
C14   O26   1.392758 S    
C52   H45   1.092061 S    
C5    C27   1.522615 S    
C36   C37   1.517220 S    
C16   C31   1.403832 A    
C6    C28   1.538194 S    
C48   H36   1.105723 S    
C50   H42   1.107212 S    
O9    C1    1.345728 A    
C64   H86   1.107061 S    
C24   C32   1.418742 A    
O1    C4    1.328514 A    
C9    O21   1.367381 S    
O6    V2    2.039374 S    
O2    C3    1.312702 A    
O13   V3    2.038680 S    
O14   V4    2.038679 S    
C37   H10   1.110028 S    
C19   N3    1.418837 S    
C41   H21   1.108250 S    
O15   V4    2.038687 S    
C50   H40   1.108090 S    
C49   C50   1.513725 S    
O28   C54   1.431357 S    
C56   H56   1.107224 S    
O9    V1    2.038697 S    
O7    C6    1.328530 A    
C46   H31   1.092056 S    
C47   H35   1.108252 S    
C9    C17   1.419043 A    
C35   H5    1.102585 S    
O14   C6    1.338638 A    
C63   H83   1.106725 S    
C53   H47   1.102584 S    
C33   H1    1.102001 S    
C52   C53   1.521692 S    
N8    H85   1.027069 S    
C56   H54   1.108100 S    
C42   C43   1.517204 S    
C13   O25   1.367381 S    
C20   C28   1.418736 A    
O21   C33   1.418542 S    
O5    C8    1.328517 A    
O10   C2    1.338647 A    
O6    C7    1.312697 A    
O20   V2    1.759443 S    
C39   H16   1.118210 S    
C47   H34   1.108218 S    
N2    C58   1.447724 S    
C36   H8    1.105743 S    
C38   H14   1.109186 S    
N8    C64   1.447724 S    
O4    V3    2.039390 S    
C12   C20   1.423022 A    
C55   H52   1.110033 S    
O23   C39   1.418536 S    
C40   C41   1.521690 S    
C17   N1    1.418837 S    
C10   C25   1.403825 A    
N3    C59   1.448070 S    
C62   H78   1.107049 S    
C11   C28   1.409224 A    
C22   N6    1.407433 S    
C64   H87   1.110171 S    
C58   H62   1.107051 S    
C13   C21   1.419040 A    
C51   H43   1.102002 S    
C48   H37   1.117295 S    
