data_mof_unit_8480.cif
_audit_creation_date              2012-12-11T15:20:02-0500
_audit_creation_method            fapswitch 2.2
_symmetry_space_group_name_H-M    P1
_symmetry_Int_Tables_number       1
_space_group_crystal_system       triclinic
_cell_length_a                    16.67551
_cell_length_b                    16.669164
_cell_length_c                    42.960836
_cell_angle_alpha                 89.996098
_cell_angle_beta                  90.018387
_cell_angle_gamma                 120.084836
_cell_volume                      10332.9511835

loop_
_atom_site_label
_atom_site_type_symbol
_atom_type_description
_atom_site_fract_x
_atom_site_fract_y
_atom_site_fract_z
_atom_type_partial_charge
C1    C     C_R   0.583619 0.426248 0.794347 0.542763
C2    C     C_R   0.841220 0.415748 0.705061 0.548335
C3    C     C_R   0.573898 0.157529 0.794622 0.542164
C4    C     C_R   0.583798 0.426023 0.705560 0.541678
C5    C     C_R   0.841473 0.415849 0.794879 0.548775
C6    C     C_R   0.573862 0.157550 0.705386 0.541155
C7    C     C_R   0.426046 0.583769 0.294439 0.543120
C8    C     C_R   0.415653 0.841114 0.205035 0.548169
C9    C     C_R   0.157538 0.573863 0.294613 0.542138
C10   C     C_R   0.425724 0.584115 0.205386 0.542172
C11   C     C_R   0.415797 0.841313 0.294917 0.548686
C12   C     C_R   0.157567 0.573883 0.205378 0.540606
C13   C     C_R   0.054955 0.479857 0.126108 -0.052780
C14   C     C_R   0.413817 0.930246 0.375773 -0.040241
C15   C     C_R   0.529506 0.550379 0.131917 -0.049397
C16   C     C_R   0.054353 0.479617 0.373800 -0.053130
C17   C     C_R   0.410485 0.922716 0.123280 -0.041924
C18   C     C_R   0.537911 0.544597 0.364630 -0.048306
C19   C     C_R   0.480154 0.055281 0.626061 -0.052933
C20   C     C_R   0.926894 0.411755 0.876043 -0.039723
C21   C     C_R   0.541271 0.534860 0.635190 -0.048296
C22   C     C_R   0.479859 0.053193 0.873773 -0.052621
C23   C     C_R   0.929801 0.413336 0.624178 -0.040608
C24   C     C_R   0.536894 0.542200 0.861639 -0.047469
C25   C     C_R   0.090031 0.485215 0.156056 -0.143536
C26   C     C_R   0.393265 0.908572 0.344241 -0.129330
C27   C     C_R   0.520255 0.567956 0.163176 -0.141611
C28   C     C_R   0.090203 0.485358 0.343963 -0.141513
C29   C     C_R   0.389974 0.902392 0.154880 -0.130453
C30   C     C_R   0.525456 0.565898 0.334181 -0.140752
C31   C     C_R   0.485717 0.090837 0.655939 -0.142219
C32   C     C_R   0.905115 0.390929 0.844552 -0.129007
C33   C     C_R   0.562440 0.523127 0.665751 -0.141618
C34   C     C_R   0.485426 0.089351 0.843971 -0.140807
C35   C     C_R   0.908589 0.393216 0.655755 -0.129680
C36   C     C_R   0.560946 0.527484 0.831891 -0.139817
C37   C     C_R   0.081248 0.623796 0.165850 -0.135773
C38   C     C_R   0.526628 0.887976 0.339461 -0.135301
C39   C     C_R   0.360329 0.524938 0.153560 -0.133067
C40   C     C_R   0.079616 0.622791 0.333858 -0.135181
C41   C     C_R   0.528066 0.890409 0.160877 -0.135081
C42   C     C_R   0.364552 0.514720 0.345793 -0.134417
C43   C     C_R   0.622687 0.079570 0.666129 -0.135125
C44   C     C_R   0.893145 0.529191 0.838846 -0.135328
C45   C     C_R   0.520792 0.364773 0.653658 -0.133507
C46   C     C_R   0.623329 0.079795 0.833797 -0.135655
C47   C     C_R   0.886228 0.525597 0.660296 -0.135348
C48   C     C_R   0.513034 0.368756 0.845885 -0.134059
C49   C     C_R   0.045415 0.617834 0.136022 -0.053054
C50   C     C_R   0.546628 0.909030 0.370934 -0.052790
C51   C     C_R   0.370543 0.510863 0.122334 -0.055084
C52   C     C_R   0.042974 0.616423 0.363576 -0.051812
C53   C     C_R   0.548081 0.910146 0.129330 -0.051262
C54   C     C_R   0.377800 0.496629 0.376318 -0.057290
C55   C     C_R   0.616476 0.043191 0.636370 -0.051922
C56   C     C_R   0.914390 0.549561 0.870309 -0.053247
C57   C     C_R   0.503114 0.377529 0.623042 -0.057369
C58   C     C_R   0.617225 0.043009 0.863480 -0.052407
C59   C     C_R   0.906899 0.545200 0.628794 -0.053430
C60   C     C_R   0.492131 0.384348 0.875782 -0.057188
C61   C     C_R   0.034347 0.547283 0.115651 0.228907
C62   C     C_R   0.489029 0.927842 0.389515 0.225541
C63   C     C_R   0.455159 0.523802 0.111094 0.226897
C64   C     C_R   0.032379 0.546258 0.384060 0.228645
C65   C     C_R   0.488245 0.924041 0.110111 0.224952
C66   C     C_R   0.464678 0.512199 0.386168 0.226820
C67   C     C_R   0.546636 0.033089 0.615830 0.228485
C68   C     C_R   0.928770 0.489651 0.889341 0.224731
C69   C     C_R   0.513684 0.462713 0.613387 0.225882
C70   C     C_R   0.546904 0.031721 0.883981 0.229138
C71   C     C_R   0.926457 0.487922 0.610325 0.225910
C72   C     C_R   0.504658 0.471351 0.884091 0.226522
C73   C     C_R   0.885058 0.447906 0.825841 0.005280
C74   C     C_R   0.558578 0.105736 0.675976 0.007578
C75   C     C_R   0.549643 0.440771 0.823998 0.014680
C76   C     C_R   0.883818 0.447584 0.673948 0.005073
C77   C     C_R   0.558716 0.105362 0.823976 0.007994
C78   C     C_R   0.552497 0.437972 0.675023 0.015298
C79   C     C_R   0.447904 0.884395 0.325960 0.005064
C80   C     C_R   0.105980 0.558777 0.175927 0.007189
C81   C     C_R   0.438745 0.551589 0.324736 0.014248
C82   C     C_R   0.447156 0.883268 0.173836 0.005123
C83   C     C_R   0.105582 0.558528 0.323990 0.008086
C84   C     C_R   0.435485 0.555406 0.174077 0.015382
C85   C     C_R   0.047528 0.621968 0.032504 0.006314
C86   C     C_R   0.603080 0.017461 0.467178 0.005797
C87   C     C_R   0.395416 0.431914 0.029889 -0.000908
C88   C     C_R   0.043156 0.620802 0.467130 0.005354
C89   C     C_R   0.602958 0.015699 0.032648 0.005889
C90   C     C_R   0.413953 0.412943 0.466449 -0.002077
C91   C     C_R   0.621524 0.043953 0.532812 0.005507
C92   C     C_R   0.020546 0.603583 0.966897 0.006326
C93   C     C_R   0.417585 0.408049 0.532728 -0.001897
C94   C     C_R   0.621682 0.043223 0.967066 0.005148
C95   C     C_R   0.016613 0.602008 0.532748 0.005549
C96   C     C_R   0.400547 0.426546 0.963639 -0.002404
C97   C     C_R   0.066886 0.622231 0.064687 0.450383
C98   C     C_R   0.586029 0.008646 0.434586 0.452353
C99   C     C_R   0.399073 0.435581 0.062858 0.444362
C100  C     C_R   0.062820 0.621516 0.434958 0.449797
C101  C     C_R   0.585292 0.006368 0.065199 0.452346
C102  C     C_R   0.416339 0.419007 0.433496 0.444059
C103  C     C_R   0.622118 0.063573 0.564987 0.450139
C104  C     C_R   0.011291 0.586218 0.934328 0.452804
C105  C     C_R   0.422429 0.410204 0.565695 0.443885
C106  C     C_R   0.621988 0.063062 0.934919 0.449855
C107  C     C_R   0.007709 0.584776 0.565323 0.451915
C108  C     C_R   0.408490 0.426153 0.930750 0.444457
C109  C     C_R   0.931058 0.472647 0.071517 0.437373
C110  C     C_R   0.435561 0.874795 0.442359 0.445432
C111  C     C_R   0.536357 0.585663 0.061820 0.430641
C112  C     C_R   0.929202 0.470351 0.428126 0.436325
C113  C     C_R   0.437514 0.869160 0.057149 0.447435
C114  C     C_R   0.547788 0.573078 0.435137 0.430046
C115  C     C_R   0.470773 0.930185 0.571694 0.436636
C116  C     C_R   0.874354 0.438114 0.942236 0.445431
C117  C     C_R   0.571401 0.548887 0.564731 0.430032
C118  C     C_R   0.472461 0.927314 0.927916 0.437087
C119  C     C_R   0.873549 0.434541 0.557453 0.445150
C120  C     C_R   0.561138 0.559812 0.932341 0.430368
C121  C     C_R   0.912594 0.467068 0.039466 0.047948
C122  C     C_R   0.447091 0.884443 0.474745 0.052558
C123  C     C_R   0.542027 0.579644 0.029446 0.046653
C124  C     C_R   0.910715 0.464362 0.460186 0.046919
C125  C     C_R   0.449345 0.879377 0.024772 0.053629
C126  C     C_R   0.554480 0.566184 0.467406 0.046929
C127  C     C_R   0.464914 0.911777 0.539633 0.047049
C128  C     C_R   0.884532 0.449614 0.974609 0.053695
C129  C     C_R   0.564525 0.555648 0.532458 0.046907
C130  C     C_R   0.467011 0.908170 0.959930 0.047380
C131  C     C_R   0.883264 0.446218 0.525070 0.052464
C132  C     C_R   0.552872 0.568318 0.964439 0.046989
C133  C     C_R   0.973176 0.540542 0.019692 -0.069241
C134  C     C_R   0.530110 0.957644 0.487239 -0.069758
C135  C     C_R   0.470188 0.503491 0.013265 -0.071152
C136  C     C_R   0.970165 0.538455 0.479957 -0.069706
C137  C     C_R   0.531227 0.954498 0.012442 -0.069949
C138  C     C_R   0.485579 0.487216 0.483321 -0.071322
C139  C     C_R   0.539175 0.971125 0.519921 -0.069723
C140  C     C_R   0.959388 0.531583 0.987025 -0.069150
C141  C     C_R   0.488964 0.483390 0.516193 -0.071223
C142  C     C_R   0.540319 0.968612 0.979784 -0.070160
C143  C     C_R   0.956639 0.529222 0.512634 -0.069739
C144  C     C_R   0.474145 0.499336 0.980410 -0.071727
C145  C     C_R   0.099842 0.699378 0.012694 0.176861
C146  C     C_R   0.690072 0.082537 0.480453 0.175484
C147  C     C_R   0.320139 0.359914 0.013103 0.188527
C148  C     C_R   0.093987 0.698627 0.486924 0.175181
C149  C     C_R   0.689331 0.082838 0.019550 0.176528
C150  C     C_R   0.342821 0.336212 0.483013 0.188404
C151  C     C_R   0.699477 0.094635 0.513079 0.175313
C152  C     C_R   0.087469 0.689949 0.980079 0.176769
C153  C     C_R   0.344871 0.333589 0.515840 0.188309
C154  C     C_R   0.698959 0.095397 0.986945 0.175974
C155  C     C_R   0.081897 0.689032 0.519543 0.175491
C156  C     C_R   0.322767 0.356961 0.980288 0.188574
C157  C     C_R   0.835394 0.388951 0.026763 -0.080984
C158  C     C_R   0.377115 0.822217 0.494878 -0.079492
C159  C     C_R   0.617449 0.649294 0.012952 -0.111703
C160  C     C_R   0.834694 0.385211 0.472906 -0.082178
C161  C     C_R   0.380653 0.816048 0.004486 -0.080006
C162  C     C_R   0.627492 0.638065 0.484097 -0.110675
C163  C     C_R   0.385744 0.835897 0.526856 -0.082096
C164  C     C_R   0.821311 0.380557 0.994802 -0.078553
C165  C     C_R   0.633242 0.632179 0.516105 -0.110654
C166  C     C_R   0.389151 0.830498 0.972533 -0.081973
C167  C     C_R   0.820957 0.376425 0.504882 -0.079757
C168  C     C_R   0.623506 0.642960 0.980971 -0.110736
Cr1   Cr    Cr6+3 0.530290 0.262330 0.750000 1.042917
Cr2   Cr    Cr6+3 0.732040 0.469710 0.750000 1.032020
Cr3   Cr    Cr6+3 0.737670 0.267960 0.750000 1.029644
Cr4   Cr    Cr6+3 0.262330 0.530290 0.250000 1.042165
Cr5   Cr    Cr6+3 0.469710 0.732040 0.250000 1.031936
Cr6   Cr    Cr6+3 0.267960 0.737670 0.250000 1.029277
H1    H     H_    0.761603 0.318549 0.985910 0.188826
H2    H     H_    0.329264 0.787608 0.541536 0.198570
H3    H     H_    0.683957 0.697034 0.969192 0.178805
H4    H     H_    0.762206 0.313651 0.513784 0.188447
H5    H     H_    0.333507 0.781388 0.957741 0.197944
H6    H     H_    0.691462 0.688485 0.528077 0.179297
H7    H     H_    0.314341 0.763556 0.485929 0.189015
H8    H     H_    0.786308 0.333081 0.041486 0.197908
H9    H     H_    0.681174 0.698983 0.472394 0.179269
H10   H     H_    0.318752 0.756090 0.013304 0.187364
H11   H     H_    0.786345 0.328842 0.458182 0.198512
H12   H     H_    0.673156 0.708301 0.024821 0.178570
H13   H     H_    0.878174 0.574657 0.825143 0.145387
H14   H     H_    0.679451 0.089944 0.681059 0.134360
H15   H     H_    0.505270 0.301768 0.840386 0.131278
H16   H     H_    0.867153 0.568847 0.673502 0.147295
H17   H     H_    0.680446 0.091003 0.818914 0.134250
H18   H     H_    0.514498 0.299072 0.660204 0.131254
H19   H     H_    0.570157 0.869495 0.326169 0.146762
H20   H     H_    0.092440 0.681124 0.180642 0.134098
H21   H     H_    0.297484 0.504804 0.339144 0.132388
H22   H     H_    0.573600 0.875880 0.174713 0.145540
H23   H     H_    0.090338 0.679786 0.318976 0.134321
H24   H     H_    0.294895 0.516976 0.161303 0.132618
H25   H     H_    0.915493 0.609845 0.880211 0.159370
H26   H     H_    0.667954 0.025881 0.628870 0.150483
H27   H     H_    0.468820 0.329308 0.892848 0.152433
H28   H     H_    0.903669 0.602714 0.618417 0.158754
H29   H     H_    0.669174 0.026333 0.870969 0.149836
H30   H     H_    0.483599 0.321615 0.606539 0.153248
H31   H     H_    0.604673 0.906584 0.381213 0.159740
H32   H     H_    0.029334 0.670045 0.128332 0.149100
H33   H     H_    0.320920 0.473187 0.392641 0.152531
H34   H     H_    0.608190 0.910702 0.119540 0.161424
H35   H     H_    0.025858 0.668041 0.371095 0.150526
H36   H     H_    0.312971 0.492186 0.106646 0.154610
H37   H     H_    0.108894 0.434428 0.163039 0.143309
H38   H     H_    0.332070 0.906195 0.334633 0.147513
H39   H     H_    0.579113 0.592170 0.178687 0.131421
H40   H     H_    0.110055 0.435181 0.337144 0.141750
H41   H     H_    0.326912 0.896926 0.164023 0.146862
H42   H     H_    0.583465 0.594591 0.318189 0.132590
H43   H     H_    0.435689 0.110880 0.662741 0.143097
H44   H     H_    0.899131 0.327685 0.835343 0.148033
H45   H     H_    0.587292 0.580377 0.682000 0.131033
H46   H     H_    0.435015 0.108924 0.837197 0.142232
H47   H     H_    0.907143 0.332577 0.665474 0.147237
H48   H     H_    0.589222 0.583771 0.815203 0.131912
H49   H     H_    0.047363 0.425342 0.110559 0.163441
H50   H     H_    0.369127 0.945377 0.389828 0.170137
H51   H     H_    0.595079 0.559728 0.123765 0.157802
H52   H     H_    0.047204 0.425428 0.389425 0.160747
H53   H     H_    0.363974 0.934022 0.108757 0.171386
H54   H     H_    0.605145 0.555956 0.371696 0.157949
H55   H     H_    0.426229 0.048518 0.610391 0.162098
H56   H     H_    0.938587 0.365229 0.890426 0.173074
H57   H     H_    0.548743 0.600739 0.628299 0.159043
H58   H     H_    0.425527 0.045469 0.889419 0.160141
H59   H     H_    0.945487 0.368887 0.610193 0.168983
H60   H     H_    0.545937 0.609429 0.867478 0.158409
N1    N     N_R   0.009199 0.548041 0.083511 -0.397040
N2    N     N_R   0.503424 0.938094 0.422788 -0.395976
N3    N     N_R   0.465481 0.513920 0.078148 -0.389059
N4    N     N_R   0.006452 0.546714 0.416134 -0.396988
N5    N     N_R   0.503659 0.933960 0.076858 -0.395133
N6    N     N_R   0.478633 0.500265 0.418638 -0.389505
N7    N     N_R   0.547180 0.007280 0.583748 -0.397002
N8    N     N_R   0.938962 0.504647 0.922596 -0.395648
N9    N     N_R   0.501150 0.476141 0.580909 -0.389236
N10   N     N_R   0.547747 0.005779 0.916036 -0.397062
N11   N     N_R   0.936917 0.502248 0.577062 -0.396354
N12   N     N_R   0.490106 0.488171 0.916022 -0.389428
O1    O     O_R   0.509640 0.171340 0.784000 -0.506054
O2    O     O_R   0.661700 0.490360 0.716000 -0.507953
O3    O     O_R   0.828660 0.338300 0.784000 -0.506717
O4    O     O_R   0.509640 0.171340 0.716000 -0.506617
O5    O     O_R   0.661700 0.490360 0.784000 -0.507328
O6    O     O_R   0.828660 0.338300 0.716000 -0.506140
O7    O     O_R   0.171340 0.509640 0.284000 -0.506872
O8    O     O_R   0.490360 0.661700 0.216000 -0.506728
O9    O     O_R   0.338300 0.828660 0.284000 -0.506093
O10   O     O_R   0.171340 0.509640 0.216000 -0.507329
O11   O     O_R   0.490360 0.661700 0.284000 -0.507878
O12   O     O_R   0.338300 0.828660 0.216000 -0.506673
O13   O     O_R   0.539230 0.345420 0.781810 -0.494164
O14   O     O_R   0.806190 0.460770 0.718190 -0.497437
O15   O     O_R   0.654580 0.193810 0.781810 -0.498139
O16   O     O_R   0.539230 0.345420 0.718190 -0.494425
O17   O     O_R   0.806190 0.460770 0.781810 -0.496312
O18   O     O_R   0.654580 0.193810 0.718190 -0.497831
O19   O     O_R   0.345420 0.539230 0.281810 -0.494572
O20   O     O_R   0.460770 0.806190 0.218190 -0.496993
O21   O     O_R   0.193810 0.654580 0.281810 -0.497569
O22   O     O_R   0.345420 0.539230 0.218190 -0.494851
O23   O     O_R   0.460770 0.806190 0.281810 -0.497108
O24   O     O_R   0.193810 0.654580 0.218190 -0.498250
O25   O     O_3   0.666667 0.333333 0.750000 -0.241772
O26   O     O_3   0.333333 0.666667 0.250000 -0.241937
O27   O     O_2   0.137158 0.686330 0.075848 -0.433710
O28   O     O_2   0.643123 0.064894 0.416602 -0.438813
O29   O     O_2   0.344444 0.368829 0.078228 -0.445508
O30   O     O_2   0.132333 0.686607 0.423825 -0.432615
O31   O     O_2   0.640851 0.063864 0.083254 -0.440281
O32   O     O_2   0.363781 0.352246 0.417726 -0.444545
O33   O     O_2   0.687242 0.132974 0.576179 -0.432174
O34   O     O_2   0.068739 0.641986 0.916323 -0.439231
O35   O     O_2   0.356731 0.354244 0.581162 -0.444587
O36   O     O_2   0.686173 0.133435 0.923855 -0.433663
O37   O     O_2   0.064055 0.641651 0.583348 -0.438545
O38   O     O_2   0.343329 0.370954 0.914922 -0.444338
O39   O     O_2   0.878408 0.409882 0.088789 -0.476361
O40   O     O_2   0.364936 0.810081 0.431461 -0.462202
O41   O     O_2   0.593789 0.655344 0.075483 -0.516206
O42   O     O_2   0.877437 0.407069 0.410853 -0.476489
O43   O     O_2   0.368081 0.802702 0.067910 -0.463572
O44   O     O_2   0.602386 0.644688 0.421747 -0.516170
O45   O     O_2   0.407341 0.878488 0.588915 -0.476356
O46   O     O_2   0.808043 0.368641 0.931410 -0.464597
O47   O     O_2   0.640814 0.606743 0.578401 -0.516280
O48   O     O_2   0.409662 0.874986 0.910591 -0.475607
O49   O     O_2   0.808724 0.363946 0.568314 -0.461954
O50   O     O_2   0.632629 0.614824 0.918992 -0.515397
Br1   Br    Br    0.158011 0.799718 0.954640 -0.327215
Br2   Br    Br    0.822681 0.173341 0.530058 -0.326142
Br3   Br    Br    0.219414 0.252757 0.959540 -0.265085
Br4   Br    Br    0.150565 0.799271 0.544944 -0.320008
Br5   Br    Br    0.821781 0.177115 0.970209 -0.321962
Br6   Br    Br    0.249616 0.222557 0.536382 -0.265126
Br7   Br    Br    0.800479 0.150940 0.455145 -0.323399
Br8   Br    Br    0.181391 0.822166 0.029539 -0.334955
Br9   Br    Br    0.236968 0.235257 0.462043 -0.264848
Br10  Br    Br    0.798800 0.153649 0.045092 -0.318346
Br11  Br    Br    0.172821 0.821951 0.470037 -0.322352
Br12  Br    Br    0.207802 0.267737 0.033852 -0.267982

loop_
_geom_bond_atom_site_label_1
_geom_bond_atom_site_label_2
_ccdc_geom_bond_type
C132  C144  A    
C12   O10   A    
C104  O34   D    
C93   C141  A    
C16   H52   S    
C111  N3    Am   
C159  H12   S    
C47   C76   A    
C112  C124  A    
C35   H47   S    
C33   C78   A    
C21   C33   A    
C40   H23   S    
C60   C72   A    
C113  O43   D    
C97   N1    Am   
C108  N12   Am   
C72   N12   S    
C25   H37   S    
C115  N7    Am   
C153  Br6   S    
C86   C134  A    
C3    O15   A    
C105  O35   D    
C45   C78   A    
C64   N4    S    
C108  O38   D    
C145  Br8   S    
C66   N6    S    
C146  Br7   S    
C96   C108  A    
C28   C83   A    
C40   C83   A    
Cr2   O2    S    
Cr5   O20   S    
C116  N8    Am   
C6    O4    A    
C58   C70   A    
C155  Br4   S    
C117  O47   D    
C4    C78   S    
C96   C144  A    
C162  C165  A    
C15   C27   A    
C110  O40   D    
C45   C57   A    
C88   C148  A    
C14   C26   A    
C152  Br1   S    
C19   H55   S    
C48   H15   S    
C11   C79   S    
C9    C83   S    
C117  N9    Am   
C39   H24   S    
C112  N4    Am   
C7    O11   A    
C157  H8    S    
C71   N11   S    
C3    C77   S    
C131  C143  A    
C114  N6    Am   
Cr4   O10   S    
C89   C101  A    
C20   C68   A    
C9    O7    A    
C91   C103  A    
C138  C141  A    
C63   N3    S    
C46   C77   A    
Cr3   O3    S    
C38   H19   S    
C161  H10   S    
C93   C153  A    
C162  H9    S    
Cr4   O22   S    
Cr5   O23   S    
C109  C121  A    
C96   C156  A    
C123  C159  A    
C150  Br9   S    
C41   C82   A    
C124  C160  A    
C57   H30   S    
C8    O12   A    
C42   H21   S    
C85   C97   A    
C92   C104  A    
C47   C59   A    
C29   C82   A    
C167  H4    S    
C98   N2    Am   
C49   H32   S    
C4    O16   A    
C123  C135  A    
C5    O17   A    
C26   H38   S    
C105  N9    Am   
C42   C54   A    
Cr6   O21   S    
C39   C51   A    
C137  C142  A    
C46   H17   S    
C90   C150  A    
C9    O21   A    
C24   C36   A    
C10   O22   A    
C15   H51   S    
C27   C84   A    
C85   C145  A    
C39   C84   A    
C136  C143  A    
C114  C126  A    
C89   C137  A    
C29   H41   S    
C14   C62   A    
C128  C164  A    
C164  H1    S    
Cr3   O15   S    
C122  C134  A    
C98   O28   D    
C119  C131  A    
C100  N4    Am   
C148  C155  A    
C117  C129  A    
C131  C167  A    
C46   C58   A    
C44   C73   A    
C42   C81   A    
C120  N12   Am   
C160  H11   S    
C90   C138  A    
C118  N10   Am   
C148  Br11  S    
C33   H45   S    
C22   C34   A    
C37   C80   A    
C35   C76   A    
C114  O44   D    
C94   C142  A    
C119  O49   D    
C24   H60   S    
C120  O50   D    
C134  C139  A    
C31   C74   A    
Cr6   O26   S    
C154  Br5   S    
C56   C68   A    
C147  Br12  S    
C116  O46   D    
C21   C69   A    
C106  O36   D    
C36   C75   A    
C157  C164  A    
C41   C53   A    
C158  C163  A    
C109  N1    Am   
C43   C55   A    
C7    C81   S    
C61   N1    S    
C24   C72   A    
C20   C32   A    
C118  O48   D    
C106  N10   Am   
Cr6   O12   S    
C6    O18   A    
C1    O5    A    
C54   C66   A    
C18   C66   A    
C47   H16   S    
C119  N11   Am   
C107  O37   D    
C17   H53   S    
C59   H28   S    
C5    C73   S    
C130  C142  A    
C158  H7    S    
C32   H44   S    
C145  C152  A    
C44   H13   S    
C30   H42   S    
C146  C151  A    
C23   H59   S    
C23   C71   A    
Cr2   O25   S    
C1    O13   A    
C22   C70   A    
C95   C143  A    
C101  N5    Am   
C25   C80   A    
C17   C29   A    
C156  Br3   S    
Cr4   O26   S    
C19   C31   A    
Cr6   O24   S    
C87   C147  A    
C100  O30   D    
C8    C82   S    
C101  O31   D    
C12   O24   A    
C34   C77   A    
C34   H46   S    
C129  C141  A    
C38   C79   A    
C168  H3    S    
C53   H34   S    
C7    O19   A    
C126  C138  A    
C150  C153  A    
C11   O9    A    
C19   C67   A    
C89   C149  A    
C11   O23   A    
C3    O1    A    
C13   H49   S    
C86   C146  A    
C110  N2    Am   
C6    C74   S    
Cr4   O7    S    
C20   H56   S    
C124  C136  A    
C111  C123  A    
C87   C135  A    
C49   C61   A    
C88   C136  A    
C5    O3    A    
C8    O20   A    
C52   C64   A    
C99   O29   D    
C69   N9    S    
C125  C137  A    
Cr3   O6    S    
Cr1   O4    S    
C149  C154  A    
Cr4   O19   S    
C118  C130  A    
C2    O6    A    
C37   C49   A    
C44   C56   A    
C45   H18   S    
C55   H26   S    
Cr5   O8    S    
C51   C63   A    
C147  C156  A    
C88   C100  A    
C95   C107  A    
C91   C139  A    
C149  Br10  S    
C58   H29   S    
C23   C35   A    
C115  O45   D    
C52   H35   S    
C92   C140  A    
C2    C76   S    
C127  C163  A    
C10   O8    A    
C125  C161  A    
C102  N6    Am   
C26   C79   A    
C129  C165  A    
C37   H20   S    
C30   C81   A    
C110  C122  A    
C51   H36   S    
C43   H14   S    
C104  N8    Am   
Cr1   O16   S    
C128  C140  A    
Cr3   O18   S    
C86   C98   A    
C99   N3    Am   
C60   H27   S    
C133  C140  A    
C27   H39   S    
C111  O41   D    
C85   C133  A    
C31   H43   S    
C16   C28   A    
C2    O14   A    
Cr3   O25   S    
C103  O33   D    
C67   N7    S    
Cr5   O11   S    
C14   H50   S    
C41   H22   S    
C113  C125  A    
C21   H57   S    
C115  C127  A    
C159  C168  A    
C160  C167  A    
C130  C166  A    
C4    O2    A    
C70   N10   S    
C90   C102  A    
C68   N8    S    
C92   C152  A    
C18   C30   A    
C161  C166  A    
C56   H25   S    
C93   C105  A    
C43   C74   A    
C121  C157  A    
C48   C75   A    
C13   C25   A    
C151  Br2   S    
C127  C139  A    
C102  O32   D    
C163  H2    S    
C48   C60   A    
C87   C99   A    
C28   H40   S    
C62   N2    S    
C1    C75   S    
C32   C73   A    
C40   C52   A    
Cr2   O17   S    
C94   C154  A    
C22   H58   S    
Cr1   O1    S    
C18   H54   S    
C135  C144  A    
Cr1   O25   S    
C50   C62   A    
C36   H48   S    
C53   C65   A    
C94   C106  A    
C122  C158  A    
C120  C132  A    
C107  N11   Am   
C132  C168  A    
Cr5   O26   S    
C55   C67   A    
C38   C50   A    
C112  O42   D    
C17   C65   A    
C57   C69   A    
C109  O39   D    
C91   C151  A    
C12   C80   S    
C10   C84   S    
C103  N7    Am   
Cr2   O5    S    
C95   C155  A    
C50   H31   S    
Cr6   O9    S    
C113  N5    Am   
C13   C61   A    
C54   H33   S    
C116  C128  A    
Cr1   O13   S    
C165  H6    S    
C15   C63   A    
C65   N5    S    
Cr2   O14   S    
C166  H5    S    
C16   C64   A    
C121  C133  A    
C126  C162  A    
C97   O27   D    
C59   C71   A    
