data_mof_unit_21701.cif
_audit_creation_date              2012-12-10T20:34:52-0500
_audit_creation_method            fapswitch 2.2
_symmetry_space_group_name_H-M    P1
_symmetry_Int_Tables_number       1
_space_group_crystal_system       triclinic
_cell_length_a                    10.651674
_cell_length_b                    10.674681
_cell_length_c                    9.931142
_cell_angle_alpha                 89.985699
_cell_angle_beta                  90.385785
_cell_angle_gamma                 91.440639
_cell_volume                      1128.82032093

loop_
_atom_site_label
_atom_site_type_symbol
_atom_type_description
_atom_site_fract_x
_atom_site_fract_y
_atom_site_fract_z
_atom_type_partial_charge
C1    C     C_R   0.503145 0.260332 0.500130 0.955394
C2    C     C_3   0.878879 0.498335 0.499155 -0.177950
C3    C     C_3   0.931916 0.621940 0.564457 0.975492
C4    C     C_3   0.927542 0.490617 0.350743 0.187854
C5    C     C_R   0.505986 0.063931 0.622197 -0.060719
C6    C     C_R   0.520365 0.129141 0.501730 -0.047730
C7    C     C_R   0.556498 0.066335 0.384773 -0.150552
C8    C     C_R   0.556651 0.936693 0.384769 -0.113496
C9    C     C_R   0.520995 0.871871 0.501817 -0.124544
C10   C     C_R   0.506896 0.936164 0.622421 0.045361
C11   C     C_3   0.404392 0.925929 0.724340 0.427579
C12   C     C_R   0.257931 0.499597 0.499374 0.956900
C13   C     C_3   0.403356 0.067857 0.724163 0.343112
C14   C     C_R   0.436845 0.408002 0.070495 0.122711
C15   C     C_R   0.570479 0.585552 0.071526 0.453354
C16   C     C_R   0.570468 0.585533 0.929362 0.487901
C17   C     C_R   0.436863 0.408007 0.928380 0.107146
C18   C     C_3   0.299265 0.379864 0.921696 -0.430390
C19   C     C_3   0.299147 0.380187 0.074419 -0.454888
C20   C     C_R   0.503546 0.739821 0.500089 0.898275
C21   C     C_R   0.742119 0.499535 0.500057 1.013233
C22   C     C_3   0.070613 0.382066 0.574191 -0.528178
C23   C     C_3   0.926275 0.384658 0.582065 0.235261
C24   C     C_3   0.076236 0.619722 0.567687 -0.440507
C25   C     C_3   0.070713 0.495393 0.350748 0.398695
C26   C     C_3   0.121521 0.499460 0.497886 -0.204557
H1    H     H_    0.109812 0.379037 0.678236 0.203355
H2    H     H_    0.892897 0.572998 0.293185 0.191414
H3    H     H_    0.116360 0.704492 0.516840 0.233313
H4    H     H_    0.576998 0.116208 0.292153 0.187910
H5    H     H_    0.577026 0.888055 0.292080 0.217421
H6    H     H_    0.316820 0.878985 0.686040 0.108385
H7    H     H_    0.433421 0.112444 0.820652 0.129507
H8    H     H_    0.100833 0.295719 0.521859 0.251634
H9    H     H_    0.245633 0.457891 0.877138 0.222998
H10   H     H_    0.277449 0.286088 0.877818 0.238467
H11   H     H_    0.246067 0.458942 0.116847 0.257657
H12   H     H_    0.277010 0.286724 0.118890 0.211236
H13   H     H_    0.898975 0.396801 0.689559 0.150591
H14   H     H_    0.110306 0.622638 0.673939 0.204256
H15   H     H_    0.106012 0.410762 0.299128 0.127609
N1    N     N_R   0.499150 0.499140 0.142800 -0.200910
N2    N     N_R   0.499150 0.499180 0.857150 -0.214524
O1    O     O_R   0.500020 0.316790 0.614690 -0.609964
O2    O     O_R   0.500000 0.316760 0.385350 -0.629808
O3    O     O_R   0.314800 0.500000 0.614670 -0.627477
O4    O     O_R   0.314790 0.499960 0.385330 -0.585090
O5    O     O_R   0.500000 0.683240 0.614650 -0.612664
O6    O     O_R   0.499980 0.683210 0.385310 -0.625296
O7    O     O_R   0.685210 0.500040 0.614670 -0.640050
O8    O     O_R   0.685200 0.500000 0.385330 -0.630843
Zn1   Zn    Zn3+2 0.500010 0.500020 0.653130 0.995541
Zn2   Zn    Zn3+2 0.499990 0.499980 0.346870 1.001688
F1    F     F_    0.893381 0.724886 0.491022 -0.645092
F2    F     F_    0.447651 0.878344 0.845206 -0.613996
F3    F     F_    0.293030 0.113425 0.670684 -0.686242
O9    O     O_3   0.643527 0.676737 0.133825 -0.690818
H16   H     H_    0.655460 0.653125 0.228096 0.371865
O10   O     O_3   0.643558 0.676500 0.867854 -0.610037
H17   H     H_    0.654646 0.652810 0.773683 0.404614
O11   O     O_3   0.872435 0.271532 0.533767 -0.674647
H18   H     H_    0.887468 0.207119 0.603803 0.357031
F4    F     F_    0.888931 0.634737 0.695166 -0.647402
F5    F     F_    0.112180 0.600365 0.279442 -0.647017
O12   O     O_3   0.883153 0.379845 0.287497 -0.687092
H19   H     H_    0.892588 0.392762 0.189010 0.337718

loop_
_geom_bond_atom_site_label_1
_geom_bond_atom_site_label_2
_ccdc_geom_bond_type
O7    Zn1   S    
C17   N2    A    
C13   H7    S    
C20   O6    A    
C19   H12   S    
C3    F4    S    
C1    O1    A    
C11   C13   S    
C18   H9    S    
C9    C20   S    
C5    C13   S    
C14   C17   A    
C14   N1    A    
O4    Zn2   S    
C13   F3    S    
O1    Zn1   S    
C2    C21   S    
C17   C18   S    
C3    C24   S    
O2    Zn2   S    
O10   H17   S    
C7    H4    S    
C24   H3    S    
C5    C6    A    
C15   O9    S    
C16   N2    A    
C1    O2    A    
O9    H16   S    
C20   O5    A    
C12   O4    A    
C23   H13   S    
C2    C4    S    
C5    C10   A    
C21   O7    A    
C4    H2    S    
C24   C26   S    
C11   H6    S    
C4    C25   S    
C6    C7    A    
C2    C3    S    
C22   H1    S    
O12   H19   S    
N1    Zn2   S    
C22   C26   S    
O11   H18   S    
C22   H8    S    
C3    F1    S    
O6    Zn2   S    
N2    Zn1   S    
C21   O8    A    
C7    C8    A    
C10   C11   S    
C15   C16   A    
O3    Zn1   S    
O5    Zn1   S    
C11   F2    S    
C12   O3    A    
C18   C19   S    
C9    C10   A    
C23   O11   S    
C25   H15   S    
C2    C23   S    
C4    O12   S    
C19   H11   S    
C24   H14   S    
C25   C26   S    
C22   C23   S    
C8    H5    S    
C18   H10   S    
C14   C19   S    
C25   F5    S    
C1    C6    S    
C15   N1    A    
C12   C26   S    
C8    C9    A    
O8    Zn2   S    
C16   O10   S    
