data_mof_unit_60065.cif
_audit_creation_date              2012-12-10T17:24:54-0500
_audit_creation_method            fapswitch 2.2
_symmetry_space_group_name_H-M    P1
_symmetry_Int_Tables_number       1
_space_group_crystal_system       triclinic
_cell_length_a                    10.212352
_cell_length_b                    10.570408
_cell_length_c                    19.187269
_cell_angle_alpha                 91.264282
_cell_angle_beta                  81.094001
_cell_angle_gamma                 97.664671
_cell_volume                      2027.98542905

loop_
_atom_site_label
_atom_site_type_symbol
_atom_type_description
_atom_site_fract_x
_atom_site_fract_y
_atom_site_fract_z
_atom_type_partial_charge
Br1   Br    Br    0.342181 0.716484 0.710965 -0.269980
Br2   Br    Br    0.908911 0.353655 0.392539 -0.219744
Br3   Br    Br    0.712122 0.722141 0.300680 -0.301885
Br4   Br    Br    0.574027 0.085388 0.389611 -0.357163
Br5   Br    Br    0.557407 0.983441 0.621594 -0.302519
Br6   Br    Br    0.265515 0.075839 0.595017 -0.257760
Br7   Br    Br    0.794394 0.926674 0.473536 -0.185086
Br8   Br    Br    0.062623 0.288473 0.531689 -0.287529
Br9   Br    Br    0.861547 0.619680 0.586859 -0.306855
Br10  Br    Br    0.151950 0.720051 0.498271 -0.227162
C1    C     C_R   0.559265 0.734348 0.495194 0.876776
C2    C     C_R   0.500642 0.500761 0.366150 0.852658
C3    C     C_R   0.434697 0.595074 0.752314 0.300592
C4    C     C_R   0.606027 0.593711 0.251771 0.304719
C5    C     C_R   0.435783 0.597975 0.825491 -0.087326
C6    C     C_R   0.622061 0.593038 0.177767 -0.081742
C7    C     C_R   0.502659 0.509206 0.855390 -0.081043
C8    C     C_R   0.528474 0.512615 0.144491 -0.078394
C9    C     C_R   0.563386 0.417177 0.813578 -0.071022
C10   C     C_R   0.427567 0.429040 0.183701 -0.067641
C11   C     C_R   0.560559 0.410757 0.741440 -0.101769
C12   C     C_R   0.441441 0.265394 0.504748 0.830070
C13   C     C_R   0.416328 0.422704 0.256706 -0.100638
C14   C     C_R   0.498376 0.502075 0.710276 -0.195798
C15   C     C_R   0.505561 0.506767 0.290597 -0.193427
C16   C     C_R   0.531509 0.512567 0.068691 0.282747
C17   C     C_R   0.512908 0.510687 0.930332 0.288762
C18   C     C_2   0.361092 0.687811 0.871505 0.534550
C19   C     C_2   0.739267 0.670133 0.135577 0.513399
C20   C     C_2   0.617170 0.303931 0.700632 0.561322
C21   C     C_2   0.314086 0.325539 0.296137 0.537608
C22   C     C_2   0.604501 0.870450 0.491434 0.108072
C23   C     C_2   0.404040 0.129144 0.517302 0.089263
C24   C     C_2   0.525440 0.947496 0.526276 0.191361
C25   C     C_2   0.487894 0.050619 0.486102 0.147644
C26   C     C_2   0.921711 0.501460 0.514582 0.318453
C27   C     C_2   0.057466 0.466221 0.517663 0.283090
C28   C     C_R   0.499714 0.500832 0.634204 0.869828
H1    H     H_    0.612780 0.348906 0.837810 0.206065
H2    H     H_    0.358024 0.367192 0.156653 0.204168
H3    H     H_    0.301138 0.654214 0.920949 0.067444
H4    H     H_    0.731745 0.711652 0.085603 0.087889
H5    H     H_    0.589449 0.276519 0.649612 0.084997
H6    H     H_    0.313369 0.307839 0.351628 0.080314
N1    N     N_R   0.508849 0.399623 0.965029 -0.131998
N2    N     N_R   0.535478 0.623463 0.034101 -0.163241
N3    N     N_R   0.517401 0.400511 0.033306 -0.124268
N4    N     N_R   0.528075 0.622629 0.965742 -0.143877
N5    N     N_2   0.842710 0.448880 0.471430 -0.010645
N6    N     N_2   0.157290 0.551120 0.528570 -0.005547
O1    O     O_R   0.431050 0.692470 0.505750 -0.564896
O2    O     O_2   0.848508 0.684338 0.155127 -0.471116
O3    O     O_2   0.694586 0.243610 0.724113 -0.482819
O4    O     O_2   0.229282 0.262582 0.266747 -0.488855
O5    O     O_R   0.568950 0.307530 0.494250 -0.577542
O6    O     O_R   0.651120 0.659650 0.487410 -0.549773
O7    O     O_R   0.348880 0.340350 0.512590 -0.574116
O8    O     O_R   0.389930 0.516430 0.611030 -0.557854
O9    O     O_R   0.610070 0.483570 0.388970 -0.542533
O10   O     O_R   0.610000 0.483610 0.592700 -0.614940
O11   O     O_R   0.390000 0.516390 0.407300 -0.615416
O12   O     O_2   0.370353 0.800575 0.856435 -0.458253
Zn1   Zn    Zn3+2 0.353060 0.521920 0.512240 1.109638
Zn2   Zn    Zn3+2 0.646940 0.478080 0.487760 1.120740

loop_
_geom_bond_atom_site_label_1
_geom_bond_atom_site_label_2
_ccdc_geom_bond_type
C17   N4    A    
Br9   C26   S    
C14   C28   S    
Br6   C23   S    
C12   O5    A    
N6    Zn1   S    
Br2   N5    S    
C19   H4    S    
Br1   C3    S    
C11   C20   S    
Br10  N6    S    
C8    C16   S    
C10   C13   A    
C2    C15   S    
O10   Zn2   S    
O5    Zn2   S    
C17   N1    A    
C12   O7    A    
C3    C5    A    
O9    Zn2   S    
Br4   C25   S    
C4    C15   A    
N5    Zn2   S    
Br5   C24   S    
C27   N6    D    
C5    C18   S    
Br3   C4    S    
C9    H1    S    
C16   N3    A    
C28   O10   A    
C26   C27   S    
C23   C25   D    
C1    C22   S    
O7    Zn1   S    
C8    C10   A    
N1    N3    A    
C21   O4    D    
C18   O12   D    
C10   H2    S    
C20   O3    D    
C4    C6    A    
C20   H5    S    
C1    O1    A    
C21   H6    S    
C16   N2    A    
C26   N5    D    
C7    C17   S    
N2    N4    A    
C18   H3    S    
O6    Zn2   S    
C13   C15   A    
O1    Zn1   S    
C6    C8    A    
C24   C25   S    
Br8   C27   S    
C11   C14   A    
O8    Zn1   S    
C5    C7    A    
C12   C23   S    
Br7   C22   S    
C2    O11   A    
C7    C9    A    
C6    C19   S    
C28   O8    A    
C2    O9    A    
O11   Zn1   S    
C1    O6    A    
C3    C14   A    
C13   C21   S    
C9    C11   A    
C19   O2    D    
C22   C24   D    
