data_mof_unit_28765.cif
_audit_creation_date              2012-12-10T19:05:18-0500
_audit_creation_method            fapswitch 2.2
_symmetry_space_group_name_H-M    P1
_symmetry_Int_Tables_number       1
_space_group_crystal_system       triclinic
_cell_length_a                    9.564058
_cell_length_b                    10.892325
_cell_length_c                    17.291472
_cell_angle_alpha                 90.404127
_cell_angle_beta                  86.09967
_cell_angle_gamma                 91.634469
_cell_volume                      1796.40921269

loop_
_atom_site_label
_atom_site_type_symbol
_atom_type_description
_atom_site_fract_x
_atom_site_fract_y
_atom_site_fract_z
_atom_type_partial_charge
C1    C     C_R   0.501914 0.737338 0.499875 0.870329
C2    C     C_R   0.346693 0.523831 0.777211 -0.184274
C3    C     C_R   0.449949 0.610224 0.149409 0.351639
C4    C     C_R   0.430565 0.585328 0.228840 0.379563
C5    C     C_R   0.644193 0.466059 0.221275 0.356668
C6    C     C_R   0.657364 0.484845 0.141110 -0.302623
C7    C     C_R   0.559894 0.553620 0.104981 -0.037264
C8    C     C_2   0.457054 0.521834 0.981389 -0.219272
C9    C     C_2   0.569027 0.554607 0.020187 -0.193894
C10   C     C_R   0.529822 0.515979 0.265311 -0.239346
C11   C     C_R   0.395564 0.932436 0.540376 -0.119609
C12   C     C_R   0.481862 0.499510 0.649973 0.789463
C13   C     C_R   0.506887 0.870286 0.503402 -0.171350
C14   C     C_R   0.623786 0.938879 0.471353 0.468584
C15   C     C_R   0.617478 0.067404 0.468802 -0.300046
C16   C     C_R   0.499131 0.128493 0.500534 -0.196275
C17   C     C_R   0.391821 0.059390 0.539702 0.108867
C18   C     C_3   0.237269 0.057028 0.531201 0.103947
C19   C     C_3   0.240390 0.917274 0.534939 0.295264
C20   C     C_R   0.931217 0.441260 0.442578 0.150114
C21   C     C_R   0.921127 0.570416 0.551480 0.479525
C22   C     C_R   0.070887 0.569297 0.551466 -0.133911
C23   C     C_R   0.498675 0.262193 0.499315 0.830786
C24   C     C_R   0.078956 0.442116 0.442263 0.208885
C25   C     C_3   0.080112 0.308237 0.427005 0.122061
C26   C     C_3   0.922773 0.307511 0.425486 -0.432339
C27   C     C_R   0.518345 0.502452 0.349981 0.893108
C28   C     C_R   0.473264 0.499717 0.734702 -0.023808
C29   C     C_R   0.593670 0.477404 0.773769 -0.178708
C30   C     C_R   0.588842 0.482227 0.854044 -0.146290
C31   C     C_R   0.463803 0.511408 0.896587 0.178070
C32   C     C_R   0.342105 0.529336 0.857859 -0.160083
Cu1   Cu    Cu3+1 0.359330 0.500020 0.500000 0.989552
Cu2   Cu    Cu3+1 0.640670 0.499980 0.500000 1.025208
H1    H     H_    0.691950 0.456074 0.742362 0.166509
H2    H     H_    0.741633 0.442537 0.106282 0.157288
H3    H     H_    0.701668 0.118413 0.437732 0.175337
H4    H     H_    0.211591 0.094709 0.475331 0.103453
H5    H     H_    0.189440 0.879482 0.589769 0.115866
H6    H     H_    0.124727 0.623175 0.593697 0.135234
H7    H     H_    0.116184 0.260043 0.477191 0.140130
H8    H     H_    0.883423 0.287386 0.367620 0.252047
H9    H     H_    0.871181 0.254059 0.474378 0.156005
H10   H     H_    0.670999 0.572675 0.990431 0.157360
H11   H     H_    0.244304 0.550074 0.889978 0.130164
H12   H     H_    0.252217 0.540607 0.748230 0.148522
H13   H     H_    0.356412 0.503911 0.013033 0.173395
H14   H     H_    0.682930 0.461973 0.882297 0.126119
N1    N     N_R   0.852130 0.499070 0.499500 -0.203172
N2    N     N_R   0.148040 0.499110 0.499500 -0.218541
O1    O     O_R   0.381190 0.680360 0.500000 -0.541653
O2    O     O_R   0.618770 0.680320 0.499990 -0.521602
O3    O     O_R   0.367430 0.500040 0.613600 -0.595170
O4    O     O_R   0.605020 0.500000 0.613590 -0.541622
O5    O     O_R   0.381230 0.319680 0.500010 -0.590616
O6    O     O_R   0.618810 0.319640 0.500000 -0.592965
O7    O     O_R   0.394980 0.500000 0.386410 -0.568863
O8    O     O_R   0.632570 0.499960 0.386400 -0.535532
O9    O     O_3   0.733459 0.879865 0.431968 -0.568417
C33   C     C_3   0.856276 0.900094 0.471421 -0.230863
H15   H     H_    0.934708 0.833960 0.448426 0.228440
H16   H     H_    0.838644 0.883002 0.534866 0.164028
H17   H     H_    0.900590 0.994381 0.460726 0.139063
O10   O     O_3   0.164990 0.108566 0.596119 -0.724384
H18   H     H_    0.064116 0.099991 0.586395 0.309565
O11   O     O_3   0.197135 0.848258 0.469687 -0.589051
C34   C     C_3   0.234483 0.900759 0.396258 -0.268157
H19   H     H_    0.340343 0.945607 0.391866 0.160107
H20   H     H_    0.153942 0.966082 0.380874 0.161255
H21   H     H_    0.234792 0.826581 0.352267 0.246536
O12   O     O_3   0.843619 0.641336 0.603873 -0.709048
H22   H     H_    0.908348 0.687553 0.636618 0.283454
O13   O     O_3   0.146838 0.279188 0.354852 -0.728468
H23   H     H_    0.247802 0.272921 0.363600 0.332798
O14   O     O_3   0.323679 0.641144 0.272775 -0.563082
C35   C     C_3   0.195678 0.578381 0.260854 -0.197688
H24   H     H_    0.202815 0.477592 0.269142 0.180387
H25   H     H_    0.159926 0.597355 0.202452 0.191032
H26   H     H_    0.114440 0.611957 0.304132 0.176864
O15   O     O_3   0.738992 0.396182 0.257209 -0.724849
H27   H     H_    0.812750 0.369101 0.218216 0.325185
O16   O     O_3   0.361720 0.692044 0.118096 -0.722346
H28   H     H_    0.405243 0.722921 0.068136 0.337404

loop_
_geom_bond_atom_site_label_1
_geom_bond_atom_site_label_2
_ccdc_geom_bond_type
C10   C27   S    
Cu1   O5    S    
Cu2   O6    S    
O13   H23   S    
C35   H26   S    
C21   N1    A    
C23   O6    A    
C2    H12   S    
C14   O9    S    
C11   C19   S    
C29   C30   A    
C21   O12   S    
C33   H17   S    
C30   H14   S    
C28   C29   A    
C35   H25   S    
C3    C7    A    
C5    C6    A    
C15   C16   A    
C19   O11   S    
C2    C32   A    
C18   C19   S    
C32   H11   S    
C15   H3    S    
C4    O14   S    
C20   C24   A    
C16   C17   A    
Cu2   N1    S    
C12   O3    A    
C22   N2    A    
O11   C34   S    
O9    C33   S    
C21   C22   A    
C24   N2    A    
C26   H9    S    
Cu1   Cu2   S    
Cu1   O3    S    
C34   H19   S    
C35   H24   S    
C27   O7    A    
C25   H7    S    
C8    C9    D    
Cu1   N2    S    
C33   H15   S    
C34   H20   S    
O14   C35   S    
C20   N1    A    
C31   C32   A    
C22   H6    S    
C3    O16   S    
C17   C18   S    
C24   C25   S    
C5    O15   S    
C1    O1    A    
C19   H5    S    
C12   C28   S    
Cu2   O4    S    
C16   C23   S    
C1    C13   S    
C4    C10   A    
C3    C4    A    
C26   H8    S    
C7    C9    S    
C11   C17   A    
C9    H10   S    
Cu1   O7    S    
C8    C31   S    
O15   H27   S    
C27   O8    A    
C23   O5    A    
C6    C7    A    
Cu1   O1    S    
C29   H1    S    
Cu2   O2    S    
C34   H21   S    
O10   H18   S    
C25   C26   S    
C8    H13   S    
O12   H22   S    
C33   H16   S    
C11   C13   A    
C18   O10   S    
C30   C31   A    
C20   C26   S    
C6    H2    S    
C25   O13   S    
C18   H4    S    
C1    O2    A    
C5    C10   A    
O16   H28   S    
Cu2   O8    S    
C14   C15   A    
C2    C28   A    
C13   C14   A    
C12   O4    A    
