data_mof_unit_28607.cif
_audit_creation_date              2012-12-11T15:08:33-0500
_audit_creation_method            fapswitch 2.2
_symmetry_space_group_name_H-M    P1
_symmetry_Int_Tables_number       1
_space_group_crystal_system       triclinic
_cell_length_a                    26.962431
_cell_length_b                    7.079311
_cell_length_c                    11.961277
_cell_angle_alpha                 89.998729
_cell_angle_beta                  103.598902
_cell_angle_gamma                 89.997962
_cell_volume                      2219.10799766

loop_
_atom_site_label
_atom_site_type_symbol
_atom_type_description
_atom_site_fract_x
_atom_site_fract_y
_atom_site_fract_z
_atom_type_partial_charge
O1    O     O_R   0.437360 0.505910 0.042120 -0.539781
O2    O     O_R   0.562640 0.005910 0.957880 -0.539780
O3    O     O_R   0.542480 0.176660 0.157100 -0.540789
O4    O     O_R   0.457520 0.676660 0.842900 -0.540787
C1    C     C_R   0.556611 0.344291 0.198043 0.690236
C2    C     C_R   0.443390 0.844301 0.801958 0.690235
O5    O     O_R   0.436520 0.176250 0.054800 -0.541671
O6    O     O_R   0.563480 0.676250 0.945200 -0.541664
O7    O     O_R   0.455920 0.005040 0.854840 -0.538659
O8    O     O_R   0.544080 0.505040 0.145160 -0.538661
C3    C     C_R   0.417812 0.344486 0.063792 0.689309
C4    C     C_R   0.582188 0.844482 0.936209 0.689307
O9    O     O_3   0.506490 0.338900 0.934520 -0.374072
O10   O     O_3   0.493510 0.838900 0.065480 -0.374078
V1    V     V_3+5 0.498800 0.064400 0.012150 1.421959
V2    V     V_3+5 0.501200 0.564400 0.987850 1.421972
C5    C     C_R   0.676734 0.819249 0.752413 -0.148330
C6    C     C_R   0.323269 0.319349 0.247596 -0.148296
H1    H     H_    0.595152 0.812521 0.720587 0.102870
H2    H     H_    0.404851 0.312626 0.279421 0.102865
H3    H     H_    0.766583 0.820118 0.707584 0.165113
H4    H     H_    0.233420 0.320229 0.292426 0.165109
H5    H     H_    0.676108 0.803059 0.661949 0.128700
H6    H     H_    0.323895 0.303203 0.338064 0.128699
C7    C     C_R   0.630378 0.849826 0.900733 -0.030524
C8    C     C_R   0.369622 0.349843 0.099267 -0.030522
C9    C     C_R   0.866055 0.869227 0.200801 -0.161450
C10   C     C_R   0.133944 0.369147 0.799199 -0.161447
C11   C     C_R   0.820827 0.866703 0.236170 -0.119520
C12   C     C_R   0.179173 0.366588 0.763830 -0.119460
C13   C     C_R   0.774492 0.860012 0.155810 -0.156021
C14   C     C_R   0.225507 0.359926 0.844191 -0.156023
C15   C     C_R   0.771906 0.857232 0.035997 0.077418
C16   C     C_R   0.228094 0.357203 0.964005 0.077404
C17   C     C_R   0.818723 0.858095 0.997949 -0.015386
C18   C     C_R   0.181277 0.358091 0.002053 -0.015393
C19   C     C_R   0.723941 0.851400 0.953509 0.069663
C20   C     C_R   0.276060 0.351403 0.046493 0.069658
C21   C     C_R   0.723154 0.832359 0.835246 0.096678
C22   C     C_R   0.276848 0.332420 0.164760 0.096684
C23   C     C_R   0.768398 0.829411 0.799105 -0.191263
C24   C     C_R   0.231605 0.329486 0.200903 -0.191260
C25   C     C_R   0.815728 0.848828 0.876605 -0.078815
C26   C     C_R   0.184273 0.348864 0.123399 -0.078817
C27   C     C_R   0.676317 0.863628 0.984062 -0.217155
C28   C     C_R   0.323683 0.363608 0.015936 -0.217158
C29   C     C_R   0.630638 0.825934 0.785215 -0.183164
C30   C     C_R   0.369364 0.326011 0.214791 -0.183159
C31   C     C_R   0.866004 0.863815 0.083960 -0.074941
C32   C     C_R   0.133996 0.363792 0.916042 -0.074953
H7    H     H_    0.673212 0.883089 0.071449 0.096621
H8    H     H_    0.326787 0.383028 0.928544 0.096617
H9    H     H_    0.901713 0.874462 0.265611 0.102786
H10   H     H_    0.098287 0.374364 0.734390 0.102791
H11   H     H_    0.741356 0.853829 0.191200 0.112499
H12   H     H_    0.258644 0.353718 0.808801 0.112504
H13   H     H_    0.821649 0.868864 0.327137 0.141537
H14   H     H_    0.178350 0.368704 0.672862 0.141540
C33   C     C_R   0.091604 0.861383 0.311550 -0.006086
C34   C     C_R   0.908397 0.361434 0.688445 -0.006099
C35   C     C_R   0.408606 0.849943 0.687772 -0.031703
C36   C     C_R   0.591393 0.349890 0.312233 -0.031737
C37   C     C_R   0.106428 0.897025 0.517300 -0.158385
C38   C     C_R   0.893563 0.397534 0.482719 -0.158366
C39   C     C_R   0.072882 0.889345 0.409485 -0.160184
C40   C     C_R   0.927112 0.389707 0.590527 -0.160094
C41   C     C_R   0.144112 0.841433 0.321280 -0.135708
C42   C     C_R   0.855893 0.341324 0.678704 -0.135746
C43   C     C_R   0.179339 0.854273 0.429642 0.099040
C44   C     C_R   0.820662 0.354314 0.570353 0.099052
C45   C     C_R   0.159259 0.881329 0.528143 0.132456
C46   C     C_R   0.840735 0.381688 0.471869 0.132483
C47   C     C_R   0.233542 0.844760 0.443347 0.053028
C48   C     C_R   0.766460 0.344662 0.556643 0.053022
C49   C     C_R   0.266598 0.861479 0.555828 0.052449
C50   C     C_R   0.733399 0.361595 0.444180 0.052453
C51   C     C_R   0.244353 0.886265 0.650734 -0.194870
C52   C     C_R   0.755638 0.386696 0.349291 -0.194858
C53   C     C_R   0.191896 0.895493 0.636827 -0.200445
C54   C     C_R   0.808093 0.396032 0.363199 -0.200479
C55   C     C_R   0.255800 0.820714 0.348402 -0.187261
C56   C     C_R   0.744208 0.320259 0.651569 -0.187263
C57   C     C_R   0.308299 0.813303 0.362265 -0.205796
C58   C     C_R   0.691711 0.312697 0.637703 -0.205795
C59   C     C_R   0.340951 0.828292 0.470970 0.131563
C60   C     C_R   0.659055 0.327886 0.529014 0.131573
C61   C     C_R   0.320810 0.852718 0.569582 0.081489
C62   C     C_R   0.679189 0.352698 0.430423 0.081481
C63   C     C_R   0.393866 0.816532 0.481761 -0.164227
C64   C     C_R   0.606143 0.315917 0.518215 -0.164230
C65   C     C_R   0.427428 0.825699 0.589610 -0.178967
C66   C     C_R   0.572578 0.325240 0.410375 -0.178941
C67   C     C_R   0.355990 0.864682 0.678113 -0.217346
C68   C     C_R   0.644005 0.364865 0.321906 -0.217355
H15   H     H_    0.176714 0.915881 0.712272 0.139614
H16   H     H_    0.823271 0.416655 0.287768 0.139638
H17   H     H_    0.344067 0.880473 0.757428 0.096586
H18   H     H_    0.655922 0.380963 0.242606 0.096608
H19   H     H_    0.468080 0.812088 0.596706 0.101018
H20   H     H_    0.531930 0.311423 0.403267 0.101033
H21   H     H_    0.323512 0.794294 0.286752 0.140265
H22   H     H_    0.676503 0.293395 0.713199 0.140282
H23   H     H_    0.091096 0.918777 0.592364 0.115126
H24   H     H_    0.908889 0.419534 0.407670 0.115111
H25   H     H_    0.032316 0.906551 0.402251 0.099783
H26   H     H_    0.967673 0.407060 0.597771 0.099780
H27   H     H_    0.155956 0.822036 0.242119 0.080254
H28   H     H_    0.844053 0.321725 0.757854 0.080211
H29   H     H_    0.266354 0.900546 0.737842 0.128561
H30   H     H_    0.733634 0.401134 0.262196 0.128555
H31   H     H_    0.233779 0.806859 0.261266 0.133465
H32   H     H_    0.766233 0.306207 0.738690 0.133445
H33   H     H_    0.409275 0.797242 0.406597 0.116280
H34   H     H_    0.590739 0.296314 0.593360 0.116277
O11   O     O_R   0.955980 0.206520 0.854760 -0.553941
O12   O     O_R   0.044020 0.706520 0.145240 -0.553942
O13   O     O_R   0.063490 0.536770 0.945200 -0.551023
O14   O     O_R   0.936510 0.036770 0.054800 -0.551011
C69   C     C_R   0.083520 0.368942 0.941892 0.651727
C70   C     C_R   0.916480 0.868947 0.058109 0.651737
O15   O     O_R   0.957530 0.536190 0.842880 -0.518882
O16   O     O_R   0.042470 0.036190 0.157120 -0.518885
O17   O     O_R   0.937350 0.707210 0.042130 -0.534735
O18   O     O_R   0.062650 0.207210 0.957870 -0.534739
C71   C     C_R   0.943137 0.367868 0.802486 0.694702
C72   C     C_R   0.056862 0.867858 0.197513 0.694675
O19   O     O_3   0.993540 0.373870 0.065440 -0.375096
O20   O     O_3   0.006460 0.873870 0.934560 -0.375103
V3    V     V_3+5 0.001200 0.648440 0.987860 1.442073
V4    V     V_3+5 0.998800 0.148440 0.012140 1.442086
C73   C     C_2   0.859679 0.869001 0.823019 0.360210
H35   H     H_    0.888426 0.974161 0.853165 0.071317
O21   O     O_2   0.862471 0.774928 0.739166 -0.530259
C74   C     C_2   0.140321 0.369031 0.176983 0.360190
H36   H     H_    0.111570 0.474179 0.146827 0.071355
O22   O     O_2   0.137534 0.274970 0.260847 -0.530270

loop_
_geom_bond_atom_site_label_1
_geom_bond_atom_site_label_2
_ccdc_geom_bond_type
C12   C14   A    
C37   C39   A    
O16   C72   A    
C67   H17   S    
C9    C11   A    
C58   H22   S    
O1    C3    A    
O2    C4    A    
O20   V3    S    
C2    O7    A    
C45   C53   A    
O3    V1    S    
C21   C23   A    
H4    C24   S    
C69   O18   A    
C33   C72   S    
O15   C71   A    
C5    H5    S    
C48   C50   A    
C6    H6    S    
C2    C35   S    
C34   C71   S    
C50   C52   A    
O13   C69   A    
C60   C62   A    
C31   C70   S    
C68   H18   S    
C28   H8    S    
C5    C21   A    
C47   C55   A    
C43   C45   A    
C6    C22   A    
C44   C48   A    
C33   C41   A    
C12   H14   S    
C10   C32   A    
O12   V3    S    
C55   H31   S    
C36   C66   A    
C17   C31   A    
C13   C15   A    
C43   C47   A    
C63   C65   A    
C17   C25   A    
C7    C29   A    
C16   C18   A    
C70   O17   A    
C8    C30   A    
O13   V3    S    
C59   C61   A    
C34   C40   A    
O6    V2    S    
O12   C72   A    
O17   V3    S    
C23   C25   A    
C64   H34   S    
C24   C26   A    
C48   C56   A    
C39   H25   S    
C55   C57   A    
C62   C68   A    
C51   C53   A    
C26   C74   S    
C19   C21   A    
C63   H33   S    
C32   C69   S    
C37   H23   S    
C60   C64   A    
C59   C63   A    
C74   O22   D    
C3    C8    S    
O3    C1    A    
C15   C19   A    
C6    C30   A    
C41   C43   A    
C56   H32   S    
O4    V2    S    
O5    C3    A    
O19   V3    S    
C53   H15   S    
O14   V4    S    
C64   C66   A    
O6    C4    A    
C52   C54   A    
O18   V4    S    
C52   H30   S    
O1    V2    S    
C51   H29   S    
O2    V1    S    
C49   C51   A    
C38   C40   A    
H2    C30   S    
C25   C73   S    
H3    C23   S    
C49   C61   A    
C57   C59   A    
C11   H13   S    
C56   C58   A    
C36   C68   A    
C18   C26   A    
O4    C2    A    
C54   H16   S    
C47   C49   A    
C19   C27   A    
C73   H35   S    
C7    C27   A    
C18   C32   A    
C66   H20   S    
C38   H24   S    
C50   C62   A    
C10   H10   S    
C57   H21   S    
C16   C20   A    
C5    C29   A    
O15   V3    S    
C22   C24   A    
C73   O21   D    
O20   V4    S    
C9    H9    S    
C74   H36   S    
O11   C71   A    
C4    C7    S    
C13   H11   S    
C10   C12   A    
O7    V1    S    
O19   V4    S    
C1    O8    A    
C46   C54   A    
O8    V2    S    
C33   C39   A    
C20   C22   A    
C41   H27   S    
C40   H26   S    
C61   C67   A    
O5    V1    S    
C15   C17   A    
C14   H12   S    
C1    C36   S    
H1    C29   S    
C38   C46   A    
O14   C70   A    
C20   C28   A    
C8    C28   A    
C9    C31   A    
C34   C42   A    
C11   C13   A    
O9    V2    S    
C42   C44   A    
C27   H7    S    
O10   V1    S    
C58   C60   A    
C44   C46   A    
C42   H28   S    
C65   H19   S    
C35   C67   A    
C37   C45   A    
O16   V4    S    
C35   C65   A    
C14   C16   A    
O11   V4    S    
