data_mof_unit_24301.cif
_audit_creation_date              2012-12-10T17:57:22-0500
_audit_creation_method            fapswitch 2.2
_symmetry_space_group_name_H-M    P1
_symmetry_Int_Tables_number       1
_space_group_crystal_system       triclinic
_cell_length_a                    9.555619
_cell_length_b                    10.798779
_cell_length_c                    13.444678
_cell_angle_alpha                 90.749719
_cell_angle_beta                  71.967341
_cell_angle_gamma                 89.564558
_cell_volume                      1318.98516673

loop_
_atom_site_label
_atom_site_type_symbol
_atom_type_description
_atom_site_fract_x
_atom_site_fract_y
_atom_site_fract_z
_atom_type_partial_charge
C1    C     C_R   0.501333 0.737594 0.495996 0.856883
C2    C     C_R   0.437597 0.496594 0.978647 0.096306
C3    C     C_R   0.469811 0.459355 0.872242 0.087959
C4    C     C_R   0.544994 0.474535 0.030415 0.073329
C5    C     C_R   0.676891 0.408583 0.977550 0.167538
C6    C     C_R   0.699995 0.363683 0.876188 -0.224786
C7    C     C_R   0.597070 0.386547 0.825052 -0.195181
C8    C     C_R   0.524594 0.513740 0.133986 -0.212288
C9    C     C_R   0.755234 0.418508 0.132573 -0.150265
C10   C     C_R   0.372845 0.494610 0.815954 -0.132434
C11   C     C_R   0.588925 0.935225 0.542099 -0.158093
C12   C     C_R   0.420917 0.494595 0.700369 0.808083
C13   C     C_R   0.589377 0.063204 0.544197 -0.165288
C14   C     C_R   0.501900 0.128714 0.496558 -0.040102
C15   C     C_R   0.417236 0.066572 0.443961 -0.216222
C16   C     C_R   0.420421 0.937747 0.437124 -0.013126
C17   C     C_R   0.503604 0.871664 0.490336 -0.100085
C18   C     C_R   0.901529 0.591972 0.549361 -0.023888
C19   C     C_R   0.049140 0.593090 0.549918 0.089222
C20   C     C_R   0.097298 0.408480 0.449217 -0.038517
C21   C     C_R   0.948801 0.408626 0.449160 -0.030722
C22   C     C_R   0.500498 0.262367 0.499562 0.771080
C23   C     C_R   0.579194 0.497758 0.299915 0.834697
C24   C     C_R   0.782214 0.383890 0.028156 -0.176103
C25   C     C_R   0.624732 0.481340 0.186206 -0.020445
C26   C     C_R   0.233936 0.544607 0.870142 -0.189773
C27   C     C_R   0.194954 0.572640 0.976957 -0.076653
C28   C     C_R   0.298698 0.552933 0.029426 -0.260265
Cu1   Cu    Cu3+1 0.359340 0.499980 0.500000 0.998835
Cu2   Cu    Cu3+1 0.640660 0.500020 0.500000 0.965185
H1    H     H_    0.833115 0.391606 0.172426 0.145694
H2    H     H_    0.655182 0.110973 0.585052 0.148783
H3    H     H_    0.354058 0.119107 0.404105 0.169418
H4    H     H_    0.825578 0.664729 0.589458 0.144956
H5    H     H_    0.171333 0.335215 0.408142 0.136537
H6    H     H_    0.911753 0.335383 0.408085 0.132593
H7    H     H_    0.882878 0.333496 0.988129 0.134916
H8    H     H_    0.429601 0.567010 0.177940 0.177261
H9    H     H_    0.156547 0.565360 0.828540 0.222940
H10   H     H_    0.267911 0.582912 0.109734 0.137006
H11   H     H_    0.617040 0.342983 0.749037 0.166342
H12   H     H_    0.653639 0.885764 0.582580 0.162525
N1    N     N_R   0.147940 0.499970 0.499970 -0.196506
N2    N     N_R   0.852060 0.500060 0.499990 -0.172671
O1    O     O_R   0.381250 0.680340 0.500010 -0.550818
O2    O     O_R   0.618820 0.680370 0.500010 -0.583847
O3    O     O_R   0.323240 0.499950 0.650980 -0.542912
O4    O     O_R   0.560810 0.499980 0.650980 -0.589319
O5    O     O_R   0.381180 0.319630 0.499990 -0.593322
O6    O     O_R   0.618750 0.319660 0.499990 -0.599088
O7    O     O_R   0.439190 0.500020 0.349020 -0.576004
O8    O     O_R   0.676760 0.500050 0.349020 -0.568383
C29   C     C_2   0.343582 0.877716 0.368891 0.872228
O9    O     O_2   0.395960 0.785029 0.317125 -0.605961
O10   O     O_R   0.214096 0.930937 0.360146 -0.744818
H13   H     H_    0.172550 0.882459 0.310839 0.345427
C30   C     C_2   0.089587 0.700230 0.603753 0.849890
O11   O     O_2   0.141204 0.685465 0.675091 -0.586456
O12   O     O_R   0.058914 0.819819 0.577026 -0.764072
H14   H     H_    0.089880 0.886282 0.619627 0.338036
H15   H     H_    0.797446 0.309049 0.836537 0.150055
C31   C     C_2   0.048955 0.631365 0.031399 0.886637
O13   O     O_2   0.984052 0.688019 0.980639 -0.529292
O14   O     O_R   0.982507 0.624078 0.139689 -0.724758
H16   H     H_    0.029317 0.560712 0.174646 0.282101

loop_
_geom_bond_atom_site_label_1
_geom_bond_atom_site_label_2
_ccdc_geom_bond_type
C2    C4    A    
O10   H13   S    
C9    C24   A    
C6    C7    A    
C27   C31   S    
C18   N2    A    
C21   N2    A    
C11   C13   A    
C4    C8    A    
C13   H2    S    
C1    C17   S    
C14   C15   A    
C22   O6    A    
C12   O4    A    
Cu2   N2    S    
O14   H16   S    
C10   C26   A    
C29   O10   S    
C24   H7    S    
C23   O8    A    
C9    C25   A    
O12   H14   S    
C3    C10   A    
Cu1   O5    S    
C29   O9    D    
Cu1   N1    S    
C8    C25   A    
C18   H4    S    
C1    O1    A    
C30   O11   D    
C31   O13   D    
C5    C24   A    
C8    H8    S    
Cu1   O3    S    
C12   O3    A    
C5    C6    A    
C10   C12   S    
C6    H15   S    
Cu2   O4    S    
C19   N1    A    
C2    C3    A    
C3    C7    A    
C7    H11   S    
C26   C27   A    
C14   C22   S    
C1    O2    A    
C26   H9    S    
C30   O12   S    
Cu1   O1    S    
C2    C28   A    
C9    H1    S    
Cu1   Cu2   S    
C15   C16   A    
Cu2   O8    S    
C20   N1    A    
C20   C21   A    
C11   H12   S    
C18   C19   A    
Cu1   O7    S    
C22   O5    A    
C27   C28   A    
C21   H6    S    
C28   H10   S    
C16   C29   S    
C11   C17   A    
C31   O14   S    
C4    C5    A    
Cu2   O6    S    
C23   C25   S    
C13   C14   A    
C20   H5    S    
C23   O7    A    
Cu2   O2    S    
C19   C30   S    
C15   H3    S    
C16   C17   A    
