data_mof_unit_31918.cif
_audit_creation_date              2012-10-26T18:52:44-0400
_audit_creation_method            fapswitch 2.2
_symmetry_space_group_name_H-M    P1
_symmetry_Int_Tables_number       1
_space_group_crystal_system       triclinic
_cell_length_a                    10.765783
_cell_length_b                    14.679764
_cell_length_c                    14.849591
_cell_angle_alpha                 64.387956
_cell_angle_beta                  104.528477
_cell_angle_gamma                 103.292284
_cell_volume                      2028.61835309

loop_
_atom_site_label
_atom_site_type_symbol
_atom_type_description
_atom_site_fract_x
_atom_site_fract_y
_atom_site_fract_z
_atom_type_partial_charge
C1    C     C_R   0.476713 0.120229 0.312391 0.529819
C2    C     C_R   0.420915 0.366891 0.092430 -0.038728
C3    C     C_R   0.312677 0.332333 0.031828 -0.019319
C4    C     C_R   0.259615 0.002588 0.495561 0.547245
C5    C     C_R   0.453531 0.473617 0.067728 -0.003490
C6    C     C_R   0.401992 0.542670 0.971191 0.045725
C7    C     C_R   0.287119 0.506917 0.918110 0.369975
C8    C     C_R   0.243897 0.403089 0.947962 -0.028636
C9    C     C_R   0.525443 0.514039 0.138691 -0.084462
C10   C     C_R   0.562423 0.618452 0.109680 -0.104132
C11   C     C_R   0.538831 0.685129 0.007057 -0.037511
C12   C     C_3   0.876616 0.003385 0.492980 -0.014449
C13   C     C_R   0.463079 0.646048 0.934949 0.025061
C14   C     C_R   0.592587 0.788861 0.974886 0.001486
C15   C     C_R   0.581676 0.851107 0.871577 0.399723
C16   C     C_R   0.518545 0.879321 0.688375 0.604392
C17   C     C_R   0.462864 0.707377 0.830028 -0.047224
C18   C     C_R   0.756237 0.310664 0.620342 -0.075492
C19   C     C_R   0.703629 0.216491 0.616796 0.608891
C20   C     C_R   0.511118 0.281718 0.513435 0.006055
C21   C     C_R   0.560363 0.381582 0.510275 -0.019905
C22   C     C_R   0.687423 0.394678 0.565352 -0.038588
C23   C     C_3   0.950417 0.959300 0.604205 0.728099
C24   C     C_R   0.488678 0.467801 0.457581 0.023626
C25   C     C_R   0.539623 0.558748 0.475817 0.007445
C26   C     C_R   0.672008 0.572151 0.516599 -0.107561
C27   C     C_R   0.744563 0.491863 0.562710 -0.002411
C28   C     C_R   0.739186 0.002434 0.496028 0.623983
C29   C     C_R   0.372942 0.471184 0.384163 -0.030561
C30   C     C_R   0.303494 0.553770 0.344865 -0.071692
C31   C     C_R   0.343382 0.634862 0.375806 0.024657
C32   C     C_R   0.460539 0.637775 0.444259 -0.056915
C33   C     C_R   0.268114 0.714508 0.336998 0.364214
C34   C     C_3   0.942773 0.113972 0.435843 0.217929
C35   C     C_R   0.307344 0.795085 0.368056 0.090673
C36   C     C_R   0.489749 0.718351 0.479941 0.099831
C37   C     C_3   0.030015 0.938087 0.434370 -0.214671
C38   C     C_3   0.885737 0.935310 0.437801 -0.245031
C39   C     C_3   0.094843 0.957131 0.604981 0.324913
C40   C     C_3   0.087146 0.113454 0.439372 -0.186423
C41   C     C_3   0.120624 0.002416 0.493418 -0.113211
C42   C     C_1   0.417475 0.659897 0.757620 0.329619
C43   C     C_1   0.624738 0.319553 0.217744 0.223979
C44   C     C_1   0.056511 0.975392 0.329741 0.232049
C45   C     C_R   0.439698 0.189448 0.206573 -0.054702
C46   C     C_1   0.663220 0.833109 0.046559 0.312897
C47   C     C_1   0.878609 0.512352 0.606725 0.221748
C48   C     C_1   0.588696 0.715090 0.566759 0.273832
C49   C     C_1   0.800765 0.962719 0.336496 0.215940
C50   C     C_1   0.330033 0.401289 0.334121 0.167935
C51   C     C_1   0.128639 0.852437 0.661675 0.317536
C52   C     C_R   0.521156 0.811139 0.797872 -0.013249
C53   C     C_R   0.272252 0.227470 0.057611 0.408082
C54   C     C_R   0.333727 0.156834 0.145667 -0.066313
C55   C     C_R   0.491998 0.293174 0.174166 -0.020519
Cu1   Cu    Cu3+1 0.465900 0.918260 0.475680 1.004076
Cu2   Cu    Cu3+1 0.534100 0.081740 0.524320 1.186992
F1    F     F_    0.933388 0.179833 0.477622 -0.538436
F2    F     F_    0.174171 0.015778 0.655396 -0.549893
F3    F     F_    0.945159 0.019180 0.653950 -0.406689
F4    F     F_    0.637440 0.950228 0.843563 -0.530060
F5    F     F_    0.168621 0.193342 0.000729 -0.570029
F6    F     F_    0.208607 0.572176 0.843896 -0.587386
F7    F     F_    0.773212 0.137471 0.667053 -0.466333
F8    F     F_    0.157490 0.715147 0.268361 -0.609237
F9    F     F_    0.888766 0.862390 0.656067 -0.607589
H1    H     H_    0.051416 0.858020 0.472859 0.144124
H2    H     H_    0.722916 0.646985 0.508881 0.118869
H3    H     H_    0.848334 0.854867 0.483174 0.167050
H4    H     H_    0.148484 0.161184 0.479763 0.241518
H5    H     H_    0.108860 0.149616 0.360951 0.117345
H6    H     H_    0.893506 0.144384 0.355405 0.141721
H7    H     H_    0.156173 0.378329 0.904822 0.218962
H8    H     H_    0.616235 0.645494 0.167599 0.134753
H9    H     H_    0.294927 0.076769 0.168551 0.183907
H10   H     H_    0.547748 0.466377 0.218380 0.141359
H11   H     H_    0.251060 0.857508 0.335953 0.164269
H12   H     H_    0.216527 0.554728 0.288574 0.203509
H13   H     H_    0.851953 0.317624 0.664457 0.168997
H14   H     H_    0.414063 0.262444 0.479870 0.157399
N1    N     N_R   0.585360 0.204570 0.560800 -0.249870
N2    N     N_1   0.294741 0.346107 0.293097 -0.305702
N3    N     N_1   0.154901 0.770551 0.705781 -0.154654
N4    N     N_R   0.414550 0.795430 0.439160 -0.293165
N5    N     N_1   0.380168 0.621125 0.700675 -0.221246
N6    N     N_1   0.730687 0.340038 0.252620 -0.231062
N7    N     N_1   0.076169 0.004409 0.248057 -0.222449
N8    N     N_1   0.719727 0.868476 0.103816 -0.184362
N9    N     N_1   0.985720 0.528919 0.641840 -0.183797
N10   N     N_1   0.667990 0.711500 0.636788 -0.200149
N11   N     N_1   0.734361 0.984061 0.257904 -0.214304
O1    O     O_R   0.455060 0.022100 0.338110 -0.517333
O2    O     O_R   0.512640 0.160150 0.379180 -0.514321
O3    O     O_R   0.288900 0.930980 0.479450 -0.535133
O4    O     O_R   0.346480 0.069030 0.520520 -0.483654
O5    O     O_R   0.487360 0.839850 0.620820 -0.511695
O6    O     O_R   0.544940 0.977900 0.661890 -0.374690
O7    O     O_R   0.653520 0.930970 0.479480 -0.522350
O8    O     O_R   0.711100 0.069020 0.520550 -0.361424

loop_
_geom_bond_atom_site_label_1
_geom_bond_atom_site_label_2
_ccdc_geom_bond_type
C39   C51   S    
C40   H5    S    
C51   N3    T    
C11   C13   A    
Cu1   O7    S    
C33   F8    S    
C7    C8    A    
C39   C41   S    
C38   C49   S    
C53   C54   A    
Cu1   O3    S    
C12   C23   S    
C26   C27   A    
C37   C38   S    
C40   H4    S    
C12   C28   S    
C34   C40   S    
C32   C36   A    
C23   F9    S    
C2    C55   A    
C30   C31   A    
C11   C14   A    
C16   O6    A    
C4    C41   S    
C28   O7    A    
Cu2   O8    S    
Cu1   Cu2   S    
C18   C19   A    
C24   C29   A    
C17   C42   S    
C18   H13   S    
C31   C33   A    
C10   H8    S    
C9    H10   S    
C44   N7    T    
C9    C10   A    
C25   C32   A    
C38   H3    S    
Cu2   O6    S    
Cu2   O2    S    
C21   C22   A    
C12   C38   S    
C47   N9    T    
C49   N11   T    
C17   C52   A    
Cu1   N4    S    
C46   N8    T    
C29   C50   S    
C23   F3    S    
C16   O5    A    
C20   H14   S    
C24   C25   A    
C14   C46   S    
C3    C8    A    
C25   C26   A    
C35   H11   S    
C5    C9    A    
C29   C30   A    
C4    O4    A    
C53   F5    S    
C31   C32   A    
C19   F7    S    
C39   F2    S    
C15   F4    S    
C42   N5    T    
C15   C52   A    
C7    F6    S    
C4    O3    A    
C28   O8    A    
C43   C55   S    
C40   C41   S    
C45   C54   A    
C1    O1    A    
C22   C27   A    
Cu2   N1    S    
C2    C5    A    
C12   C34   S    
C34   H6    S    
C50   N2    T    
C27   C47   S    
Cu1   O5    S    
C18   C22   A    
C43   N6    T    
C16   C52   S    
C35   N4    A    
C6    C7    A    
C13   C17   A    
C26   H2    S    
C37   C44   S    
C2    C3    A    
C19   N1    A    
C6    C13   A    
C3    C53   A    
C1    C45   S    
C5    C6    A    
C36   N4    A    
C23   C39   S    
C37   H1    S    
C8    H7    S    
C33   C35   A    
C36   C48   S    
C37   C41   S    
C10   C11   A    
C54   H9    S    
C30   H12   S    
Cu1   O1    S    
C20   C21   A    
C45   C55   A    
C1    O2    A    
Cu2   O4    S    
C21   C24   A    
C34   F1    S    
C14   C15   A    
C48   N10   T    
C20   N1    A    
