data_mof_unit_6454.cif
_audit_creation_date              2012-12-10T18:06:37-0500
_audit_creation_method            fapswitch 2.2
_symmetry_space_group_name_H-M    P1
_symmetry_Int_Tables_number       1
_space_group_crystal_system       triclinic
_cell_length_a                    12.597526
_cell_length_b                    13.156726
_cell_length_c                    15.465362
_cell_angle_alpha                 83.375238
_cell_angle_beta                  98.636123
_cell_angle_gamma                 96.787063
_cell_volume                      2503.96958837

loop_
_atom_site_label
_atom_site_type_symbol
_atom_type_description
_atom_site_fract_x
_atom_site_fract_y
_atom_site_fract_z
_atom_type_partial_charge
C1    C     C_R   0.444694 0.308167 0.512975 0.850278
C2    C     C_R   0.644886 0.401302 0.938096 0.178854
C3    C     C_R   0.539178 0.425266 0.903127 0.090801
C4    C     C_R   0.434606 0.509898 0.336243 0.870581
C5    C     C_R   0.723131 0.402104 0.882228 -0.205309
C6    C     C_R   0.698407 0.430531 0.792406 -0.204893
C7    C     C_R   0.517674 0.457114 0.813730 -0.259957
C8    C     C_R   0.728515 0.926521 0.563559 -0.200394
C9    C     C_R   0.595509 0.798455 0.500225 -0.049091
C10   C     C_R   0.300903 0.164614 0.499527 -0.188990
C11   C     C_R   0.268719 0.061122 0.492244 -0.148478
C12   C     C_R   0.423215 0.447568 0.105038 0.092101
C13   C     C_R   0.345854 0.991824 0.501930 -0.190859
C14   C     C_R   0.457103 0.024988 0.523286 0.085528
C15   C     C_R   0.487196 0.126659 0.544173 0.082957
C16   C     C_R   0.557174 0.691399 0.491710 0.865701
C17   C     C_R   0.539552 0.960710 0.524507 0.078242
C18   C     C_R   0.647496 0.992086 0.560039 0.174638
C19   C     C_R   0.672421 0.087592 0.592656 -0.252002
C20   C     C_R   0.593286 0.154292 0.584855 -0.197031
C21   C     C_R   0.517667 0.866668 0.489434 -0.257483
C22   C     C_R   0.702163 0.828868 0.535036 -0.203129
C23   C     C_R   0.313865 0.458786 0.071147 0.177911
C24   C     C_R   0.410350 0.198320 0.522670 -0.110114
C25   C     C_R   0.138223 0.641614 0.622218 -0.312801
C26   C     C_R   0.757503 0.379847 0.396240 0.020439
C27   C     C_R   0.852886 0.354069 0.374229 -0.255753
C28   C     C_R   0.563661 0.484509 0.664077 0.850528
C29   C     C_R   0.950658 0.399480 0.413771 -0.198852
C30   C     C_R   0.952842 0.471247 0.475768 0.017290
C31   C     C_R   0.853395 0.494635 0.495840 0.236560
C32   C     C_R   0.048991 0.520648 0.518335 -0.012746
C33   C     C_R   0.043905 0.592018 0.579806 0.198721
C34   C     C_R   0.494099 0.420364 0.050774 0.070129
C35   C     C_R   0.944832 0.613240 0.598253 -0.301577
C36   C     C_R   0.850877 0.565025 0.556680 -0.225277
C37   C     C_R   0.150884 0.502398 0.502432 -0.057927
C38   C     C_R   0.236525 0.620079 0.603380 0.005218
C39   C     C_R   0.391514 0.498358 0.244333 -0.059626
C40   C     C_R   0.595620 0.459429 0.758214 -0.055935
C41   C     C_R   0.243590 0.485273 0.125319 -0.206238
C42   C     C_R   0.282094 0.504185 0.211958 -0.198249
C43   C     C_R   0.460845 0.471575 0.190388 -0.262617
C44   C     C_R   0.460313 0.424858 0.959367 0.068445
C45   C     C_R   0.349594 0.431119 0.927418 -0.230913
C46   C     C_R   0.277113 0.445741 0.983214 -0.238810
C47   C     C_R   0.598118 0.390929 0.084454 -0.229027
C48   C     C_R   0.671581 0.379566 0.028502 -0.237600
H1    H     H_    0.193145 0.451433 0.956570 0.145025
H2    H     H_    0.310938 0.657353 0.635242 0.138493
H3    H     H_    0.440959 0.484128 0.786675 0.162425
H4    H     H_    0.939840 0.667455 0.644896 0.152895
H5    H     H_    0.135849 0.696176 0.669150 0.145168
H6    H     H_    0.163496 0.449959 0.457348 0.122334
H7    H     H_    0.680869 0.345096 0.365914 0.137914
H8    H     H_    0.022381 0.376881 0.394398 0.133178
H9    H     H_    0.851111 0.299273 0.326781 0.147992
H10   H     H_    0.777258 0.584552 0.573296 0.213344
H11   H     H_    0.759529 0.430458 0.750076 0.162553
H12   H     H_    0.803672 0.382302 0.908185 0.134448
H13   H     H_    0.751099 0.358398 0.056329 0.143613
H14   H     H_    0.159374 0.492289 0.100438 0.134903
H15   H     H_    0.226617 0.523278 0.253294 0.157669
H16   H     H_    0.545611 0.472842 0.215099 0.161840
H17   H     H_    0.316637 0.422890 0.859709 0.150801
H18   H     H_    0.623873 0.374390 0.153961 0.143391
H19   H     H_    0.315976 0.912575 0.494544 0.134852
H20   H     H_    0.763427 0.775993 0.544041 0.151474
H21   H     H_    0.753537 0.111561 0.622727 0.149599
H22   H     H_    0.810963 0.949264 0.591275 0.135487
H23   H     H_    0.438913 0.842720 0.455692 0.149758
H24   H     H_    0.240534 0.218631 0.484542 0.152244
H25   H     H_    0.184095 0.035108 0.475432 0.142519
H26   H     H_    0.615798 0.227176 0.612087 0.172664
N1    N     N_R   0.239390 0.551900 0.544730 -0.102848
N2    N     N_R   0.759950 0.448600 0.455730 -0.131175
O1    O     O_R   0.374950 0.371210 0.521360 -0.613700
O2    O     O_R   0.542050 0.338030 0.492790 -0.616005
O3    O     O_R   0.368720 0.526070 0.390200 -0.616644
O4    O     O_R   0.535820 0.492890 0.361630 -0.618119
O5    O     O_R   0.457950 0.661970 0.507210 -0.611871
O6    O     O_R   0.625050 0.628790 0.478640 -0.629367
O7    O     O_R   0.464180 0.507110 0.638370 -0.615651
O8    O     O_R   0.631280 0.473930 0.609800 -0.643168
Zn1   Zn    Zn3+2 0.388420 0.522150 0.519080 0.934801
Zn2   Zn    Zn3+2 0.611580 0.477850 0.480920 0.923920

loop_
_geom_bond_atom_site_label_1
_geom_bond_atom_site_label_2
_ccdc_geom_bond_type
C28   O8    A    
C1    O1    A    
C41   C42   A    
C19   C20   A    
C26   H7    S    
C48   H13   S    
C45   C46   A    
C46   H1    S    
C26   C27   A    
C21   H23   S    
C9    C16   S    
O8    Zn2   S    
C4    O4    A    
C12   C43   A    
C3    C7    A    
C30   C31   A    
C9    C22   A    
C27   C29   A    
C28   C40   S    
C18   C19   A    
O4    Zn2   S    
N1    Zn1   S    
C35   C36   A    
C26   N2    A    
C7    C40   A    
C47   H18   S    
O2    Zn2   S    
C37   N1    A    
O1    Zn1   S    
C23   C46   A    
C13   C14   A    
C28   O7    A    
C1    O2    A    
C14   C17   A    
C41   H14   S    
C43   H16   S    
C39   C42   A    
C38   N1    A    
C15   C20   A    
C3    C44   A    
C34   C44   A    
C4    O3    A    
C27   H9    S    
C39   C43   A    
C10   C24   A    
O6    Zn2   S    
C17   C21   A    
C29   C30   A    
C25   C38   A    
C8    C22   A    
C47   C48   A    
C12   C23   A    
C4    C39   S    
C16   O6    A    
C17   C18   A    
C20   H26   S    
C32   C37   A    
C22   H20   S    
C37   H6    S    
C15   C24   A    
O7    Zn1   S    
C45   H17   S    
C6    C40   A    
C19   H21   S    
C2    C5    A    
C12   C34   A    
N2    Zn2   S    
O3    Zn1   S    
C44   C45   A    
C13   H19   S    
C5    H12   S    
C31   C36   A    
C8    H22   S    
C6    H11   S    
C25   H5    S    
C38   H2    S    
C29   H8    S    
C8    C18   A    
C36   H10   S    
C23   C41   A    
C2    C48   A    
C32   C33   A    
C2    C3    A    
C7    H3    S    
C30   C32   A    
C11   C13   A    
C9    C21   A    
C31   N2    A    
C5    C6    A    
C16   O5    A    
C33   C35   A    
C11   H25   S    
C10   C11   A    
C1    C24   S    
C35   H4    S    
C14   C15   A    
C34   C47   A    
C42   H15   S    
O5    Zn1   S    
C25   C33   A    
C10   H24   S    
