data_mof_unit_56064.cif
_audit_creation_date              2013-03-05T15:50:48-0500
_audit_creation_method            fapswitch 2.2
_symmetry_space_group_name_H-M    P1
_symmetry_Int_Tables_number       1
_space_group_crystal_system       triclinic
_cell_length_a                    14.242318
_cell_length_b                    14.815847
_cell_length_c                    33.312882
_cell_angle_alpha                 97.534663
_cell_angle_beta                  90.627276
_cell_angle_gamma                 118.732571
_cell_volume                      6088.51585993

loop_
_atom_site_label
_atom_site_type_symbol
_atom_site_description
_atom_site_fract_x
_atom_site_fract_y
_atom_site_fract_z
_atom_type_partial_charge
O1    O     O_R   0.318160 0.824460 0.443680 -0.469042
O2    O     O_R   0.525040 0.857250 0.449830 -0.450744
C1    C     C_R   0.616959 0.910650 0.436798 0.560821
O3    O     O_R   0.684760 0.998800 0.456360 -0.531012
O4    O     O_R   0.647540 0.166310 0.470260 -0.511067
C2    C     C_R   0.595046 0.207562 0.457142 0.566612
O5    O     O_R   0.500960 0.181750 0.467450 -0.467985
O6    O     O_R   0.331100 0.981120 0.457080 -0.510171
C3    C     C_R   0.294547 0.892656 0.434634 0.571647
O7    O     O_R   0.315560 0.821140 0.532010 -0.500316
O8    O     O_R   0.522630 0.854180 0.531710 -0.499707
C4    C     C_R   0.613560 0.905558 0.551927 0.546925
O9    O     O_R   0.682160 0.995480 0.544690 -0.509778
O10   O     O_R   0.645130 0.163230 0.552140 -0.511460
C5    C     C_R   0.591523 0.202037 0.570128 0.576591
O11   O     O_R   0.498360 0.178430 0.555780 -0.456290
O12   O     O_R   0.328690 0.978040 0.538950 -0.504000
C6    C     C_R   0.290765 0.887695 0.549093 0.551253
Cr1   Cr    Cr6+3 0.424820 0.846020 0.489780 1.088380
Cr2   Cr    Cr6+3 0.657880 0.078580 0.505700 1.029800
Cr3   Cr    Cr6+3 0.417280 0.075360 0.504550 1.090361
O13   O     O_3   0.499990 0.999990 0.500010 -0.270664
C7    C     C_R   0.736696 0.443076 0.104818 -0.055800
C8    C     C_R   0.643738 0.414413 0.126481 0.159403
C9    C     C_R   0.650024 0.408052 0.167755 -0.155404
C10   C     C_R   0.745408 0.426326 0.187766 -0.055720
C11   C     C_R   0.836096 0.447342 0.166241 0.262874
C12   C     C_R   0.830076 0.450079 0.124213 0.165399
C13   C     C_R   0.707326 0.310479 0.239278 -0.074568
C14   C     C_R   0.696742 0.291957 0.279833 0.317671
C15   C     C_R   0.721596 0.376538 0.310917 0.127997
C16   C     C_R   0.760279 0.477379 0.301665 -0.110628
C17   C     C_R   0.770325 0.494351 0.261447 -0.129782
C18   C     C_R   0.744261 0.411050 0.230290 0.020690
C19   C     C_R   0.617962 0.362795 0.371766 0.237312
C20   C     C_R   0.585572 0.321940 0.408117 0.149855
C21   C     C_R   0.734453 0.284925 0.409544 -0.160222
C22   C     C_R   0.765604 0.322960 0.372712 0.280016
C23   C     C_R   0.704009 0.357734 0.353194 0.059677
C24   C     C_R   0.640037 0.275862 0.425671 -0.062960
H1    H     H_    0.683313 0.246832 0.214416 0.110505
H2    H     H_    0.579046 0.386152 0.184325 0.181349
H3    H     H_    0.781270 0.542602 0.325521 0.124191
H4    H     H_    0.797088 0.572051 0.254511 0.117363
H5    H     H_    0.781009 0.257159 0.424590 0.144051
H6    H     H_    0.247230 0.775157 0.174825 0.140268
H7    H     H_    0.106949 0.702866 0.308727 0.147115
C25   C     C_R   0.245152 0.880362 0.393539 0.000435
C26   C     C_R   0.280707 0.971281 0.375666 -0.160985
C27   C     C_R   0.257242 0.965391 0.334533 -0.114648
C28   C     C_R   0.197543 0.868726 0.310322 -0.008331
C29   C     C_R   0.155924 0.777409 0.327767 -0.106062
C30   C     C_R   0.177564 0.781950 0.369616 0.184566
C31   C     C_R   0.203469 0.808992 0.162023 -0.101159
C32   C     C_R   0.180851 0.794023 0.119559 0.295899
C33   C     C_R   0.080591 0.888623 0.130746 -0.168188
C34   C     C_R   0.105941 0.905035 0.172523 -0.123591
C35   C     C_R   0.163271 0.861343 0.188238 -0.019672
C36   C     C_1   0.174369 0.863587 0.231269 -0.019622
C37   C     C_1   0.183318 0.864556 0.267290 -0.014491
C38   C     C_R   0.111833 0.827768 0.104228 0.030458
H8    H     H_    0.332533 0.047635 0.392985 0.162900
H9    H     H_    0.075274 0.946449 0.192686 0.144273
H10   H     H_    0.028578 0.915872 0.119600 0.196942
H11   H     H_    0.289264 0.036447 0.321300 0.152608
H12   H     H_    0.827172 0.983642 0.195681 0.123602
H13   H     H_    0.804918 0.002400 0.323721 0.106044
H14   H     H_    0.788680 0.024976 0.396466 0.136447
C39   C     C_R   0.637801 0.880901 0.394847 0.040746
C40   C     C_R   0.560663 0.789576 0.369377 0.251918
C41   C     C_R   0.572855 0.777275 0.327320 -0.093957
C42   C     C_R   0.658231 0.855657 0.310804 -0.007744
C43   C     C_R   0.737590 0.942142 0.336263 -0.151010
C44   C     C_R   0.728073 0.954341 0.377902 -0.171073
C45   C     C_R   0.765883 0.920233 0.174264 -0.153972
C46   C     C_R   0.785579 0.910203 0.133206 0.249063
C47   C     C_R   0.613245 0.751596 0.119718 -0.169184
C48   C     C_R   0.591283 0.763757 0.160452 0.201699
C49   C     C_R   0.671661 0.845934 0.188216 -0.024852
C50   C     C_1   0.665322 0.848913 0.231404 0.035899
C51   C     C_1   0.661813 0.850817 0.267569 0.003113
C52   C     C_R   0.712170 0.820666 0.106208 -0.019255
H15   H     H_    0.554347 0.685233 0.098732 0.182620
H16   H     H_    0.514651 0.708139 0.307338 0.141013
H17   H     H_    0.848711 0.412841 0.900328 0.151604
H18   H     H_    0.762098 0.247058 0.694487 0.134048
H19   H     H_    0.725920 0.185311 0.621736 0.142119
C53   C     C_R   0.630942 0.260515 0.611380 0.009692
C54   C     C_R   0.593295 0.327680 0.629656 0.195019
C55   C     C_R   0.613514 0.360756 0.671749 -0.091122
C56   C     C_R   0.672399 0.330092 0.694914 -0.013153
C57   C     C_R   0.716367 0.270821 0.676478 -0.126941
C58   C     C_R   0.696133 0.236473 0.634931 -0.158667
C59   C     C_R   0.771169 0.380438 0.840632 0.256898
C60   C     C_R   0.782686 0.410168 0.882806 -0.113392
C61   C     C_R   0.627720 0.436739 0.878286 -0.131497
C62   C     C_R   0.618837 0.411585 0.836255 -0.142006
C63   C     C_R   0.691716 0.385854 0.817482 0.017645
C64   C     C_1   0.686112 0.367801 0.774289 0.010570
C65   C     C_1   0.680989 0.352378 0.738022 -0.011856
C66   C     C_R   0.711088 0.438635 0.901818 -0.029354
H20   H     H_    0.556713 0.414524 0.818312 0.199106
H21   H     H_    0.571915 0.458533 0.892291 0.163826
H22   H     H_    0.582172 0.409119 0.686552 0.174065
C67   C     C_R   0.077504 0.759909 0.911088 -0.019542
C68   C     C_R   0.133591 0.864317 0.905172 -0.109542
C69   C     C_R   0.169633 0.888838 0.867383 -0.098321
C70   C     C_R   0.146488 0.808918 0.834930 0.052768
C71   C     C_R   0.093920 0.704043 0.841148 0.294711
C72   C     C_R   0.062531 0.680450 0.879627 -0.088436
C73   C     C_R   0.234565 0.805660 0.772263 -0.103970
C74   C     C_R   0.243528 0.813303 0.731297 -0.098759
C75   C     C_R   0.184328 0.849438 0.711179 -0.022747
C76   C     C_R   0.120033 0.882705 0.732859 -0.102579
C77   C     C_R   0.108723 0.874022 0.774059 0.198507
C78   C     C_R   0.165760 0.833282 0.793647 0.009043
C79   C     C_R   0.207930 0.941386 0.651694 -0.106535
C80   C     C_R   0.230595 0.949450 0.611390 -0.115955
C81   C     C_R   0.206798 0.774242 0.601256 -0.102504
C82   C     C_R   0.184304 0.766350 0.641514 -0.098796
C83   C     C_R   0.189774 0.851652 0.667395 0.029389
C84   C     C_R   0.235737 0.867918 0.586508 0.018764
H23   H     H_    0.146137 0.926470 0.929368 0.147257
H24   H     H_    0.019091 0.599502 0.883890 0.152847
H25   H     H_    0.167533 0.695382 0.652965 0.142255
H26   H     H_    0.295803 0.789797 0.715150 0.182161
H27   H     H_    0.278801 0.774998 0.787104 0.166231
H28   H     H_    0.209700 0.969529 0.862720 0.151155
H29   H     H_    0.074164 0.910296 0.717129 0.150214
H30   H     H_    0.211772 0.007773 0.671222 0.134533
H31   H     H_    0.252026 0.022409 0.600742 0.152919
H32   H     H_    0.208884 0.709689 0.582615 0.158236
C85   C     C_R   0.658790 0.747358 0.912884 -0.069820
C86   C     C_R   0.567514 0.661269 0.891738 -0.141937
C87   C     C_R   0.532714 0.662917 0.852251 0.206608
C88   C     C_R   0.592387 0.752789 0.833715 -0.008600
C89   C     C_R   0.679442 0.842451 0.856396 0.169557
C90   C     C_R   0.709890 0.839128 0.895814 -0.094099
C91   C     C_R   0.546525 0.823290 0.777448 -0.083067
C92   C     C_R   0.556038 0.843286 0.737138 0.290794
C93   C     C_R   0.587355 0.785655 0.708781 0.039279
C94   C     C_R   0.607024 0.708478 0.720551 -0.072581
C95   C     C_R   0.602190 0.692074 0.761071 0.324493
C96   C     C_R   0.573993 0.751549 0.789867 0.072634
C97   C     C_R   0.538365 0.735023 0.633065 0.209572
C98   C     C_R   0.552917 0.764837 0.594395 -0.096363
C99   C     C_R   0.695407 0.937161 0.622435 -0.136880
C100  C     C_R   0.683795 0.907838 0.660956 -0.119241
C101  C     C_R   0.603144 0.808683 0.666891 0.040637
C102  C     C_R   0.626858 0.867256 0.589120 -0.019249
H33   H     H_    0.524956 0.591840 0.905604 0.164272
H34   H     H_    0.779517 0.907049 0.912021 0.194045
H35   H     H_    0.734925 0.964280 0.686624 0.142409
H36   H     H_    0.522387 0.866562 0.799704 0.115083
H37   H     H_    0.629292 0.663062 0.698478 0.143364
H38   H     H_    0.499536 0.710304 0.568769 0.169995
H39   H     H_    0.752718 0.016608 0.619313 0.138377
O14   O     O_R   0.828710 0.851830 0.052170 -0.455840
O15   O     O_R   0.005980 0.823990 0.047210 -0.511092
C103  C     C_R   0.053085 0.781293 0.063577 0.561809
O16   O     O_R   0.031900 0.688850 0.050170 -0.424038
O17   O     O_R   0.830940 0.518420 0.048680 -0.450700
C104  C     C_R   0.743206 0.484090 0.065810 0.587018
O18   O     O_R   0.668160 0.499860 0.053480 -0.446912
O19   O     O_R   0.689170 0.693840 0.050110 -0.510241
C105  C     C_R   0.742790 0.789153 0.066508 0.556084
O20   O     O_R   0.803860 0.812940 0.962540 -0.504114
O21   O     O_R   0.982950 0.787950 0.964120 -0.493675
C106  C     C_R   0.022841 0.732829 0.947957 0.531540
O22   O     O_R   0.007050 0.649970 0.960540 -0.517014
O23   O     O_R   0.807910 0.482370 0.965590 -0.490867
C107  C     C_R   0.728619 0.480539 0.945252 0.550907
O24   O     O_R   0.643310 0.460980 0.963840 -0.485315
O25   O     O_R   0.666140 0.657800 0.967020 -0.518500
C108  C     C_R   0.710074 0.739898 0.950208 0.538203
Cr4   Cr    Cr6+3 0.903360 0.812540 0.006510 1.056749
Cr5   Cr    Cr6+3 0.914630 0.587050 0.006280 1.127047
Cr6   Cr    Cr6+3 0.673560 0.582680 0.008540 1.079348
O26   O     O_3   0.830520 0.660760 0.007110 -0.298877
N1    N     N_R   0.541340 0.387274 0.106796 0.106513
O27   O     O_R   0.506323 0.323251 0.072621 -0.292232
O28   O     O_R   0.475529 0.411342 0.126103 -0.272301
N2    N     N_R   0.495223 0.325034 0.425380 -0.199483
O29   O     O_R   0.502811 0.366968 0.462953 -0.000009
O30   O     O_R   0.502811 0.366972 0.462953 -0.000009
O31   O     O_3   0.927025 0.454478 0.185102 -0.516574
C109  C     C_3   0.994886 0.558739 0.203424 -0.054519
H40   H     H_    0.967803 0.575221 0.233201 0.106872
H41   H     H_    0.001203 0.616665 0.183856 0.127482
H42   H     H_    0.076970 0.570017 0.209204 0.176802
O32   O     O_3   0.213361 0.735907 0.092920 -0.510724
C110  C     C_3   0.323433 0.768264 0.101087 -0.079848
H43   H     H_    0.334982 0.730407 0.125904 0.178528
H44   H     H_    0.373563 0.854643 0.108290 0.099389
H45   H     H_    0.352545 0.742411 0.073524 0.158298
N3    N     N_R   0.129515 0.687388 0.387128 0.068425
O33   O     O_R   0.102164 0.688491 0.424260 -0.308909
O34   O     O_R   0.098626 0.597886 0.364384 -0.336447
N4    N     N_R   0.916430 0.454325 0.101141 0.118834
O35   O     O_R   0.896243 0.383678 0.069671 -0.308383
O36   O     O_R   0.015711 0.523047 0.113087 -0.270502
O37   O     O_3   0.883035 0.980439 0.120999 -0.564739
C111  C     C_3   0.880643 0.073135 0.117520 -0.073082
H46   H     H_    0.875690 0.112529 0.147608 0.121828
H47   H     H_    0.813099 0.058270 0.095704 0.133030
H48   H     H_    0.956510 0.127297 0.105542 0.181196
O38   O     O_3   0.477231 0.711911 0.386335 -0.569713
C112  C     C_3   0.377092 0.688322 0.367523 -0.057174
H49   H     H_    0.373669 0.759568 0.362385 0.118629
H50   H     H_    0.314018 0.648129 0.387939 0.205673
H51   H     H_    0.357546 0.633898 0.338564 0.129908
N5    N     N_R   0.489856 0.689992 0.173255 0.077023
O39   O     O_R   0.449292 0.716959 0.204362 -0.355924
O40   O     O_R   0.432097 0.598738 0.151407 -0.278172
O41   O     O_3   0.857056 0.330515 0.355222 -0.516299
C113  C     C_3   0.867976 0.241257 0.356981 -0.091247
H52   H     H_    0.789438 0.167900 0.351701 0.115419
H53   H     H_    0.910314 0.248754 0.386439 0.128496
H54   H     H_    0.918259 0.235659 0.332625 0.145412
O42   O     O_3   0.843745 0.356138 0.821578 -0.573468
C114  C     C_3   0.820417 0.255485 0.827956 -0.055228
H55   H     H_    0.735359 0.196798 0.817648 0.111510
H56   H     H_    0.838508 0.254315 0.860397 0.162974
H57   H     H_    0.872290 0.232365 0.809727 0.189245
N6    N     N_R   0.534962 0.362430 0.606227 0.090281
O43   O     O_R   0.462781 0.382016 0.622515 -0.265232
O44   O     O_R   0.563567 0.387948 0.570646 -0.294735
O45   O     O_3   0.651816 0.192109 0.290118 -0.567032
C115  C     C_3   0.687610 0.129485 0.266893 -0.123054
H58   H     H_    0.775116 0.173056 0.262822 0.120136
H59   H     H_    0.639457 0.094168 0.237099 0.127630
H60   H     H_    0.674429 0.064439 0.283295 0.145207
N7    N     N_R   0.035592 0.901901 0.794531 0.072533
O46   O     O_R   0.974843 0.846806 0.820591 -0.367669
O47   O     O_R   0.019789 0.974888 0.783434 -0.281479
O48   O     O_3   0.071038 0.624010 0.809569 -0.535469
C116  C     C_3   0.967830 0.590517 0.790910 -0.063127
H61   H     H_    0.967860 0.650227 0.773906 0.116278
H62   H     H_    0.906161 0.571006 0.813292 0.121667
H63   H     H_    0.944314 0.518969 0.768714 0.182222
O49   O     O_3   0.528963 0.913606 0.723938 -0.569931
C117  C     C_3   0.586589 0.012452 0.748276 -0.122682
H64   H     H_    0.672400 0.035023 0.755503 0.136885
H65   H     H_    0.546925 0.015259 0.776566 0.126521
H66   H     H_    0.585856 0.071555 0.731171 0.150082
N8    N     N_R   0.438787 0.572753 0.831276 0.113909
O50   O     O_R   0.405535 0.481901 0.842363 -0.328558
O51   O     O_R   0.379806 0.582284 0.803814 -0.283355
O52   O     O_3   0.622106 0.615841 0.772294 -0.554871
C118  C     C_3   0.734072 0.656591 0.778465 -0.103463
H67   H     H_    0.769609 0.724077 0.803456 0.196093
H68   H     H_    0.774191 0.678798 0.750123 0.127061
H69   H     H_    0.749756 0.595567 0.787696 0.127492
N9    N     N_R   0.452956 0.633168 0.637476 0.079957
O53   O     O_R   0.421597 0.556387 0.607520 -0.261500
O54   O     O_R   0.396252 0.619792 0.668720 -0.305150
N10   N     N_R   0.743082 0.935292 0.839017 0.071165
O55   O     O_R   0.776873 0.026320 0.860919 -0.355672
O56   O     O_R   0.782311 0.929700 0.804257 -0.317486
O57   O     O_3   0.558443 0.397348 0.351754 -0.551728
C119  C     C_3   0.585442 0.498980 0.370482 -0.078534
H70   H     H_    0.673419 0.549936 0.378510 0.097115
H71   H     H_    0.541486 0.496431 0.397977 0.177176
H72   H     H_    0.560150 0.535794 0.348884 0.160844

loop_
_geom_bond_atom_site_label_1
_geom_bond_atom_site_label_2
_geom_bond_distance
_ccdc_geom_bond_type
O6    C3    1.275315 A    
O23   C107  1.297696 A    
O11   Cr3   2.038616 S    
C33   C38   1.405965 A    
H17   C60   1.082883 S    
C43   C44   1.391774 A    
C31   C32   1.411779 A    
C67   C68   1.401845 A    
C73   C74   1.386350 A    
C113  H54   1.109154 S    
C22   O41   1.393575 S    
C67   C72   1.400002 A    
C76   C77   1.399063 A    
C55   C56   1.396196 A    
C93   C101  1.473867 S    
C87   C88   1.419756 A    
O4    Cr2   1.920324 S    
C47   C48   1.403924 A    
C33   C34   1.393643 A    
C4    O9    1.274971 A    
C111  H47   1.114039 S    
O8    Cr1   1.912443 S    
C10   C11   1.404117 A    
O19   C105  1.275728 A    
C67   C106  1.457888 S    
C16   H3    1.081836 S    
O4    C2    1.275029 A    
C81   H32   1.083147 S    
Cr3   O13   1.970224 S    
C1    C39   1.486187 S    
C21   C22   1.404544 A    
C113  H53   1.110404 S    
C69   H28   1.083393 S    
O49   C117  1.412128 S    
C114  H57   1.109283 S    
N2    O30   1.301134 A    
C97   C98   1.401656 A    
C14   C15   1.411766 A    
C88   C96   1.477353 S    
C46   O37   1.381811 S    
C68   C69   1.391064 A    
C59   C63   1.402183 A    
H14   C44   1.082964 S    
C5    O11   1.267842 A    
C62   C63   1.394979 A    
C70   C71   1.409655 A    
C66   C107  1.465885 S    
N10   O55   1.301174 A    
C106  O22   1.266858 A    
C79   C83   1.400992 A    
O25   C108  1.280339 A    
O45   C115  1.412265 S    
O17   Cr5   1.923005 S    
N9    O54   1.301328 A    
C80   H31   1.083127 S    
C5    C53   1.468862 S    
C72   H24   1.083751 S    
C98   C102  1.407148 A    
C10   C18   1.462598 S    
Cr4   O26   1.975552 S    
C99   C100  1.394481 A    
C15   C23   1.472228 S    
C112  H49   1.114704 S    
C109  H42   1.109292 S    
C68   H23   1.083320 S    
C8    N1    1.436922 S    
N1    O27   1.301590 A    
C117  H65   1.110406 S    
C69   C70   1.400255 A    
C33   H10   1.081874 S    
C8    C9    1.395280 A    
C40   C41   1.412467 A    
H13   C43   1.083800 S    
C110  H43   1.110153 S    
C56   C65   1.421008 S    
N7    O46   1.300691 A    
O25   Cr6   1.917433 S    
C74   H26   1.083440 S    
C42   C51   1.435357 S    
C49   C50   1.438779 S    
C42   C43   1.392920 A    
C118  H69   1.107909 S    
C47   C52   1.408293 A    
C85   C90   1.400760 A    
C36   C37   1.202817 T    
C61   C66   1.402477 A    
O19   Cr6   1.929412 S    
C87   N8    1.441847 S    
C39   C40   1.416692 A    
C74   C75   1.400840 A    
C9    C10   1.393688 A    
C115  H58   1.114226 S    
N1    O28   1.301439 A    
C34   H9    1.083707 S    
C7    C104  1.490635 S    
C25   C30   1.420125 A    
N6    O44   1.301489 A    
C111  H48   1.109257 S    
N8    O51   1.301385 A    
O1    Cr1   2.030232 S    
C12   N4    1.437456 S    
C52   C105  1.484473 S    
O37   C111  1.409739 S    
O22   Cr5   2.039616 S    
O38   C112  1.411639 S    
C117  H66   1.109556 S    
C110  H45   1.109295 S    
Cr6   O26   1.966799 S    
C20   C24   1.419041 A    
Cr1   O13   1.976416 S    
O1    C3    1.276368 A    
C92   C93   1.408630 A    
O10   Cr2   1.927576 S    
N3    O34   1.301675 A    
O48   C116  1.411061 S    
C116  H63   1.109184 S    
C38   C103  1.478084 S    
C46   C52   1.412379 A    
C56   C57   1.391443 A    
C119  H71   1.109580 S    
C53   C58   1.407060 A    
C48   C49   1.410585 A    
C50   C51   1.203519 T    
C91   H36   1.082456 S    
Cr5   O26   1.969517 S    
C40   O38   1.387718 S    
O5    Cr3   2.041916 S    
C13   C18   1.397670 A    
O17   C104  1.275292 A    
O12   Cr3   1.923561 S    
C28   C29   1.400782 A    
C16   C17   1.391641 A    
N10   O56   1.301314 A    
C19   C20   1.407705 A    
C32   O32   1.391112 S    
C41   H16   1.082689 S    
C19   C23   1.408202 A    
C45   C46   1.402420 A    
N2    O29   1.301113 A    
C13   C14   1.408947 A    
C4    C102  1.475002 S    
C114  H55   1.114159 S    
N7    O47   1.301419 A    
C91   C96   1.401969 A    
O15   C103  1.279852 A    
O10   C5    1.270534 A    
O7    Cr1   2.041789 S    
C7    C8    1.419402 A    
C113  H52   1.113588 S    
C61   C62   1.388975 A    
H6    C31   1.082704 S    
C59   O42   1.383171 S    
O12   C6    1.274783 A    
O52   C118  1.408661 S    
C75   C83   1.465316 S    
C39   C44   1.409799 A    
C27   C28   1.391343 A    
C20   N2    1.433397 S    
C7    C12   1.424056 A    
C53   C54   1.417629 A    
C79   H30   1.083194 S    
C85   C108  1.478324 S    
C55   H22   1.084228 S    
H7    C29   1.083765 S    
C6    C84   1.466296 S    
O14   Cr4   2.044778 S    
O21   C106  1.271655 A    
Cr2   O13   1.965660 S    
C26   C27   1.388346 A    
C27   H11   1.084033 S    
O15   Cr4   1.913399 S    
C116  H62   1.112510 S    
C73   H27   1.083976 S    
C85   C86   1.401132 A    
C94   H37   1.083753 S    
C76   H29   1.083469 S    
C2    C24   1.484312 S    
C97   N9    1.440746 S    
C35   C36   1.434735 S    
C86   H33   1.081728 S    
C100  H35   1.083571 S    
C32   C38   1.416169 A    
C21   H5    1.081258 S    
C1    O3    1.270154 A    
C99   H39   1.082963 S    
C48   N5    1.442542 S    
C99   C102  1.400068 A    
C77   N7    1.440787 S    
O18   Cr6   2.036260 S    
C107  O24   1.291754 A    
O14   C105  1.274554 A    
O20   C108  1.267151 A    
C75   C76   1.399341 A    
C31   C35   1.397220 A    
C81   C84   1.403824 A    
O32   C110  1.412572 S    
O21   Cr4   1.925865 S    
O57   C119  1.412848 S    
N8    O50   1.301490 A    
C25   C26   1.409454 A    
C26   H8    1.083574 S    
C95   O52   1.382858 S    
O9    Cr2   2.035036 S    
C13   H1    1.082159 S    
O2    Cr1   1.925499 S    
C94   C95   1.399240 A    
C17   H4    1.083389 S    
C19   O57   1.385427 S    
C15   C16   1.401360 A    
C62   H20   1.083670 S    
C54   N6    1.437669 S    
N3    O33   1.301329 A    
O6    Cr3   1.920288 S    
C9    H2    1.084297 S    
C119  H72   1.109553 S    
C81   C82   1.389022 A    
C2    O5    1.269483 A    
C89   N10   1.438891 S    
C21   C24   1.405708 A    
C89   C90   1.392770 A    
C86   C87   1.407974 A    
C79   C80   1.391267 A    
C64   C65   1.194501 T    
C73   C78   1.399870 A    
C90   H34   1.083462 S    
C103  O16   1.267166 A    
C70   C78   1.462907 S    
N9    O53   1.301334 A    
O2    C1    1.278657 A    
C118  H67   1.111258 S    
C117  H64   1.114874 S    
C41   C42   1.398002 A    
C114  H56   1.112535 S    
C112  H50   1.108794 S    
H18   C57   1.084147 S    
C93   C94   1.401010 A    
C92   O49   1.389311 S    
C91   C92   1.406807 A    
C34   C35   1.395510 A    
C22   C23   1.402729 A    
C45   C49   1.398622 A    
O24   Cr6   2.046717 S    
O7    C6    1.270009 A    
C112  H51   1.110241 S    
C80   C84   1.405483 A    
H12   C45   1.084299 S    
H19   C58   1.083346 S    
C57   C58   1.386782 A    
C82   H25   1.083443 S    
C14   O45   1.393876 S    
C17   C18   1.397647 A    
O42   C114  1.409842 S    
C100  C101  1.405490 A    
O41   C113  1.412201 S    
C59   C60   1.399278 A    
O16   Cr5   2.036757 S    
N4    O36   1.300640 A    
O31   C109  1.413230 S    
C109  H41   1.115038 S    
C104  O18   1.273322 A    
N5    O40   1.301486 A    
C115  H60   1.108581 S    
O3    Cr2   2.045642 S    
C71   O48   1.383012 S    
C60   C66   1.405860 A    
N4    O35   1.301396 A    
C98   H38   1.083462 S    
N5    O39   1.301417 A    
C3    C25   1.480703 S    
C115  H59   1.110455 S    
C63   C64   1.422772 S    
C61   H21   1.081204 S    
C71   C72   1.394618 A    
C11   C12   1.408840 A    
C119  H70   1.114321 S    
C30   N3    1.439732 S    
C47   H15   1.083073 S    
C82   C83   1.401700 A    
O23   Cr5   1.920962 S    
C109  H40   1.108062 S    
C28   C37   1.434657 S    
C111  H46   1.112647 S    
C77   C78   1.418858 A    
C54   C55   1.401623 A    
C116  H61   1.111098 S    
C118  H68   1.112955 S    
C11   O31   1.384266 S    
C97   C101  1.413736 A    
C88   C89   1.416173 A    
C95   C96   1.408873 A    
O8    C4    1.268397 A    
C29   C30   1.410349 A    
O20   Cr4   2.029454 S    
N6    O43   1.301230 A    
C110  H44   1.114631 S    
