data_mof_unit_19013.cif
_audit_creation_date              2012-12-10T20:48:18-0500
_audit_creation_method            fapswitch 2.2
_symmetry_space_group_name_H-M    P1
_symmetry_Int_Tables_number       1
_space_group_crystal_system       triclinic
_cell_length_a                    10.741314
_cell_length_b                    8.916563
_cell_length_c                    8.095677
_cell_angle_alpha                 90.161596
_cell_angle_beta                  90.241357
_cell_angle_gamma                 89.872054
_cell_volume                      775.356470239

loop_
_atom_site_label
_atom_site_type_symbol
_atom_type_description
_atom_site_fract_x
_atom_site_fract_y
_atom_site_fract_z
_atom_type_partial_charge
C1    C     C_R   0.499860 0.217972 0.499859 0.922181
C2    C     C_1   0.499804 0.934764 0.500206 -0.100712
C3    C     C_3   0.072424 0.673757 0.490451 -0.175105
C4    C     C_3   0.923037 0.668601 0.468388 -0.167672
C5    C     C_3   0.121228 0.502366 0.499911 -0.078191
C6    C     C_3   0.878335 0.499169 0.502119 -0.102833
C7    C     C_2   0.120550 0.265951 0.688334 0.415588
C8    C     C_2   0.138971 0.268269 0.300292 0.520280
C9    C     C_2   0.866505 0.309700 0.752628 0.502366
C10   C     C_2   0.882036 0.232062 0.370837 0.494527
C11   C     C_2   0.111811 0.768837 0.642343 0.445805
C12   C     C_R   0.257385 0.500767 0.499853 0.845531
C13   C     C_2   0.133180 0.758675 0.346809 0.285128
C14   C     C_2   0.860190 0.786524 0.581125 0.410112
C15   C     C_2   0.882946 0.713005 0.291318 0.459561
C16   C     C_R   0.742470 0.495825 0.500641 0.927659
C17   C     C_R   0.499837 0.781998 0.500143 0.970542
C18   C     C_1   0.499807 0.065201 0.499794 -0.105310
C19   C     C_3   0.073504 0.425753 0.663964 -0.244844
C20   C     C_3   0.070095 0.412174 0.344758 -0.347467
C21   C     C_3   0.931280 0.444125 0.674695 -0.304993
C22   C     C_3   0.927262 0.393245 0.359417 -0.275764
H1    H     H_    0.110873 0.486330 0.773104 0.245097
H2    H     H_    0.188112 0.701864 0.254007 0.136602
H3    H     H_    0.871044 0.904446 0.551519 0.086750
H4    H     H_    0.934205 0.672029 0.185197 0.082250
H5    H     H_    0.085873 0.483458 0.234618 0.165554
H6    H     H_    0.915970 0.536560 0.764498 0.242567
H7    H     H_    0.887960 0.431296 0.239277 0.213755
H8    H     H_    0.087164 0.174670 0.612749 0.018322
H9    H     H_    0.209036 0.220642 0.381432 0.046448
H10   H     H_    0.862375 0.202125 0.691218 0.021419
H11   H     H_    0.934405 0.147867 0.436858 0.041932
H12   H     H_    0.077634 0.882980 0.654074 0.094669
N1    N     N_1   0.500000 0.500030 0.073640 0.016378
N2    N     N_1   0.500000 0.500030 0.926360 0.032666
O1    O     O_R   0.500000 0.285340 0.636850 -0.607851
O2    O     O_2   0.117620 0.205555 0.168941 -0.454530
O3    O     O_2   0.818715 0.321344 0.888732 -0.503767
O4    O     O_2   0.786030 0.193922 0.301353 -0.503738
O5    O     O_2   0.186897 0.727335 0.745892 -0.564475
O6    O     O_2   0.116456 0.893426 0.329694 -0.560320
O7    O     O_2   0.799687 0.754755 0.703213 -0.552767
O8    O     O_2   0.792589 0.793273 0.264636 -0.515617
O9    O     O_R   0.500000 0.285340 0.363150 -0.591721
O10   O     O_R   0.314790 0.499970 0.636880 -0.558219
O11   O     O_R   0.314790 0.499970 0.363120 -0.677526
O12   O     O_R   0.685210 0.499970 0.636880 -0.577828
O13   O     O_R   0.685210 0.499970 0.363120 -0.597408
O14   O     O_R   0.500000 0.714650 0.636900 -0.582722
O15   O     O_R   0.500000 0.714650 0.363100 -0.604819
O16   O     O_2   0.195898 0.237617 0.797319 -0.488263
Zn1   Zn    Zn3+2 0.500000 0.499990 0.682780 1.121472
Zn2   Zn    Zn3+2 0.500000 0.499990 0.317220 1.079301

loop_
_geom_bond_atom_site_label_1
_geom_bond_atom_site_label_2
_ccdc_geom_bond_type
C17   O14   A    
C15   O8    D    
C19   H1    S    
C5    C19   S    
C20   H5    S    
C16   O13   A    
C2    C18   T    
N1    N2    T    
C3    C13   S    
C1    O1    A    
C7    O16   D    
O15   Zn2   S    
C9    C21   S    
C17   O15   A    
C4    C15   S    
O1    Zn1   S    
C7    H8    S    
C10   C22   S    
C2    C17   S    
C8    H9    S    
C1    O9    A    
C1    C18   S    
C8    C20   S    
C8    O2    D    
C12   O11   A    
O10   Zn1   S    
C10   O4    D    
C13   O6    D    
C22   H7    S    
C21   H6    S    
C20   C22   S    
O9    Zn2   S    
C11   O5    D    
C10   H11   S    
C7    C19   S    
O11   Zn2   S    
C14   H3    S    
C4    C14   S    
O12   Zn1   S    
O14   Zn1   S    
C3    C11   S    
C6    C16   S    
C3    C4    S    
C6    C22   S    
C3    C5    S    
C9    O3    D    
C16   O12   A    
C5    C12   S    
C4    C6    S    
C5    C20   S    
C15   H4    S    
N2    Zn1   S    
C9    H10   S    
C19   C21   S    
C6    C21   S    
C11   H12   S    
O13   Zn2   S    
C13   H2    S    
C14   O7    D    
N1    Zn2   S    
C12   O10   A    
