data_mof_unit_46261.cif
_audit_creation_date              2012-12-10T17:57:24-0500
_audit_creation_method            fapswitch 2.2
_symmetry_space_group_name_H-M    P1
_symmetry_Int_Tables_number       1
_space_group_crystal_system       triclinic
_cell_length_a                    9.652732
_cell_length_b                    10.758867
_cell_length_c                    13.403405
_cell_angle_alpha                 92.50291
_cell_angle_beta                  72.689717
_cell_angle_gamma                 90.21852
_cell_volume                      1327.6010709

loop_
_atom_site_label
_atom_site_type_symbol
_atom_type_description
_atom_site_fract_x
_atom_site_fract_y
_atom_site_fract_z
_atom_type_partial_charge
C1    C     C_R   0.499981 0.737345 0.500830 0.773090
C2    C     C_R   0.442458 0.504853 0.978706 0.129865
C3    C     C_R   0.465016 0.544021 0.875788 0.085013
C4    C     C_R   0.546613 0.535749 0.031851 0.081874
C5    C     C_R   0.647692 0.631247 0.993122 0.048786
C6    C     C_R   0.655186 0.683278 0.897107 -0.052997
C7    C     C_R   0.569149 0.635481 0.837686 -0.232245
C8    C     C_R   0.553743 0.475914 0.122544 -0.076325
C9    C     C_R   0.724071 0.632316 0.151045 -0.017420
C10   C     C_R   0.375837 0.497375 0.815956 -0.134270
C11   C     C_R   0.608560 0.933417 0.430793 -0.121985
C12   C     C_R   0.421710 0.502268 0.700427 0.765037
C13   C     C_R   0.606014 0.061866 0.431548 -0.087106
C14   C     C_R   0.496502 0.128946 0.506320 -0.109036
C15   C     C_R   0.387930 0.067085 0.582460 -0.019075
C16   C     C_R   0.390896 0.937189 0.579394 -0.074161
C17   C     C_R   0.499638 0.871303 0.503375 -0.063099
C18   C     C_R   0.906213 0.594248 0.550007 0.029950
C19   C     C_R   0.052521 0.591522 0.553927 0.066552
C20   C     C_R   0.096944 0.409869 0.444782 0.033401
C21   C     C_R   0.948101 0.408282 0.445883 0.061060
C22   C     C_R   0.498660 0.262875 0.502403 0.766358
C23   C     C_R   0.578436 0.507423 0.300827 0.740524
C24   C     C_R   0.739966 0.672982 0.050841 -0.106951
C25   C     C_R   0.624001 0.536029 0.189332 -0.196583
C26   C     C_R   0.247763 0.435086 0.866287 -0.173421
C27   C     C_R   0.211911 0.413324 0.973286 0.039427
C28   C     C_R   0.310449 0.445851 0.028247 -0.173067
Cu1   Cu    Cu3+1 0.359340 0.499980 0.500000 0.957461
Cu2   Cu    Cu3+1 0.640660 0.500020 0.500000 0.950843
H1    H     H_    0.687902 0.109024 0.372310 0.173474
H2    H     H_    0.311850 0.886943 0.638161 0.189128
H3    H     H_    0.819933 0.743392 0.020531 0.205063
H4    H     H_    0.176467 0.402476 0.821922 0.190016
H5    H     H_    0.280917 0.428778 0.110933 0.123082
H6    H     H_    0.573929 0.678454 0.765641 0.162299
H7    H     H_    0.693587 0.882798 0.372374 0.150802
N1    N     N_R   0.147940 0.499970 0.499970 -0.231997
N2    N     N_R   0.852060 0.500060 0.499990 -0.231669
O1    O     O_R   0.381250 0.680340 0.500010 -0.564102
O2    O     O_R   0.618820 0.680370 0.500010 -0.591597
O3    O     O_R   0.323240 0.499950 0.650980 -0.615311
O4    O     O_R   0.560810 0.499980 0.650980 -0.561694
O5    O     O_R   0.381180 0.319630 0.499990 -0.586564
O6    O     O_R   0.618750 0.319660 0.499990 -0.563870
O7    O     O_R   0.439190 0.500020 0.349020 -0.569108
O8    O     O_R   0.676760 0.500050 0.349020 -0.626786
C29   C     C_2   0.811790 0.694641 0.213081 0.338813
H8    H     H_    0.785651 0.686868 0.296516 0.113104
O9    O     O_2   0.916228 0.758148 0.170860 -0.517439
C30   C     C_2   0.275860 0.135744 0.667409 0.437173
H9    H     H_    0.281800 0.235607 0.679082 0.063810
O10   O     O_2   0.175454 0.081064 0.726470 -0.474987
C31   C     C_1   0.819513 0.703489 0.593162 0.342841
N3    N     N_1   0.754520 0.794248 0.625672 -0.258588
C32   C     C_2   0.101072 0.689067 0.617040 0.360308
H10   H     H_    0.154173 0.664658 0.673921 0.096450
O11   O     O_2   0.082068 0.799037 0.605647 -0.525482
C33   C     C_1   0.195533 0.316435 0.382054 0.376325
N4    N     N_1   0.271628 0.239521 0.331904 -0.261265
C34   C     C_2   0.899956 0.308865 0.384096 0.372270
H11   H     H_    0.835235 0.330266 0.333837 0.099698
O12   O     O_2   0.932653 0.200268 0.389076 -0.532730
C35   C     C_2   0.750334 0.789353 0.857871 0.399245
H12   H     H_    0.841929 0.777224 0.788288 0.094813
O13   O     O_2   0.727350 0.890812 0.904426 -0.454205
C36   C     C_2   0.519718 0.341398 0.137573 0.409410
H13   H     H_    0.518203 0.300230 0.210169 0.080626
O14   O     O_2   0.506032 0.272545 0.066311 -0.482690
C37   C     C_2   0.073223 0.354252 0.028590 0.428955
H14   H     H_    0.048859 0.335859 0.111021 0.052020
O15   O     O_2   0.984193 0.326110 0.983281 -0.501142

loop_
_geom_bond_atom_site_label_1
_geom_bond_atom_site_label_2
_ccdc_geom_bond_type
Cu1   N1    S    
C19   C32   S    
C2    C4    A    
C18   N2    A    
C9    C24   A    
C6    C7    A    
C19   N1    A    
C15   C30   S    
Cu1   O3    S    
C16   H2    S    
C20   N1    A    
C7    H6    S    
Cu2   O6    S    
C21   C34   S    
C24   H3    S    
C21   N2    A    
Cu1   O7    S    
C4    C8    A    
C35   H12   S    
C10   C26   A    
C29   O9    D    
C2    C3    A    
C9    C25   A    
C33   N4    T    
Cu2   O2    S    
C3    C10   A    
C13   C14   A    
C20   C21   A    
C20   C33   S    
C36   O14   D    
C8    C25   A    
C11   C13   A    
C14   C22   S    
C26   C27   A    
Cu1   Cu2   S    
C27   C37   S    
C10   C12   S    
C9    C29   S    
C5    C6    A    
Cu1   O1    S    
C1    O2    A    
C29   H8    S    
C32   O11   D    
Cu2   N2    S    
C18   C19   A    
C12   O4    A    
C3    C7    A    
C23   C25   S    
Cu1   O5    S    
C34   H11   S    
C22   O5    A    
Cu2   O4    S    
C23   O8    A    
C15   C16   A    
C18   C31   S    
C36   H13   S    
Cu2   O8    S    
C4    C5    A    
C37   H14   S    
C37   O15   D    
C32   H10   S    
C8    C36   S    
C11   H7    S    
C22   O6    A    
C6    C35   S    
C27   C28   A    
C23   O7    A    
C2    C28   A    
C31   N3    T    
C5    C24   A    
C12   O3    A    
C1    O1    A    
C26   H4    S    
C14   C15   A    
C1    C17   S    
C13   H1    S    
C34   O12   D    
C11   C17   A    
C30   H9    S    
C28   H5    S    
C16   C17   A    
C30   O10   D    
C35   O13   D    
