data_mof_unit_40040.cif
_audit_creation_date              2012-12-11T14:44:05-0500
_audit_creation_method            fapswitch 2.2
_symmetry_space_group_name_H-M    P1
_symmetry_Int_Tables_number       1
_space_group_crystal_system       triclinic
_cell_length_a                    18.945034
_cell_length_b                    11.003389
_cell_length_c                    18.835181
_cell_angle_alpha                 90.004292
_cell_angle_beta                  89.960189
_cell_angle_gamma                 90.296723
_cell_volume                      3926.32028624

loop_
_atom_site_label
_atom_site_type_symbol
_atom_type_description
_atom_site_fract_x
_atom_site_fract_y
_atom_site_fract_z
_atom_type_partial_charge
C1    C     C_R   0.727866 0.370504 0.143313 0.545998
C2    C     C_R   0.288407 0.330353 0.861613 0.569896
C3    C     C_R   0.227865 0.870502 0.143313 0.545990
C4    C     C_R   0.788407 0.830353 0.861613 0.569890
C5    C     C_R   0.516653 0.385620 0.926254 -0.092931
C6    C     C_R   0.489168 0.386001 0.071857 -0.084670
C7    C     C_R   0.016644 0.885630 0.926257 -0.092930
C8    C     C_R   0.989154 0.885992 0.071859 -0.084666
C9    C     C_R   0.013194 0.994268 0.963498 -0.148550
C10   C     C_R   0.994851 0.994517 0.034716 -0.146738
C11   C     C_R   0.513210 0.494263 0.963491 -0.148544
C12   C     C_R   0.494869 0.494522 0.034709 -0.146751
C13   C     C_R   0.715907 0.817445 0.049536 -0.023481
C14   C     C_R   0.290845 0.833429 0.954776 -0.019683
C15   C     C_R   0.215909 0.317438 0.049537 -0.023473
C16   C     C_R   0.790849 0.333437 0.954777 -0.019682
C17   C     C_R   0.723956 0.792453 0.976735 -0.137673
C18   C     C_R   0.289709 0.825341 0.029123 -0.133905
C19   C     C_R   0.223958 0.292447 0.976736 -0.137671
C20   C     C_R   0.789713 0.325348 0.029125 -0.133907
C21   C     C_R   0.778106 0.850038 0.937740 0.012900
C22   C     C_R   0.239939 0.892726 0.068265 0.015306
C23   C     C_R   0.278109 0.350030 0.937741 0.012894
C24   C     C_R   0.739943 0.392732 0.068267 0.015303
C25   C     C_R   0.825887 0.926411 0.972517 -0.130531
C26   C     C_R   0.189503 0.961746 0.032755 -0.130463
C27   C     C_R   0.325895 0.426390 0.972521 -0.130532
C28   C     C_R   0.689509 0.461755 0.032757 -0.130467
C29   C     C_R   0.816448 0.955160 0.042534 -0.146333
C30   C     C_R   0.190379 0.969833 0.960606 -0.145969
C31   C     C_R   0.316457 0.455138 0.042539 -0.146335
C32   C     C_R   0.690386 0.469843 0.960608 -0.145966
C33   C     C_R   0.759584 0.906778 0.080951 0.017605
C34   C     C_R   0.243762 0.914374 0.921263 0.016977
C35   C     C_R   0.259587 0.406769 0.080953 0.017602
C36   C     C_R   0.743766 0.414380 0.921265 0.016982
C37   C     C_R   0.535248 0.060802 0.472639 -0.123561
C38   C     C_R   0.526467 0.064959 0.545042 -0.133994
C39   C     C_R   0.035141 0.560742 0.472616 -0.123595
C40   C     C_R   0.026385 0.564896 0.545019 -0.134016
C41   C     C_R   0.498399 0.168839 0.576477 0.029821
C42   C     C_R   0.518425 0.161935 0.430447 0.036230
C43   C     C_R   0.998395 0.668822 0.576475 0.029819
C44   C     C_R   0.018396 0.661930 0.430439 0.036207
C45   C     C_R   0.531263 0.155174 0.146656 0.537776
C46   C     C_R   0.469496 0.155488 0.852751 0.530331
C47   C     C_R   0.031263 0.655173 0.146655 0.537766
C48   C     C_R   0.969497 0.655489 0.852750 0.530337
C49   C     C_R   0.485236 0.273045 0.535293 -0.130217
C50   C     C_R   0.495757 0.269768 0.462229 -0.136424
C51   C     C_R   0.985294 0.773068 0.535306 -0.130176
C52   C     C_R   0.995805 0.769799 0.462240 -0.136362
C53   C     C_R   0.796833 0.009680 0.470660 -0.129396
C54   C     C_R   0.203498 0.009772 0.529209 -0.125129
C55   C     C_R   0.297118 0.509107 0.470559 -0.129575
C56   C     C_R   0.703207 0.509146 0.529320 -0.125292
C57   C     C_R   0.797250 0.000373 0.543278 -0.138844
C58   C     C_R   0.203153 0.000423 0.456595 -0.133049
C59   C     C_R   0.297526 0.499938 0.543176 -0.138838
C60   C     C_R   0.702861 0.499931 0.456707 -0.133009
C61   C     C_R   0.751404 0.919001 0.577034 0.032683
C62   C     C_R   0.248733 0.919277 0.422905 0.032557
C63   C     C_R   0.251465 0.418996 0.577012 0.032776
C64   C     C_R   0.748661 0.419252 0.422934 0.032597
C65   C     C_R   0.700242 0.855541 0.537531 -0.139009
C66   C     C_R   0.299757 0.856487 0.462440 -0.130720
C67   C     C_R   0.200117 0.355871 0.537573 -0.139085
C68   C     C_R   0.799880 0.356831 0.462399 -0.130900
C69   C     C_R   0.698289 0.868011 0.464098 -0.146478
C70   C     C_R   0.301841 0.869397 0.535840 -0.135047
C71   C     C_R   0.198161 0.368251 0.464132 -0.146372
C72   C     C_R   0.801977 0.369665 0.535805 -0.135075
C73   C     C_R   0.747673 0.943468 0.430287 0.037683
C74   C     C_R   0.252443 0.944082 0.569622 0.036212
C75   C     C_R   0.247726 0.443287 0.430251 0.037710
C76   C     C_R   0.752393 0.443892 0.569662 0.036167
C77   C     C_R   0.742748 0.966689 0.148487 0.545154
C78   C     C_R   0.257327 0.966688 0.851301 0.532686
C79   C     C_R   0.242749 0.466688 0.148487 0.545135
C80   C     C_R   0.757327 0.466688 0.851302 0.532674
C81   C     C_R   0.730211 0.379147 0.352031 0.544739
C82   C     C_R   0.269781 0.379271 0.647961 0.552079
C83   C     C_R   0.230220 0.879147 0.352026 0.544763
C84   C     C_R   0.769775 0.879266 0.647964 0.552103
C85   C     C_R   0.535947 0.156241 0.355589 0.546093
C86   C     C_R   0.468069 0.157735 0.646844 0.548020
C87   C     C_R   0.035937 0.656241 0.355585 0.546103
C88   C     C_R   0.968069 0.657733 0.646844 0.548033
C89   C     C_R   0.740648 0.974877 0.355895 0.542809
C90   C     C_R   0.259380 0.975332 0.644053 0.545593
C91   C     C_R   0.240662 0.474823 0.355878 0.542795
C92   C     C_R   0.759366 0.475278 0.644071 0.545580
C93   C     C_R   0.500376 0.163560 0.924361 -0.001817
C94   C     C_R   0.503109 0.163068 0.073869 -0.002379
C95   C     C_R   0.000385 0.663565 0.924357 -0.001819
C96   C     C_R   0.003114 0.663063 0.073865 -0.002379
C97   C     C_R   0.505051 0.274662 0.961543 0.030540
C98   C     C_R   0.499337 0.274585 0.036720 0.035187
C99   C     C_R   0.005048 0.774666 0.961542 0.030546
C100  C     C_R   0.999332 0.774582 0.036719 0.035180
C101  C     C_R   0.501575 0.054765 0.035351 -0.154284
C102  C     C_R   0.504118 0.055148 0.962369 -0.151239
C103  C     C_R   0.001598 0.554760 0.035343 -0.154270
C104  C     C_R   0.004145 0.555150 0.962361 -0.151235
Cr1   Cr    Cr6+3 0.772000 0.169640 0.250110 1.000415
Cr2   Cr    Cr6+3 0.228000 0.169640 0.749890 0.997470
Cr3   Cr    Cr6+3 0.272000 0.669640 0.250110 1.000416
Cr4   Cr    Cr6+3 0.728000 0.669640 0.749890 0.997459
Cr5   Cr    Cr6+3 0.614960 0.323350 0.249260 0.999798
Cr6   Cr    Cr6+3 0.385040 0.323350 0.750740 0.987767
Cr7   Cr    Cr6+3 0.114960 0.823350 0.249260 0.999857
Cr8   Cr    Cr6+3 0.885040 0.823350 0.750740 0.987818
Cr9   Cr    Cr6+3 0.616670 0.010620 0.250840 1.023014
Cr10  Cr    Cr6+3 0.383330 0.010620 0.749160 1.019742
Cr11  Cr    Cr6+3 0.116670 0.510620 0.250840 1.022992
Cr12  Cr    Cr6+3 0.883330 0.510620 0.749160 1.019704
H1    H     H_    0.501102 0.968381 0.061995 0.135227
H2    H     H_    0.506106 0.969234 0.935194 0.136816
H3    H     H_    0.001132 0.468371 0.061985 0.135234
H4    H     H_    0.006144 0.469238 0.935183 0.136802
H5    H     H_    0.834484 0.071434 0.446515 0.126863
H6    H     H_    0.165965 0.071120 0.553316 0.128527
H7    H     H_    0.334946 0.570501 0.446368 0.126714
H8    H     H_    0.665498 0.570110 0.553476 0.128438
H9    H     H_    0.836781 0.051404 0.572483 0.119631
H10   H     H_    0.163817 0.051146 0.427356 0.122078
H11   H     H_    0.337215 0.550718 0.572318 0.119677
H12   H     H_    0.663358 0.550374 0.427537 0.122212
H13   H     H_    0.664094 0.792563 0.562856 0.117540
H14   H     H_    0.335689 0.793683 0.437181 0.121204
H15   H     H_    0.163795 0.293254 0.562962 0.117254
H16   H     H_    0.835986 0.294411 0.437074 0.121004
H17   H     H_    0.658625 0.819070 0.433952 0.108518
H18   H     H_    0.341507 0.821153 0.565986 0.116785
H19   H     H_    0.158331 0.319607 0.434038 0.108494
H20   H     H_    0.841821 0.321764 0.565894 0.116903
H21   H     H_    0.530510 0.389069 0.870558 0.130504
H22   H     H_    0.474515 0.390221 0.127299 0.128607
H23   H     H_    0.030502 0.889085 0.870561 0.130507
H24   H     H_    0.974500 0.890204 0.127301 0.128607
H25   H     H_    0.024683 0.078213 0.937099 0.112229
H26   H     H_    0.984361 0.078693 0.060987 0.113503
H27   H     H_    0.524699 0.578204 0.937089 0.112224
H28   H     H_    0.484386 0.578703 0.060978 0.113510
H29   H     H_    0.688034 0.730249 0.950710 0.119519
H30   H     H_    0.325868 0.764589 0.055832 0.119884
H31   H     H_    0.188035 0.230246 0.950709 0.119520
H32   H     H_    0.825873 0.264597 0.055834 0.119877
H33   H     H_    0.869088 0.969997 0.944767 0.167155
H34   H     H_    0.147658 0.008559 0.060416 0.163834
H35   H     H_    0.369100 0.469967 0.944772 0.167155
H36   H     H_    0.647664 0.508569 0.060418 0.163832
H37   H     H_    0.851737 0.022519 0.064991 0.136626
H38   H     H_    0.151712 0.028325 0.936299 0.134743
H39   H     H_    0.351750 0.522488 0.064999 0.136628
H40   H     H_    0.651720 0.528338 0.936302 0.134744
H41   H     H_    0.555882 0.977851 0.449917 0.136146
H42   H     H_    0.537780 0.984177 0.575851 0.126920
H43   H     H_    0.055702 0.477747 0.449883 0.136043
H44   H     H_    0.037649 0.484077 0.575813 0.126883
H45   H     H_    0.463139 0.354327 0.558726 0.133677
H46   H     H_    0.484902 0.349779 0.430637 0.119487
H47   H     H_    0.963256 0.854386 0.558755 0.133738
H48   H     H_    0.985008 0.849848 0.430661 0.119594
O1    O     O_R   0.787540 0.042690 0.170470 -0.538558
O2    O     O_R   0.212460 0.042690 0.829530 -0.545351
O3    O     O_R   0.287540 0.542690 0.170470 -0.538567
O4    O     O_R   0.712460 0.542690 0.829530 -0.545361
O5    O     O_R   0.556540 0.252920 0.323970 -0.504400
O6    O     O_R   0.443460 0.252920 0.676030 -0.508231
O7    O     O_R   0.056540 0.752920 0.323970 -0.504373
O8    O     O_R   0.943460 0.752920 0.676030 -0.508198
O9    O     O_R   0.545870 0.051100 0.330840 -0.529269
O10   O     O_R   0.454130 0.051100 0.669160 -0.520785
O11   O     O_R   0.045870 0.551100 0.330840 -0.529299
O12   O     O_R   0.954130 0.551100 0.669160 -0.520839
O13   O     O_R   0.681340 0.959300 0.325510 -0.510609
O14   O     O_R   0.318660 0.959300 0.674490 -0.503451
O15   O     O_R   0.181340 0.459300 0.325510 -0.510607
O16   O     O_R   0.818660 0.459300 0.674490 -0.503490
O17   O     O_3   0.667880 0.167870 0.250070 -0.243085
O18   O     O_3   0.332120 0.167870 0.749930 -0.259510
O19   O     O_3   0.167880 0.667870 0.250070 -0.243064
O20   O     O_3   0.832120 0.667870 0.749930 -0.259489
O21   O     O_R   0.765660 0.292160 0.175050 -0.508145
O22   O     O_R   0.234340 0.292160 0.824950 -0.505618
O23   O     O_R   0.265660 0.792160 0.175050 -0.508149
O24   O     O_R   0.734340 0.792160 0.824950 -0.505621
O25   O     O_R   0.670190 0.408980 0.168550 -0.526550
O26   O     O_R   0.329810 0.408980 0.831450 -0.531690
O27   O     O_R   0.170190 0.908980 0.168550 -0.526554
O28   O     O_R   0.829810 0.908980 0.831450 -0.531702
O29   O     O_R   0.556580 0.251450 0.175160 -0.506579
O30   O     O_R   0.443420 0.251450 0.824840 -0.524392
O31   O     O_R   0.056580 0.751450 0.175160 -0.506579
O32   O     O_R   0.943420 0.751450 0.824840 -0.524394
O33   O     O_R   0.545920 0.049510 0.170320 -0.510753
O34   O     O_R   0.454080 0.049510 0.829680 -0.509718
O35   O     O_R   0.045920 0.549510 0.170320 -0.510759
O36   O     O_R   0.954080 0.549510 0.829680 -0.509710
O37   O     O_R   0.681390 0.957840 0.176710 -0.478015
O38   O     O_R   0.318610 0.957840 0.823290 -0.482606
O39   O     O_R   0.181390 0.457840 0.176710 -0.478024
O40   O     O_R   0.818610 0.457840 0.823290 -0.482606
O41   O     O_R   0.787500 0.044280 0.330990 -0.532230
O42   O     O_R   0.212500 0.044280 0.669010 -0.530858
O43   O     O_R   0.287500 0.544280 0.330990 -0.532254
O44   O     O_R   0.712500 0.544280 0.669010 -0.530885
O45   O     O_R   0.765610 0.293630 0.323860 -0.506382
O46   O     O_R   0.234390 0.293630 0.676140 -0.501753
O47   O     O_R   0.265610 0.793630 0.323860 -0.506387
O48   O     O_R   0.734390 0.793630 0.676140 -0.501765
O49   O     O_R   0.670140 0.410570 0.329080 -0.536902
O50   O     O_R   0.329860 0.410570 0.670920 -0.538236
O51   O     O_R   0.170140 0.910570 0.329080 -0.536804
O52   O     O_R   0.829860 0.910570 0.670920 -0.538152
C105  C     C_R   0.660795 0.756308 0.092310 0.029594
C106  C     C_R   0.679313 0.698234 0.156197 -0.070425
C107  C     C_R   0.627295 0.667024 0.205698 -0.071884
C108  C     C_R   0.556712 0.694177 0.192089 -0.098914
C109  C     C_R   0.538030 0.750276 0.128354 -0.107989
C110  C     C_R   0.589569 0.776762 0.077279 -0.091823
H49   H     H_    0.734252 0.682485 0.168970 0.095133
H50   H     H_    0.641939 0.624654 0.255342 0.122088
H51   H     H_    0.516531 0.672038 0.230928 0.086979
H52   H     H_    0.483236 0.771441 0.118071 0.086059
H53   H     H_    0.574733 0.819133 0.027715 0.085794
C111  C     C_R   0.342551 0.763616 0.912391 0.038106
C112  C     C_R   0.320464 0.700942 0.851071 -0.058957
C113  C     C_R   0.369926 0.663876 0.800501 -0.067277
C114  C     C_R   0.441556 0.687901 0.811012 -0.101293
C115  C     C_R   0.463816 0.746774 0.872794 -0.110350
C116  C     C_R   0.414771 0.779571 0.924832 -0.090506
H54   H     H_    0.264780 0.687495 0.840474 0.102697
H55   H     H_    0.352517 0.619406 0.752319 0.130542
H56   H     H_    0.479760 0.661217 0.771288 0.087909
H57   H     H_    0.519355 0.766142 0.880614 0.090278
H58   H     H_    0.432425 0.823898 0.972891 0.081698
C117  C     C_R   0.160798 0.256298 0.092311 0.029602
C118  C     C_R   0.179314 0.198239 0.156201 -0.070417
C119  C     C_R   0.127296 0.167033 0.205701 -0.071878
C120  C     C_R   0.056714 0.194174 0.192088 -0.098905
C121  C     C_R   0.038033 0.250253 0.128348 -0.107997
C122  C     C_R   0.089572 0.276730 0.077273 -0.091838
H59   H     H_    0.234252 0.182502 0.168979 0.095121
H60   H     H_    0.141939 0.124678 0.255350 0.122055
H61   H     H_    0.016533 0.172041 0.230927 0.086987
H62   H     H_    0.983240 0.271413 0.118061 0.086058
H63   H     H_    0.074736 0.319084 0.027704 0.085780
C123  C     C_R   0.842558 0.263627 0.912393 0.038101
C124  C     C_R   0.820470 0.200945 0.851075 -0.058969
C125  C     C_R   0.869932 0.163882 0.800504 -0.067287
C126  C     C_R   0.941562 0.187914 0.811013 -0.101299
C127  C     C_R   0.963823 0.246793 0.872792 -0.110350
C128  C     C_R   0.914778 0.279593 0.924830 -0.090498
H64   H     H_    0.764786 0.187492 0.840481 0.102694
H65   H     H_    0.852523 0.119413 0.752322 0.130523
H66   H     H_    0.979766 0.161231 0.771288 0.087920
H67   H     H_    0.019362 0.266163 0.880610 0.090276
H68   H     H_    0.932432 0.323932 0.972885 0.081712

loop_
_geom_bond_atom_site_label_1
_geom_bond_atom_site_label_2
_ccdc_geom_bond_type
C58   C62   A    
C81   O45   A    
C62   C83   S    
C90   O14   A    
Cr7   O27   S    
C101  C102  A    
C56   C76   A    
C48   C95   S    
C55   C59   A    
C83   O51   A    
C50   H46   S    
C4    O28   A    
C101  H1    S    
Cr9   O13   S    
C117  C118  A    
C72   C76   A    
C43   C51   A    
C97   C98   A    
C106  C107  A    
C52   H48   S    
C106  H49   S    
Cr8   O20   S    
C71   C75   A    
C66   C70   A    
C127  H67   S    
C15   C19   A    
C41   C86   S    
C84   O48   A    
C37   C38   A    
C7    C99   A    
C48   O36   A    
C88   O8    A    
C43   C88   S    
Cr2   O2    S    
C47   O31   A    
Cr6   O50   S    
Cr7   O51   S    
C5    C11   A    
Cr5   O49   S    
C108  H51   S    
C66   H14   S    
C71   H19   S    
C126  C127  A    
Cr12  O36   S    
C95   C99   A    
C46   O34   A    
C67   C71   A    
C16   C123  S    
C94   C98   A    
C37   H41   S    
C121  C122  A    
Cr2   O46   S    
C15   C117  S    
C103  C104  A    
C37   C42   A    
Cr1   O45   S    
C25   H33   S    
C119  C120  A    
C10   H26   S    
Cr1   O21   S    
C112  H54   S    
C68   H16   S    
C14   C18   A    
C53   C73   A    
Cr8   O32   S    
Cr11  O11   S    
C92   O16   A    
Cr4   O48   S    
C107  H50   S    
C54   C74   A    
Cr9   O33   S    
C60   C64   A    
C126  H66   S    
C40   C43   A    
C89   O41   A    
C20   C24   A    
C29   C33   A    
Cr5   O25   S    
Cr10  O14   S    
C91   O15   A    
Cr7   O19   S    
C70   C74   A    
C85   O9    A    
C47   C96   S    
C20   H32   S    
C51   H47   S    
C114  H56   S    
Cr9   O37   S    
C17   C21   A    
C44   C87   S    
C24   C28   A    
C9    C10   A    
Cr3   O43   S    
C56   H8    S    
Cr4   O44   S    
C55   C75   A    
C44   C52   A    
C54   H6    S    
C14   C34   A    
C82   O50   A    
C48   O32   A    
C45   O29   A    
Cr5   O29   S    
C77   O37   A    
C47   O35   A    
C45   C94   S    
C6    C12   A    
C41   C49   A    
C108  C109  A    
Cr12  O40   S    
C112  C113  A    
Cr5   O5    S    
C125  H65   S    
C46   O30   A    
Cr3   O3    S    
C23   C27   A    
C83   O47   A    
C25   C29   A    
C18   C22   A    
C81   O49   A    
C78   O2    A    
C122  H63   S    
C30   C34   A    
C45   O33   A    
C27   C31   A    
C51   C52   A    
C6    C98   A    
C78   O38   A    
Cr6   O30   S    
C28   C32   A    
C62   C66   A    
Cr2   O22   S    
C38   C41   A    
C124  C125  A    
C36   C80   S    
C39   C40   A    
C53   C57   A    
C82   O46   A    
C63   C82   S    
C123  C124  A    
Cr10  O18   S    
Cr11  O35   S    
C109  H52   S    
Cr6   O26   S    
C85   O5    A    
C12   H28   S    
Cr11  O39   S    
C68   C72   A    
C86   O10   A    
C6    H22   S    
C32   H40   S    
C19   C23   A    
C116  H58   S    
C2    O22   A    
C63   C67   A    
C14   C111  S    
C109  C110  A    
C92   O44   A    
C3    O27   A    
C65   H13   S    
Cr8   O28   S    
C72   H20   S    
C119  H60   S    
C91   O43   A    
C99   C100  A    
C60   H12   S    
C16   C20   A    
C26   H34   S    
C87   O7    A    
C40   H44   S    
C121  H62   S    
Cr10  O38   S    
C120  C121  A    
C113  H55   S    
C42   C85   S    
C69   C73   A    
C38   H42   S    
C111  C116  A    
C117  C122  A    
C67   H15   S    
C76   C92   S    
Cr6   O6    S    
Cr12  O12   S    
C94   C101  A    
C42   C50   A    
C28   H36   S    
C30   H38   S    
C89   O13   A    
Cr12  O16   S    
C22   C26   A    
C118  H59   S    
C31   C35   A    
C31   H39   S    
Cr9   O17   S    
C39   C44   A    
Cr11  O15   S    
C55   H7    S    
C64   C68   A    
C114  C115  A    
C95   C104  A    
Cr9   O9    S    
C54   C58   A    
Cr5   O17   S    
C123  C128  A    
C7    C9    A    
C21   C25   A    
C128  H68   S    
C105  C110  A    
C69   H17   S    
C39   H43   S    
C86   O6    A    
C93   C102  A    
C49   H45   S    
Cr4   O24   S    
C103  H3    S    
C2    O26   A    
C27   H35   S    
C18   H30   S    
C61   C84   S    
C102  H2    S    
C17   H29   S    
Cr2   O42   S    
Cr11  O19   S    
C11   C12   A    
C32   C36   A    
C57   C61   A    
C13   C33   A    
Cr1   O41   S    
C75   C91   S    
C87   O11   A    
C96   C100  A    
C77   O1    A    
C79   O39   A    
C120  H61   S    
C88   O12   A    
C13   C17   A    
C8    H24   S    
C13   C105  S    
C1    O21   A    
C58   H10   S    
C127  C128  A    
C107  C108  A    
Cr4   O20   S    
C105  C106  A    
C29   H37   S    
C73   C89   S    
C5    H21   S    
C8    C100  A    
C53   H5    S    
C16   C36   A    
C57   H9    S    
C7    H23   S    
C4    C21   S    
C33   C77   S    
C124  H64   S    
Cr8   O8    S    
C46   C93   S    
C11   H27   S    
C110  H53   S    
C115  C116  A    
C65   C69   A    
C74   C90   S    
Cr12  O20   S    
C35   C79   S    
C118  C119  A    
C93   C97   A    
Cr1   O1    S    
C59   C63   A    
C5    C97   A    
Cr7   O7    S    
Cr2   O18   S    
Cr8   O52   S    
C56   C60   A    
Cr4   O4    S    
C113  C114  A    
C19   H31   S    
C64   C81   S    
C15   C35   A    
C9    H25   S    
C115  H57   S    
C111  C112  A    
C61   C65   A    
Cr10  O10   S    
Cr3   O47   S    
C3    O23   A    
Cr6   O18   S    
C1    C24   S    
C8    C10   A    
C49   C50   A    
Cr10  O34   S    
C96   C103  A    
Cr3   O19   S    
C2    C23   S    
C70   H18   S    
C79   O3    A    
C90   O42   A    
C3    C22   S    
Cr1   O17   S    
C80   O40   A    
C59   H11   S    
C80   O4    A    
C34   C78   S    
C4    O24   A    
C84   O52   A    
Cr3   O23   S    
Cr7   O31   S    
C125  C126  A    
C104  H4    S    
C26   C30   A    
C1    O25   A    
