data_mof_unit_10022.cif
_audit_creation_date              2012-12-10T18:21:24-0500
_audit_creation_method            fapswitch 2.2
_symmetry_space_group_name_H-M    P1
_symmetry_Int_Tables_number       1
_space_group_crystal_system       triclinic
_cell_length_a                    14.976953
_cell_length_b                    14.12264
_cell_length_c                    10.766932
_cell_angle_alpha                 91.145709
_cell_angle_beta                  89.52287
_cell_angle_gamma                 91.092113
_cell_volume                      2276.41726756

loop_
_atom_site_label
_atom_site_type_symbol
_atom_type_description
_atom_site_fract_x
_atom_site_fract_y
_atom_site_fract_z
_atom_type_partial_charge
C1    C     C_R   0.327428 0.499180 0.500768 0.926507
C2    C     C_3   0.595133 0.504158 0.933405 0.276077
C3    C     C_R   0.817366 0.499482 0.385428 0.164718
C4    C     C_R   0.770115 0.501833 0.498553 -0.098586
C5    C     C_R   0.814960 0.504730 0.611653 -0.321737
C6    C     C_R   0.907994 0.508734 0.615381 0.056472
C7    C     C_R   0.955404 0.497265 0.501840 -0.027351
C8    C     C_R   0.910005 0.489119 0.387264 0.101107
C9    C     C_R   0.955487 0.524606 0.728005 0.228246
C10   C     C_R   0.048643 0.523398 0.725765 -0.229403
C11   C     C_R   0.094987 0.509157 0.614577 0.042499
C12   C     C_R   0.490776 0.499277 0.258553 0.907461
C13   C     C_R   0.048615 0.495781 0.502041 0.069211
C14   C     C_R   0.095945 0.482234 0.389196 0.147508
C15   C     C_R   0.050521 0.468947 0.277570 -0.225123
C16   C     C_R   0.958190 0.472132 0.276498 -0.204367
C17   C     C_R   0.187596 0.509930 0.613583 -0.185328
C18   C     C_R   0.232843 0.497107 0.501523 -0.058453
C19   C     C_R   0.188331 0.482908 0.389926 -0.265749
C20   C     C_R   0.565653 0.799286 0.438688 0.204446
C21   C     C_R   0.568225 0.200948 0.444438 0.208128
C22   C     C_R   0.434097 0.796350 0.564064 0.519648
C23   C     C_R   0.431784 0.202756 0.559130 0.514316
C24   C     C_R   0.432540 0.897924 0.569353 -0.190962
C25   C     C_R   0.431022 0.101277 0.566746 -0.183210
C26   C     C_R   0.673509 0.500703 0.500360 0.828660
C27   C     C_R   0.496318 0.949181 0.499299 -0.033252
C28   C     C_R   0.496745 0.050357 0.500293 -0.038691
C29   C     C_R   0.562967 0.899477 0.432688 0.007967
C30   C     C_R   0.565400 0.100596 0.437997 -0.000128
C31   C     C_R   0.373662 0.949197 0.648445 0.339154
C32   C     C_R   0.369333 0.049980 0.641867 0.344768
C33   C     C_R   0.630598 0.049456 0.371972 -0.184453
C34   C     C_R   0.627772 0.951224 0.366187 -0.197535
C35   C     C_R   0.498299 0.501272 0.742285 0.978018
C36   C     C_3   0.443753 0.595362 0.074021 0.556483
C37   C     C_3   0.434531 0.409298 0.066474 0.507872
C38   C     C_3   0.446440 0.594228 0.928188 0.176853
C39   C     C_3   0.441579 0.413757 0.922334 0.262862
C40   C     C_3   0.584629 0.494528 0.076299 -0.648798
C41   C     C_3   0.486857 0.499425 0.121247 -0.181479
C42   C     C_3   0.496071 0.504272 0.879220 -0.153310
H1    H     H_    0.084977 0.534492 0.811748 0.182842
H2    H     H_    0.224634 0.520830 0.699087 0.206225
H3    H     H_    0.225622 0.474099 0.304029 0.156439
H4    H     H_    0.086428 0.457148 0.190958 0.170893
H5    H     H_    0.924903 0.461071 0.188412 0.187793
H6    H     H_    0.684665 0.084256 0.323045 0.155471
H7    H     H_    0.678410 0.916725 0.310445 0.139029
H8    H     H_    0.485135 0.657349 0.896429 0.129824
H9    H     H_    0.478499 0.350575 0.887091 0.101968
H10   H     H_    0.622842 0.551221 0.125253 0.196526
H11   H     H_    0.614739 0.429902 0.109620 0.209315
H12   H     H_    0.776489 0.503672 0.695795 0.150847
N1    N     N_R   0.500070 0.750030 0.500050 -0.144363
N2    N     N_R   0.500070 0.249970 0.500050 -0.142179
O1    O     O_R   0.367860 0.580280 0.500020 -0.565945
O2    O     O_R   0.367860 0.419720 0.500020 -0.586376
O3    O     O_R   0.500000 0.580270 0.314790 -0.575162
O4    O     O_R   0.500000 0.419730 0.314790 -0.615736
O5    O     O_R   0.632160 0.580270 0.499960 -0.600165
O6    O     O_R   0.632160 0.419730 0.499960 -0.605971
O7    O     O_R   0.500030 0.580270 0.685200 -0.595199
O8    O     O_R   0.500030 0.419730 0.685200 -0.609474
Zn1   Zn    Zn3+2 0.500020 0.607200 0.499990 1.018436
Zn2   Zn    Zn3+2 0.500020 0.392800 0.499990 1.004445
N3    N     N_2   0.495623 0.678920 0.117902 -0.284041
H13   H     H_    0.559790 0.685458 0.083801 0.197574
C43   C     C_3   0.451273 0.769345 0.123470 -0.687983
H14   H     H_    0.499236 0.825612 0.155002 0.204911
H15   H     H_    0.395264 0.767477 0.191622 0.280797
H16   H     H_    0.426125 0.787749 0.030442 0.225043
N4    N     N_2   0.473232 0.319918 0.106518 -0.315551
H17   H     H_    0.535494 0.306484 0.069810 0.199386
C44   C     C_3   0.417065 0.235054 0.100973 -0.715878
H18   H     H_    0.455868 0.173350 0.130789 0.217271
H19   H     H_    0.393631 0.221025 0.004677 0.245609
H20   H     H_    0.359032 0.241552 0.165089 0.260654
N5    N     N_2   0.639030 0.749049 0.387804 -0.246813
H21   H     H_    0.649458 0.759758 0.294405 0.197700
C45   C     C_3   0.719971 0.757740 0.460872 -0.725618
H22   H     H_    0.749945 0.829938 0.455855 0.210336
H23   H     H_    0.769771 0.706755 0.425343 0.248830
H24   H     H_    0.705742 0.741935 0.559834 0.252242
N6    N     N_2   0.646262 0.251054 0.405414 -0.246121
H25   H     H_    0.703259 0.232599 0.451596 0.213497
C46   C     C_3   0.659383 0.261642 0.273267 -0.761950
H26   H     H_    0.725409 0.233930 0.244046 0.205934
H27   H     H_    0.659264 0.337518 0.252806 0.252093
H28   H     H_    0.606866 0.223479 0.218969 0.235914
O9    O     O_3   0.370504 0.742051 0.623544 -0.677179
H29   H     H_    0.311536 0.767633 0.602136 0.355916
O10   O     O_3   0.366005 0.256097 0.613602 -0.677754
H30   H     H_    0.308451 0.230646 0.581118 0.350489
O11   O     O_3   0.325552 0.900717 0.737835 -0.773906
H31   H     H_    0.317236 0.942702 0.811658 0.346683
O12   O     O_3   0.307919 0.099027 0.713157 -0.770034
H32   H     H_    0.253307 0.058963 0.722295 0.339698
O13   O     O_3   0.356170 0.603068 0.124041 -0.754990
H33   H     H_    0.312079 0.568368 0.071834 0.405214
O14   O     O_3   0.344124 0.411379 0.104039 -0.742034
H34   H     H_    0.342145 0.405487 0.195632 0.328017
O15   O     O_3   0.361069 0.599252 0.875010 -0.696724
H35   H     H_    0.341485 0.665731 0.885674 0.362184
O16   O     O_3   0.356141 0.410784 0.868093 -0.650514
H36   H     H_    0.334664 0.343863 0.868804 0.372063
N7    N     N_2   0.647257 0.592864 0.915408 -0.332700
H37   H     H_    0.705188 0.597098 0.966255 0.242683
C47   C     C_3   0.659807 0.637734 0.797076 -0.809030
H38   H     H_    0.608875 0.692434 0.784198 0.261503
H39   H     H_    0.657987 0.585132 0.721621 0.249827
H40   H     H_    0.725986 0.674549 0.793329 0.228081
N8    N     N_2   0.644146 0.423908 0.878500 -0.300068
H41   H     H_    0.651414 0.424738 0.783386 0.226486
C48   C     C_3   0.721983 0.386789 0.939215 -0.824488
H42   H     H_    0.770879 0.361013 0.868692 0.236614
H43   H     H_    0.701544 0.325531 0.996518 0.246417
H44   H     H_    0.755337 0.441155 0.999122 0.253664
N9    N     N_2   0.772806 0.511135 0.270575 -0.317187
H45   H     H_    0.705887 0.494512 0.270663 0.218830
C49   C     C_3   0.796580 0.596294 0.203390 -0.856297
H46   H     H_    0.738645 0.643601 0.198699 0.235929
H47   H     H_    0.817608 0.576214 0.107957 0.244290
H48   H     H_    0.852516 0.637129 0.247437 0.256522
N10   N     N_2   0.912342 0.544667 0.843924 -0.315187
H49   H     H_    0.849629 0.517437 0.860696 0.230167
C50   C     C_3   0.931658 0.635902 0.902800 -0.807257
H50   H     H_    0.869417 0.677017 0.911924 0.232007
H51   H     H_    0.981014 0.678525 0.848808 0.257079
H52   H     H_    0.958852 0.624789 0.996842 0.250611

loop_
_geom_bond_atom_site_label_1
_geom_bond_atom_site_label_2
_ccdc_geom_bond_type
C39   H9    S    
C46   H26   S    
O7    Zn1   S    
O14   H34   S    
C27   C29   A    
N4    C44   S    
N4    H17   S    
O11   H31   S    
C24   C27   A    
C6    C9    A    
O12   H32   S    
C36   N3    S    
C7    C8    A    
N6    H25   S    
C25   C28   A    
C1    C18   S    
O10   H30   S    
C45   H22   S    
C26   O5    A    
C38   C42   S    
C47   H39   S    
C5    C6    A    
C2    N8    S    
N2    Zn2   S    
C15   C16   A    
C2    N7    S    
C32   O12   S    
C18   C19   A    
C43   H15   S    
C35   C42   S    
C49   H48   S    
C45   H23   S    
C12   O3    A    
O2    Zn2   S    
C31   C32   A    
C48   H43   S    
N7    H37   S    
C2    C40   S    
C35   O8    A    
C9    C10   A    
C30   C33   A    
C25   C32   A    
N6    C46   S    
O4    Zn2   S    
C8    C16   A    
C13   C14   A    
N7    C47   S    
C36   C41   S    
C20   N1    A    
C16   H5    S    
N1    Zn1   S    
C33   C34   A    
C39   C42   S    
C20   C29   A    
N9    C49   S    
C21   N6    S    
C49   H47   S    
O6    Zn2   S    
N3    H13   S    
C5    H12   S    
C23   N2    A    
C3    C8    A    
C47   H40   S    
O9    H29   S    
N5    C45   S    
C24   C31   A    
C40   H10   S    
C29   C34   A    
C9    N10   S    
C23   O10   S    
N3    C43   S    
O8    Zn2   S    
C43   H16   S    
C44   H18   S    
C50   H51   S    
C38   O15   S    
C1    O1    A    
O13   H33   S    
C22   O9    S    
C48   H44   S    
C50   H50   S    
C17   C18   A    
C44   H19   S    
C49   H46   S    
C22   N1    A    
C3    N9    S    
C40   C41   S    
C46   H27   S    
N10   H49   S    
C22   C24   A    
C3    C4    A    
O15   H35   S    
C45   H24   S    
C12   C41   S    
N8    H41   S    
C21   C30   A    
C39   O16   S    
C37   N4    S    
C11   C17   A    
C34   H7    S    
C20   N5    S    
C10   H1    S    
C14   C19   A    
O1    Zn1   S    
C4    C5    A    
C21   N2    A    
C4    C26   S    
N9    H45   S    
C19   H3    S    
C6    C7    A    
C38   H8    S    
O16   H36   S    
C28   C30   A    
C26   O6    A    
C17   H2    S    
C37   C39   S    
C1    O2    A    
O3    Zn1   S    
C37   O14   S    
C11   C13   A    
C2    C42   S    
C31   O11   S    
C36   C38   S    
C36   O13   S    
C23   C25   A    
C37   C41   S    
C43   H14   S    
C44   H20   S    
C50   H52   S    
C10   C11   A    
N5    H21   S    
C12   O4    A    
O5    Zn1   S    
C7    C13   A    
C40   H11   S    
C46   H28   S    
C27   C28   A    
N10   C50   S    
C33   H6    S    
C14   C15   A    
C35   O7    A    
C15   H4    S    
C47   H38   S    
C48   H42   S    
N8    C48   S    
