data_mof_unit_52119.cif
_audit_creation_date              2012-12-10T16:54:29-0500
_audit_creation_method            fapswitch 2.2
_symmetry_space_group_name_H-M    P1
_symmetry_Int_Tables_number       1
_space_group_crystal_system       triclinic
_cell_length_a                    15.077331
_cell_length_b                    10.95329
_cell_length_c                    9.714073
_cell_angle_alpha                 87.905635
_cell_angle_beta                  89.072326
_cell_angle_gamma                 90.462679
_cell_volume                      1602.90190409

loop_
_atom_site_label
_atom_site_type_symbol
_atom_type_description
_atom_site_fract_x
_atom_site_fract_y
_atom_site_fract_z
_atom_type_partial_charge
C1    C     C_R   0.495993 0.265136 0.502920 0.826761
C2    C     C_R   0.906351 0.601494 0.544142 0.041468
C3    C     C_R   0.953477 0.290120 0.418300 -0.153263
C4    C     C_R   0.045302 0.289493 0.419761 -0.142776
C5    C     C_R   0.093367 0.390834 0.464006 0.048845
C6    C     C_R   0.046792 0.495682 0.505111 0.063640
C7    C     C_R   0.093754 0.599922 0.547591 0.043157
C8    C     C_R   0.046246 0.702726 0.588131 -0.150174
C9    C     C_R   0.954506 0.703971 0.585035 -0.147981
C10   C     C_R   0.186821 0.390614 0.464566 -0.058538
C11   C     C_R   0.232745 0.495873 0.504380 -0.184289
C12   C     C_R   0.329279 0.497859 0.501230 0.814584
C13   C     C_R   0.187044 0.599237 0.548728 -0.047492
C14   C     C_2   0.465752 0.937629 0.393284 0.018400
C15   C     C_2   0.507139 0.866245 0.488292 -0.275892
C16   C     C_2   0.475819 0.070819 0.396116 -0.262351
C17   C     C_2   0.479116 0.133569 0.512669 -0.175044
C18   C     C_2   0.438427 0.446844 0.928040 0.051390
C19   C     C_2   0.444944 0.435807 0.082547 -0.071384
C20   C     C_R   0.499729 0.734495 0.496933 0.872305
C21   C     C_R   0.670658 0.498756 0.498976 0.850821
C22   C     C_R   0.813052 0.602912 0.539847 -0.058346
C23   C     C_R   0.767132 0.499015 0.496494 -0.190051
C24   C     C_R   0.812436 0.393014 0.458975 -0.058762
C25   C     C_R   0.905832 0.392143 0.460932 0.043546
C26   C     C_R   0.952838 0.496314 0.503754 0.062603
Cu1   Cu    Cu3+1 0.500020 0.500020 0.638630 1.044886
Cu2   Cu    Cu3+1 0.499980 0.499980 0.361370 1.051904
H1    H     H_    0.537843 0.563558 0.101718 0.220504
H2    H     H_    0.078037 0.208890 0.383653 0.185657
N1    N     N_2   0.499020 0.498660 0.846910 -0.311702
N2    N     N_2   0.499000 0.498630 0.153040 -0.273005
O1    O     O_R   0.500020 0.321960 0.617040 -0.525643
O2    O     O_R   0.499980 0.321920 0.382900 -0.567399
O3    O     O_R   0.370270 0.499990 0.617090 -0.558449
O4    O     O_R   0.370240 0.499950 0.382940 -0.551647
O5    O     O_R   0.500020 0.678080 0.617100 -0.571550
O6    O     O_R   0.499980 0.678040 0.382960 -0.542555
O7    O     O_R   0.629760 0.500050 0.617060 -0.581265
O8    O     O_R   0.629730 0.500010 0.382910 -0.528603
C27   C     C_2   0.762539 0.712712 0.579379 0.829932
O9    O     O_2   0.715948 0.765627 0.494802 -0.594275
O10   O     O_R   0.767510 0.753960 0.713568 -0.740678
H3    H     H_    0.729730 0.828734 0.728004 0.350688
H4    H     H_    0.548809 0.906196 0.565026 0.161997
H5    H     H_    0.482587 0.118545 0.296354 0.193396
C28   C     C_2   0.455145 0.077937 0.650744 0.904652
O11   O     O_2   0.500485 0.099378 0.750441 -0.541139
O12   O     O_R   0.380008 0.002973 0.666792 -0.738366
H6    H     H_    0.369389 0.974581 0.766190 0.336964
C29   C     C_2   0.357014 0.393318 0.872933 0.945249
O13   O     O_2   0.284988 0.435283 0.904950 -0.559378
O14   O     O_R   0.361436 0.291222 0.791548 -0.724740
H7    H     H_    0.300812 0.262485 0.761926 0.344996
H8    H     H_    0.556397 0.528301 0.891041 0.208305
H9    H     H_    0.399008 0.374495 0.138118 0.205700
C30   C     C_2   0.761334 0.281817 0.424387 0.809150
O15   O     O_2   0.765283 0.189755 0.499047 -0.573740
O16   O     O_R   0.709014 0.282806 0.306937 -0.723238
H10   H     H_    0.676917 0.202226 0.295356 0.340942
H11   H     H_    0.920446 0.209942 0.381271 0.179193
C31   C     C_2   0.236610 0.278644 0.430511 0.802522
O17   O     O_2   0.286613 0.279299 0.330247 -0.579880
O18   O     O_R   0.224801 0.172098 0.512592 -0.738464
H12   H     H_    0.261034 0.101570 0.478054 0.390016
C32   C     C_2   0.237649 0.705381 0.598059 0.826749
O19   O     O_2   0.243132 0.799763 0.527238 -0.550243
O20   O     O_R   0.278316 0.696473 0.726158 -0.707038
H13   H     H_    0.311649 0.773558 0.748710 0.341785
H14   H     H_    0.079373 0.784131 0.621750 0.181638
H15   H     H_    0.922096 0.787014 0.614352 0.187103
C33   C     C_2   0.412096 0.889999 0.280321 0.912406
O21   O     O_2   0.333518 0.915725 0.273722 -0.536084
O22   O     O_R   0.452314 0.823488 0.176621 -0.733979
H16   H     H_    0.408807 0.797910 0.104342 0.335548

loop_
_geom_bond_atom_site_label_1
_geom_bond_atom_site_label_2
_ccdc_geom_bond_type
C19   H9    S    
C2    C22   A    
C32   O20   S    
C11   C12   S    
C31   O17   D    
C12   O4    A    
C20   O6    A    
C27   O9    D    
C1    C17   S    
C28   O11   D    
C21   O7    A    
Cu2   O6    S    
O10   H3    S    
C1    O2    A    
O18   H12   S    
C3    H11   S    
C32   O19   D    
C8    C9    A    
C1    O1    A    
O16   H10   S    
C28   O12   S    
C10   C31   S    
O14   H7    S    
Cu1   O1    S    
C12   O3    A    
C20   O5    A    
C27   O10   S    
C2    C26   A    
C30   O15   D    
C6    C26   A    
C21   O8    A    
C14   C33   S    
Cu1   O5    S    
N1    H8    S    
C19   N2    D    
Cu2   N2    S    
C5    C10   A    
C18   C29   S    
O12   H6    S    
C6    C7    A    
C13   C32   S    
C21   C23   S    
C16   H5    S    
C5    C6    A    
O20   H13   S    
C14   C16   S    
C30   O16   S    
C11   C13   A    
C7    C8    A    
O22   H16   S    
C15   H4    S    
C23   C24   A    
Cu2   O2    S    
C3    C4    A    
C22   C27   S    
C9    H15   S    
C7    C13   A    
C3    C25   A    
C29   O13   D    
C24   C25   A    
Cu2   O4    S    
C33   O21   D    
C33   O22   S    
C18   C19   S    
C10   C11   A    
C8    H14   S    
Cu1   Cu2   S    
Cu2   O8    S    
C14   C15   D    
C4    C5    A    
C31   O18   S    
C18   N1    D    
H1    N2    S    
Cu1   O3    S    
C25   C26   A    
C22   C23   A    
C2    C9    A    
Cu1   N1    S    
C15   C20   S    
C4    H2    S    
C17   C28   S    
C16   C17   D    
Cu1   O7    S    
C24   C30   S    
C29   O14   S    
