data_mof_unit_23008.cif
_audit_creation_date              2012-10-26T21:12:37-0400
_audit_creation_method            fapswitch 2.2
_symmetry_space_group_name_H-M    P1
_symmetry_Int_Tables_number       1
_space_group_crystal_system       triclinic
_cell_length_a                    23.516333
_cell_length_b                    10.775927
_cell_length_c                    9.626257
_cell_angle_alpha                 90.47158
_cell_angle_beta                  90.482875
_cell_angle_gamma                 93.19716
_cell_volume                      2435.41673858

loop_
_atom_site_label
_atom_site_type_symbol
_atom_type_description
_atom_site_fract_x
_atom_site_fract_y
_atom_site_fract_z
_atom_type_partial_charge
C1    C     C_R   0.497859 0.262618 0.499552 0.537940
C2    C     C_R   0.122328 0.604807 0.452246 0.401353
C3    C     C_R   0.238619 0.499372 0.372242 -0.049439
C4    C     C_R   0.391045 0.499581 0.499557 0.531440
C5    C     C_R   0.297912 0.498714 0.372482 -0.133660
C6    C     C_R   0.328427 0.499857 0.498761 -0.001671
C7    C     C_R   0.298526 0.501522 0.624586 -0.151249
C8    C     C_R   0.239274 0.502066 0.624018 -0.056751
C9    C     C_R   0.209113 0.501017 0.497958 0.239206
C10   C     C_R   0.761384 0.505242 0.628533 -0.055591
C11   C     C_R   0.702045 0.503761 0.627954 -0.145582
C12   C     C_R   0.965093 0.295330 0.595162 -0.121206
C13   C     C_R   0.671651 0.503151 0.501506 0.000490
C14   C     C_R   0.701748 0.504981 0.375864 -0.148345
C15   C     C_R   0.761059 0.506497 0.376777 -0.056668
C16   C     C_R   0.498294 0.737018 0.500420 0.529218
C17   C     C_R   0.791091 0.506334 0.503001 0.240219
C18   C     C_R   0.407619 0.119450 0.645275 -0.094293
C19   C     C_R   0.365923 0.050048 0.717522 -0.084457
C20   C     C_R   0.366245 0.921044 0.718751 -0.104130
C21   C     C_R   0.408295 0.860631 0.647851 -0.096432
C22   C     C_R   0.451712 0.929133 0.575984 0.030339
C23   C     C_R   0.024387 0.294353 0.593859 -0.121640
C24   C     C_R   0.451364 0.060379 0.574719 0.024729
C25   C     C_R   0.493724 0.128316 0.498656 0.005604
C26   C     C_R   0.533563 0.067614 0.420405 -0.135261
C27   C     C_R   0.533902 0.939665 0.421564 -0.145085
C28   C     C_R   0.608968 0.500984 0.500479 0.541533
C29   C     C_R   0.494387 0.870424 0.500923 0.008596
C30   C     C_R   0.576184 0.665875 0.146535 -0.084552
C31   C     C_R   0.613442 0.746755 0.075707 -0.168418
C32   C     C_R   0.613359 0.746618 0.932473 -0.163158
C33   C     C_R   0.576000 0.665624 0.859117 -0.082357
C34   C     C_R   0.057337 0.398032 0.546542 0.029103
C35   C     C_R   0.537334 0.581436 0.926850 0.150552
C36   C     C_R   0.537377 0.581475 0.076195 0.151038
C37   C     C_R   0.463930 0.421332 0.070410 0.110701
C38   C     C_R   0.464552 0.422790 0.922609 0.038622
C39   C     C_R   0.883221 0.608653 0.457302 0.400655
C40   C     C_R   0.877938 0.402918 0.549032 0.401834
C41   C     C_R   0.937509 0.400011 0.549195 0.029191
C42   C     C_R   0.970131 0.504444 0.501482 -0.027914
C43   C     C_R   0.942905 0.609841 0.455060 0.029317
C44   C     C_2   0.422554 0.330778 0.136106 0.230071
C45   C     C_R   0.030121 0.503439 0.500105 -0.027929
C46   C     C_R   0.062752 0.607835 0.452302 0.029304
C47   C     C_R   0.035164 0.712532 0.406385 -0.120882
C48   C     C_R   0.975863 0.713532 0.407770 -0.122181
C49   C     C_R   0.117007 0.399159 0.544224 0.402714
Cu1   Cu    Cu3+1 0.500000 0.499990 0.640660 0.915831
Cu2   Cu    Cu3+1 0.500000 0.500010 0.359340 0.919415
H1    H     H_    0.680064 0.502926 0.726388 0.135184
H2    H     H_    0.579781 0.673759 0.256229 0.177666
H3    H     H_    0.642607 0.810109 0.132727 0.129059
H4    H     H_    0.642466 0.809826 0.877468 0.133288
H5    H     H_    0.579283 0.672975 0.749557 0.183552
H6    H     H_    0.435946 0.360520 0.862802 0.163993
H7    H     H_    0.059273 0.794011 0.369262 0.172519
H8    H     H_    0.955972 0.795735 0.371618 0.170288
H9    H     H_    0.215519 0.498196 0.274409 0.136943
H10   H     H_    0.319758 0.497254 0.273942 0.141798
H11   H     H_    0.216714 0.503694 0.721564 0.135579
H12   H     H_    0.679554 0.504962 0.276820 0.134884
H13   H     H_    0.784358 0.505560 0.726513 0.134195
H14   H     H_    0.940987 0.213830 0.632243 0.171606
H15   H     H_    0.332745 0.096525 0.771132 0.152300
H16   H     H_    0.418504 0.322483 0.246321 0.179919
H17   H     H_    0.320829 0.502549 0.723516 0.135819
H18   H     H_    0.783754 0.507052 0.279346 0.134203
H19   H     H_    0.565520 0.119863 0.360878 0.137273
H20   H     H_    0.404329 0.219061 0.643150 0.129079
H21   H     H_    0.333303 0.867381 0.773288 0.130224
H22   H     H_    0.405546 0.760248 0.648086 0.146847
H23   H     H_    0.566040 0.894451 0.362559 0.114609
H24   H     H_    0.044275 0.212152 0.630026 0.170713
N1    N     N_R   0.852100 0.506146 0.503533 -0.398965
N2    N     N_R   0.148131 0.501569 0.497789 -0.399620
N3    N     N_R   0.500540 0.501210 0.147910 -0.273528
N4    N     N_R   0.500560 0.501290 0.852040 -0.268645
O1    O     O_R   0.500000 0.319640 0.618810 -0.495896
O2    O     O_R   0.582120 0.500020 0.618760 -0.514526
O3    O     O_R   0.582120 0.500050 0.381190 -0.519057
O4    O     O_2   0.856468 0.709310 0.414508 -0.494376
O5    O     O_2   0.391148 0.261347 0.065171 -0.551798
O6    O     O_2   0.846025 0.303026 0.592692 -0.491277
O7    O     O_2   0.143754 0.298525 0.587130 -0.488902
O8    O     O_2   0.154274 0.704524 0.408258 -0.488966
O9    O     O_R   0.500000 0.319660 0.381240 -0.520694
O10   O     O_R   0.417880 0.499950 0.618810 -0.517543
O11   O     O_R   0.417880 0.499980 0.381240 -0.524025
O12   O     O_R   0.500000 0.680340 0.618760 -0.524824
O13   O     O_R   0.500000 0.680360 0.381190 -0.509064

loop_
_geom_bond_atom_site_label_1
_geom_bond_atom_site_label_2
_ccdc_geom_bond_type
C22   C29   A    
C27   C29   A    
C41   C42   A    
C19   C20   A    
Cu1   N4    S    
C7    C8    A    
C45   C46   A    
C2    C46   A    
C12   C23   A    
C26   C27   A    
C12   C41   A    
C18   C24   A    
Cu2   O11   S    
C30   C31   A    
C38   N4    A    
C10   C17   A    
C21   H22   S    
C19   H15   S    
C18   C19   A    
C11   H1    S    
C7    H17   S    
C31   C32   A    
C8    C9    A    
C17   N1    S    
C13   C28   S    
C27   H23   S    
C43   C48   A    
C32   H4    S    
C3    H9    S    
C33   H5    S    
C13   C14   A    
C1    C25   S    
C4    O11   A    
C15   H18   S    
C30   H2    S    
C28   O3    A    
C24   C25   A    
C4    C6    S    
C39   C43   A    
C3    C5    A    
C25   C26   A    
C40   N1    A    
C42   C45   A    
C40   O6    S    
C37   C38   A    
C3    C9    A    
Cu2   O13   S    
C38   H6    S    
Cu1   O10   S    
C47   C48   A    
C23   C34   A    
Cu1   Cu2   S    
C5    H10   S    
C2    O8    S    
C34   C45   A    
C9    N2    S    
C39   N1    A    
Cu2   O3    S    
C40   C41   A    
C16   O13   A    
C26   H19   S    
C22   C24   A    
C42   C43   A    
C48   H8    S    
C4    O10   A    
C12   H14   S    
C18   H20   S    
C15   C17   A    
C46   C47   A    
C34   C49   A    
C28   O2    A    
C49   O7    S    
C10   H13   S    
C23   H24   S    
C44   O5    D    
Cu1   O1    S    
Cu2   O9    S    
C6    C7    A    
C37   N3    A    
C30   C36   A    
C32   C33   A    
C37   C44   S    
C16   C29   S    
Cu2   N3    S    
C39   O4    S    
C2    N2    A    
C36   N3    A    
C47   H7    S    
C11   C13   A    
C5    C6    A    
C1    O9    A    
C14   H12   S    
C35   N4    A    
C33   C35   A    
C49   N2    A    
C31   H3    S    
C10   C11   A    
Cu1   O12   S    
C20   C21   A    
C16   O12   A    
C1    O1    A    
C14   C15   A    
C20   H21   S    
C44   H16   S    
C35   C36   A    
C21   C22   A    
Cu1   O2    S    
C8    H11   S    
