data_mof_unit_57865.cif
_audit_creation_date              2012-12-10T19:07:37-0500
_audit_creation_method            fapswitch 2.2
_symmetry_space_group_name_H-M    P1
_symmetry_Int_Tables_number       1
_space_group_crystal_system       triclinic
_cell_length_a                    10.791989
_cell_length_b                    10.78919
_cell_length_c                    9.576798
_cell_angle_alpha                 90.316303
_cell_angle_beta                  90.53139
_cell_angle_gamma                 90.564996
_cell_volume                      1114.97217102

loop_
_atom_site_label
_atom_site_type_symbol
_atom_type_description
_atom_site_fract_x
_atom_site_fract_y
_atom_site_fract_z
_atom_type_partial_charge
C1    C     C_R   0.501814 0.262547 0.499990 0.804917
C2    C     C_R   0.937393 0.489403 0.624406 0.123147
C3    C     C_3   0.930699 0.379260 0.718021 -0.465205
C4    C     C_3   0.071463 0.379059 0.717351 -0.475389
C5    C     C_R   0.473042 0.064375 0.619678 0.134951
C6    C     C_R   0.511682 0.129503 0.502245 -0.086431
C7    C     C_R   0.567188 0.064865 0.392131 -0.232035
C8    C     C_R   0.566791 0.935527 0.392305 -0.232824
C9    C     C_R   0.511604 0.870986 0.502984 -0.090883
C10   C     C_R   0.472965 0.936889 0.620143 0.118858
C11   C     C_3   0.352482 0.930174 0.695621 -0.474166
C12   C     C_R   0.262465 0.502863 0.499838 0.804659
C13   C     C_3   0.352962 0.070884 0.695450 -0.477007
C14   C     C_R   0.587181 0.566395 0.074898 0.241155
C15   C     C_R   0.422025 0.423824 0.070503 0.045364
C16   C     C_R   0.422592 0.424948 0.922384 -0.119211
C17   C     C_R   0.587510 0.565942 0.927836 0.255061
C18   C     C_3   0.610341 0.702210 0.922380 -0.492869
C19   C     C_3   0.608533 0.703012 0.080730 -0.519784
C20   C     C_R   0.501766 0.737578 0.500458 0.791682
C21   C     C_R   0.737577 0.502659 0.500566 0.792137
C22   C     C_R   0.064699 0.489119 0.623752 0.129601
C23   C     C_R   0.129434 0.515554 0.501880 -0.087103
C24   C     C_R   0.064137 0.561838 0.386207 -0.229641
C25   C     C_R   0.934720 0.560339 0.385881 -0.232497
C26   C     C_R   0.870828 0.515327 0.502787 -0.092773
Cu1   Cu    Cu3+1 0.499990 0.499980 0.640670 0.936730
Cu2   Cu    Cu3+1 0.500010 0.500020 0.359330 0.940399
H1    H     H_    0.112404 0.594679 0.294935 0.153922
H2    H     H_    0.362687 0.890646 0.801943 0.193904
H3    H     H_    0.277355 0.111059 0.630809 0.189146
H4    H     H_    0.364286 0.112244 0.801465 0.197162
H5    H     H_    0.358744 0.366189 0.863643 0.143339
H6    H     H_    0.702821 0.725166 0.878813 0.192456
H7    H     H_    0.531792 0.753564 0.875502 0.216664
H8    H     H_    0.699673 0.727654 0.128847 0.185381
H9    H     H_    0.527818 0.753670 0.122990 0.215368
H10   H     H_    0.885260 0.590059 0.293181 0.157046
H11   H     H_    0.891662 0.402799 0.821762 0.196738
H12   H     H_    0.888147 0.296701 0.665794 0.193734
H13   H     H_    0.113478 0.402527 0.820710 0.195826
H14   H     H_    0.110965 0.296423 0.664728 0.190385
H15   H     H_    0.607376 0.113717 0.304849 0.152334
H16   H     H_    0.606599 0.886638 0.305032 0.155346
H17   H     H_    0.276676 0.888318 0.630918 0.193400
N1    N     N_R   0.500790 0.500930 0.147930 -0.202913
N2    N     N_R   0.500790 0.500890 0.852020 -0.189633
O1    O     O_R   0.500000 0.319640 0.618810 -0.583039
O2    O     O_R   0.500010 0.319680 0.381230 -0.578471
O3    O     O_R   0.319650 0.499970 0.618810 -0.582816
O4    O     O_R   0.319660 0.500010 0.381230 -0.573991
O5    O     O_R   0.499990 0.680320 0.618770 -0.580559
O6    O     O_R   0.500000 0.680360 0.381190 -0.587739
O7    O     O_R   0.680340 0.499990 0.618770 -0.577503
O8    O     O_R   0.680350 0.500030 0.381190 -0.587004
C27   C     C_R   0.332341 0.338197 0.134612 0.172755
C28   C     C_R   0.364772 0.214404 0.158426 -0.130719
C29   C     C_R   0.277268 0.130253 0.209903 -0.149898
C30   C     C_R   0.155346 0.167819 0.231574 -0.134848
C31   C     C_R   0.120288 0.288609 0.198558 -0.139408
C32   C     C_R   0.207995 0.372815 0.147549 -0.142499
H18   H     H_    0.457867 0.183507 0.137368 0.117326
H19   H     H_    0.303697 0.035725 0.231638 0.141098
H20   H     H_    0.087507 0.102655 0.271074 0.126157
H21   H     H_    0.025007 0.316643 0.211213 0.140285
H22   H     H_    0.179330 0.464747 0.117400 0.110427

loop_
_geom_bond_atom_site_label_1
_geom_bond_atom_site_label_2
_ccdc_geom_bond_type
Cu1   O1    S    
C2    C22   A    
C12   O3    A    
C23   C24   A    
C1    O1    A    
C6    C7    A    
C27   C32   A    
C7    H15   S    
C25   H10   S    
C4    C22   S    
C9    C10   A    
C9    C20   S    
C5    C13   S    
C14   C17   A    
Cu1   O3    S    
C21   C26   S    
C15   C27   S    
C31   C32   A    
C17   C18   S    
C28   C29   A    
Cu1   O7    S    
C3    H11   S    
C30   C31   A    
C14   N1    A    
C4    H13   S    
C27   C28   A    
Cu2   O6    S    
C11   C13   S    
C12   C23   S    
Cu2   N1    S    
C30   H20   S    
C5    C6    A    
C4    H14   S    
C11   H2    S    
C14   C19   S    
C16   N2    A    
Cu1   Cu2   S    
Cu2   O8    S    
C3    H12   S    
C2    C3    S    
C19   H8    S    
C18   H6    S    
C21   O7    A    
C16   H5    S    
Cu2   O4    S    
C29   C30   A    
C11   H17   S    
C7    C8    A    
C10   C11   S    
C1    C6    S    
C20   O5    A    
C8    H16   S    
C5    C10   A    
C12   O4    A    
C24   C25   A    
Cu1   O5    S    
C2    C26   A    
C18   C19   S    
C18   H7    S    
Cu1   N2    S    
C29   H19   S    
C21   O8    A    
C22   C23   A    
C20   O6    A    
C19   H9    S    
C15   N1    A    
C28   H18   S    
C25   C26   A    
C24   H1    S    
C13   H4    S    
C1    O2    A    
C32   H22   S    
C13   H3    S    
C3    C4    S    
C15   C16   A    
C17   N2    A    
C8    C9    A    
C31   H21   S    
Cu2   O2    S    
