data_mof_unit_18498.cif
_audit_creation_date              2012-12-11T16:53:41-0500
_audit_creation_method            fapswitch 2.2
_symmetry_space_group_name_H-M    P1
_symmetry_Int_Tables_number       1
_space_group_crystal_system       triclinic
_cell_length_a                    14.877206
_cell_length_b                    14.795447
_cell_length_c                    17.169156
_cell_angle_alpha                 109.077944
_cell_angle_beta                  106.191977
_cell_angle_gamma                 107.98894
_cell_volume                      3078.88923942

loop_
_atom_site_label
_atom_site_type_symbol
_atom_type_description
_atom_site_fract_x
_atom_site_fract_y
_atom_site_fract_z
_atom_type_partial_charge
C1    C     C_R   0.088811 0.285274 0.073472 -0.114505
C2    C     C_R   0.060317 0.477413 0.251556 0.203671
C3    C     C_R   0.281489 0.784532 0.178884 0.181166
C4    C     C_R   0.934904 0.477694 0.736205 -0.163139
C5    C     C_R   0.744241 0.470365 0.053386 -0.106261
C6    C     C_R   0.338537 0.778436 0.254371 0.007864
C7    C     C_R   0.717874 0.547920 0.040163 0.068185
C8    C     C_R   0.966977 0.413770 0.249144 0.014821
C9    C     C_R   0.995522 0.814504 0.963633 0.092348
C10   C     C_R   0.524377 0.654089 0.046264 0.162349
C11   C     C_R   0.472100 0.596166 0.083264 0.016833
C12   C     C_R   0.025602 0.503015 0.724377 0.023376
C13   C     C_R   0.528102 0.563201 0.139613 -0.169315
C14   C     C_R   0.621483 0.562916 0.137708 -0.175022
C15   C     C_R   0.656864 0.593645 0.078125 0.029361
C16   C     C_R   0.769516 0.200226 0.814792 -0.121605
C17   C     C_R   0.614917 0.651643 0.042709 0.235328
C18   C     C_3   0.585915 0.649563 0.951044 -0.532531
C19   C     C_3   0.487654 0.653489 0.955445 -0.478320
C20   C     C_R   0.947720 0.374768 0.313447 0.135946
C21   C     C_R   0.028035 0.465354 0.635516 0.154497
C22   C     C_R   0.112628 0.415666 0.537906 -0.215984
C23   C     C_R   0.744066 0.191243 0.728138 0.060466
C24   C     C_R   0.113907 0.452100 0.624256 -0.128825
C25   C     C_R   0.937635 0.431682 0.559320 -0.279336
C26   C     C_R   0.934520 0.392653 0.473700 0.186202
C27   C     C_R   0.024479 0.390323 0.462817 0.174083
C28   C     C_R   0.300910 0.591933 0.002925 -0.128685
C29   C     C_R   0.028144 0.375064 0.379660 -0.263462
C30   C     C_R   0.852242 0.358185 0.319737 -0.141365
C31   C     C_R   0.845430 0.366076 0.399807 -0.216632
C32   C     C_R   0.697729 0.092681 0.644535 0.126278
C33   C     C_R   0.445612 0.849913 0.325176 0.130465
C34   C     C_R   0.359494 0.557363 0.052252 0.059748
C35   C     C_R   0.601225 0.017749 0.399912 -0.203309
C36   C     C_R   0.512309 0.938799 0.322267 -0.155545
C37   C     C_R   0.478091 0.833732 0.402371 -0.269303
C38   C     C_R   0.564021 0.913461 0.480723 0.183944
C39   C     C_R   0.622703 0.008816 0.480912 0.181154
C40   C     C_R   0.767477 0.292910 0.735170 -0.122487
C41   C     C_R   0.692741 0.097308 0.563320 -0.267760
C42   C     C_R   0.649007 0.994298 0.643583 -0.160616
C43   C     C_R   0.583408 0.904273 0.561517 -0.211539
C44   C     C_R   0.089689 0.099914 0.121566 0.124458
C45   C     C_R   0.275038 0.684948 0.249365 -0.193312
C46   C     C_R   0.000956 0.114670 0.085730 -0.027735
C47   C     C_R   0.909881 0.056022 0.091563 -0.259191
C48   C     C_R   0.913010 0.997762 0.142029 0.195238
C49   C     C_R   0.006007 0.994702 0.185705 0.041129
C50   C     C_R   0.090902 0.039251 0.168617 0.057475
C51   C     C_3   0.201569 0.109975 0.234345 -0.527800
C52   C     C_R   0.294768 0.494697 0.077256 -0.092674
C53   C     C_3   0.201160 0.177659 0.184202 0.042754
C54   C     C_R   0.108597 0.562286 0.810262 0.173351
C55   C     C_R   0.916294 0.201471 0.999775 -0.133860
C56   C     C_R   0.752911 0.568010 0.978037 -0.135252
C57   C     C_R   0.002789 0.192062 0.047715 0.105798
C58   C     C_3   0.209383 0.589755 0.395651 -0.948867
C59   C     C_3   0.345862 0.856699 0.087071 -0.914157
C60   C     C_R   0.888951 0.393159 0.171625 -0.206179
C61   C     C_R   0.081459 0.802205 0.006769 -0.124716
C62   C     C_R   0.911495 0.717757 0.931069 -0.134252
H1    H     H_    0.167120 0.313675 0.122226 0.105307
H2    H     H_    0.856727 0.444462 0.686020 0.099872
H3    H     H_    0.569320 0.573090 0.895745 0.198365
H4    H     H_    0.485235 0.729602 0.960927 0.234105
H5    H     H_    0.416601 0.579839 0.902378 0.215766
H6    H     H_    0.098068 0.376930 0.371540 0.153098
H7    H     H_    0.786555 0.352586 0.267973 0.122756
H8    H     H_    0.181497 0.411759 0.530459 0.137305
H9    H     H_    0.774602 0.363504 0.406876 0.131058
H10   H     H_    0.181836 0.470229 0.681662 0.150663
H11   H     H_    0.870389 0.440942 0.565693 0.120298
H12   H     H_    0.749010 0.626242 0.954792 0.113399
H13   H     H_    0.734774 0.171848 0.563733 0.123629
H14   H     H_    0.760636 0.137501 0.835111 0.097652
H15   H     H_    0.654423 0.987650 0.705401 0.122296
H16   H     H_    0.647726 0.089341 0.398469 0.140616
H17   H     H_    0.540226 0.830546 0.561829 0.133013
H18   H     H_    0.495025 0.951543 0.262775 0.168013
H19   H     H_    0.430870 0.765177 0.406681 0.124477
H20   H     H_    0.838421 0.062096 0.064232 0.160293
H21   H     H_    0.210487 0.151064 0.305001 0.185992
H22   H     H_    0.252519 0.069554 0.227513 0.212836
H23   H     H_    0.808839 0.333898 0.140877 0.116344
H24   H     H_    0.210951 0.257708 0.227640 0.102509
H25   H     H_    0.331713 0.657631 0.989593 0.146477
H26   H     H_    0.746423 0.312137 0.679677 0.090147
H27   H     H_    0.317799 0.466864 0.126930 0.097673
H28   H     H_    0.835819 0.151579 0.981090 0.094493
H29   H     H_    0.300302 0.643624 0.285027 0.123496
H30   H     H_    0.208713 0.491017 0.275573 0.147320
H31   H     H_    0.287011 0.598592 0.436045 0.248877
H32   H     H_    0.161064 0.581424 0.434128 0.273827
H33   H     H_    0.219326 0.662876 0.387024 0.259885
H34   H     H_    0.159486 0.857349 0.026107 0.145452
H35   H     H_    0.267601 0.911748 0.162337 0.163932
H36   H     H_    0.372055 0.931534 0.080389 0.282986
H37   H     H_    0.279791 0.792838 0.022521 0.266987
H38   H     H_    0.412021 0.835527 0.101477 0.254918
H39   H     H_    0.833620 0.694168 0.883449 0.097848
H40   H     H_    0.729323 0.435408 0.097306 0.099233
H41   H     H_    0.494647 0.525615 0.175773 0.136918
H42   H     H_    0.656744 0.525435 0.172886 0.132130
H43   H     H_    0.639248 0.722736 0.952853 0.220323
I1    I     I_    0.783101 0.931670 0.166614 -0.461735
I2    I     I_    0.300011 0.175863 0.114309 -0.457985
I3    I     I_    0.251795 0.679849 0.834238 -0.512601
N1    N     N_R   0.055640 0.348550 0.045600 -0.048601
N2    N     N_R   0.811290 0.303400 0.871650 -0.040890
N3    N     N_R   0.205180 0.552990 0.997660 -0.039861
N4    N     N_R   0.814810 0.361830 0.823710 -0.040499
N5    N     N_R   0.201660 0.494570 0.045600 -0.043493
N6    N     N_R   0.068420 0.560530 0.871650 -0.057595
N7    N     N_R   0.948050 0.295860 0.997660 -0.041487
N8    N     N_R   0.185190 0.638170 0.176290 -0.051667
N9    N     N_2   0.160798 0.496978 0.308194 -0.130144
N10   N     N_2   0.313628 0.872461 0.160291 -0.132837
N11   N     N_R   0.798340 0.505430 0.954400 -0.043490
N12   N     N_R   0.931580 0.439470 0.128350 -0.048147
N13   N     N_R   0.051950 0.704140 0.002340 -0.044995
N14   N     N_R   0.944360 0.651450 0.954400 -0.040908
N15   N     N_R   0.039170 0.492150 0.176290 -0.068952
N16   N     N_R   0.188710 0.696600 0.128350 -0.061081
N17   N     N_R   0.794820 0.447010 0.002340 -0.041628
N18   N     N_R   0.960830 0.507850 0.823710 -0.047325
Ni1   Ni    Ni4+2 0.119330 0.493420 0.109950 0.199473
Ni2   Ni    Ni4+2 0.880670 0.506580 0.890050 0.217645
Ni3   Ni    Ni4+2 0.872590 0.372590 0.000000 0.215978
Ni4   Ni    Ni4+2 0.127410 0.627410 0.000000 0.225495

loop_
_geom_bond_atom_site_label_1
_geom_bond_atom_site_label_2
_ccdc_geom_bond_type
C6    C45   A    
C27   C29   A    
C59   H37   S    
C35   C36   A    
N13   Ni4   S    
H30   N9    S    
C3    C6    A    
C61   H34   S    
C16   N2    A    
C40   N4    A    
C20   C30   A    
C52   N5    A    
C18   H3    S    
C26   C27   A    
C8    C20   S    
C19   H4    S    
C9    C61   A    
C58   H31   S    
C55   H28   S    
C30   C31   A    
N6    N18   A    
C10   C17   A    
C43   H17   S    
C23   C40   A    
C33   C36   A    
N2    Ni3   S    
C61   N13   A    
C18   C19   S    
C47   H20   S    
H35   N10   S    
C1    N1    A    
C46   C47   A    
C14   H42   S    
C44   C53   S    
N1    Ni1   S    
C48   I1    S    
N8    Ni1   S    
C32   C41   A    
C19   H5    S    
C53   H24   S    
C4    C12   A    
N12   N15   A    
C62   H39   S    
N11   Ni2   S    
C31   H9    S    
C28   C34   A    
C26   C31   A    
C13   C14   A    
C59   H38   S    
N6    Ni4   S    
C37   H19   S    
C52   H27   S    
C7    C56   A    
C1    H1    S    
C2    N9    S    
C44   C46   A    
C50   C51   S    
C20   C29   A    
C28   N3    A    
C56   H12   S    
C9    C62   A    
C39   C41   A    
C36   H18   S    
C5    C7    A    
C25   C26   A    
C2    N15   A    
C12   C21   S    
C58   N9    S    
C33   C37   A    
N12   Ni3   S    
C51   C53   S    
C35   C39   A    
C58   H33   S    
C37   C38   A    
C3    N10   S    
C1    C57   A    
C41   H13   S    
C29   H6    S    
C53   I2    S    
N3    Ni4   S    
N15   Ni1   S    
C47   C48   A    
C10   C19   S    
C28   H25   S    
C17   C18   S    
N16   Ni4   S    
N3    N5    A    
N13   N14   A    
N11   N17   A    
C48   C49   A    
C59   N10   S    
C22   C27   A    
C55   C57   A    
C46   C57   S    
C56   N11   A    
C22   C24   A    
C13   H41   S    
C42   C43   A    
C51   H21   S    
C62   N14   A    
C30   H7    S    
C3    N16   A    
C24   H10   S    
N7    Ni3   S    
C44   C50   A    
C15   C17   A    
C21   C25   A    
C5    H40   S    
N18   Ni2   S    
N8    N16   A    
C16   H14   S    
C11   C34   S    
C2    C8    A    
C60   H23   S    
N5    Ni1   S    
C4    N18   A    
C16   C23   A    
C4    H2    S    
C35   H16   S    
C34   C52   A    
C6    C33   S    
C54   I3    S    
C23   C32   S    
C40   H26   S    
C58   H32   S    
C18   H43   S    
C38   C43   A    
C8    C60   A    
C11   C13   A    
C45   N8    A    
C38   C39   A    
C55   N7    A    
C54   N6    A    
C7    C15   S    
C60   N12   A    
C25   H11   S    
N14   Ni2   S    
C45   H29   S    
N2    N4    A    
N4    Ni2   S    
C10   C11   A    
N1    N7    A    
N17   Ni3   S    
C42   H15   S    
C49   C50   A    
C21   C24   A    
C5    N17   A    
C59   H36   S    
C32   C42   A    
C14   C15   A    
C51   H22   S    
C22   H8    S    
C12   C54   A    
