data_mof_unit_31074.cif
_audit_creation_date              2012-12-11T15:52:28-0500
_audit_creation_method            fapswitch 2.2
_symmetry_space_group_name_H-M    P1
_symmetry_Int_Tables_number       1
_space_group_crystal_system       triclinic
_cell_length_a                    7.008068
_cell_length_b                    14.710084
_cell_length_c                    16.067902
_cell_angle_alpha                 90.006316
_cell_angle_beta                  90.099552
_cell_angle_gamma                 90.575664
_cell_volume                      1656.34215223

loop_
_atom_site_label
_atom_site_type_symbol
_atom_type_description
_atom_site_fract_x
_atom_site_fract_y
_atom_site_fract_z
_atom_type_partial_charge
O1    O     O_R   0.494400 0.415640 0.412830 -0.530748
O2    O     O_R   0.823920 0.405510 0.586560 -0.520802
O3    O     O_R   0.994250 0.584360 0.587170 -0.540891
C1    C     C_R   0.653250 0.381711 0.613653 0.842337
O4    O     O_R   0.824110 0.404610 0.413450 -0.532913
O5    O     O_R   0.994440 0.583460 0.412820 -0.550764
C2    C     C_R   0.654783 0.382521 0.384534 0.798664
O6    O     O_R   0.494210 0.416540 0.587180 -0.513268
O7    O     O_3   0.660810 0.558680 0.500000 -0.344896
V1    V     V_3+5 0.935650 0.489110 0.500000 1.720943
O8    O     O_R   0.324150 0.594490 0.413440 -0.515242
C3    C     C_R   0.155754 0.618119 0.386104 0.816493
O9    O     O_R   0.323970 0.595390 0.586550 -0.490644
C4    C     C_R   0.155192 0.613112 0.618159 0.828095
V2    V     V_3+5 0.435660 0.510890 0.500000 1.786824
O10   O     O_3   0.160630 0.441320 0.500000 -0.360855
C5    C     C_3   0.948444 0.662557 0.743784 -0.297903
C6    C     C_3   0.949176 0.729551 0.822814 0.586588
C7    C     C_3   0.139513 0.781947 0.651075 0.449736
C8    C     C_3   0.309036 0.676359 0.751096 0.228512
C9    C     C_3   0.136770 0.681718 0.689571 -0.321462
H1    H     H_    0.433980 0.693560 0.715575 0.189217
C10   C     C_3   0.109930 0.806115 0.813465 -0.234653
C11   C     C_3   0.093819 0.855419 0.722590 -0.283423
C12   C     C_3   0.299415 0.752087 0.819104 -0.358915
H2    H     H_    0.401160 0.804093 0.798777 0.215150
C13   C     C_R   0.983918 0.745100 0.194524 0.429802
C14   C     C_R   0.997246 0.683358 0.260580 -0.158745
H3    H     H_    0.891270 0.629441 0.265310 0.181838
C15   C     C_R   0.146426 0.688160 0.318768 -0.170743
C16   C     C_R   0.282227 0.759548 0.311538 0.418793
C17   C     C_R   0.269263 0.823353 0.245700 -0.149526
C18   C     C_R   0.121411 0.815664 0.184805 -0.215481
C19   C     C_R   0.785991 0.248743 0.693141 0.344275
C20   C     C_R   0.785976 0.191035 0.762668 0.392976
C21   C     C_R   0.626957 0.187709 0.817803 -0.303252
C22   C     C_R   0.481004 0.252826 0.807265 -0.135636
C23   C     C_R   0.480397 0.309236 0.736452 0.459956
C24   C     C_R   0.638451 0.311869 0.681199 -0.305752
C25   C     C_R   0.747450 0.232432 0.317882 0.325370
C26   C     C_R   0.735634 0.168230 0.252413 0.379973
C27   C     C_R   0.620283 0.184433 0.181618 -0.239402
C28   C     C_R   0.516818 0.267064 0.177988 -0.121239
C29   C     C_R   0.530387 0.331485 0.243510 0.312983
C30   C     C_R   0.643851 0.314455 0.314619 -0.251658
O11   O     O_R   0.771300 0.080930 0.910090 -0.500035
O12   O     O_R   0.441270 0.092800 0.083770 -0.531717
O13   O     O_R   0.271080 0.913920 0.084380 -0.582666
C31   C     C_R   0.610431 0.115600 0.112178 0.731945
O14   O     O_R   0.441580 0.091910 0.910670 -0.550150
O15   O     O_R   0.271390 0.913020 0.910040 -0.547802
C32   C     C_R   0.612264 0.116532 0.884304 0.811077
O16   O     O_R   0.770990 0.081830 0.084440 -0.529495
O17   O     O_3   0.604750 0.938760 0.997250 -0.367985
V3    V     V_3+5 0.329850 0.008280 0.997210 1.606317
O18   O     O_R   0.941680 0.901940 0.910610 -0.472019
C33   C     C_R   0.108180 0.878122 0.883405 0.833737
O19   O     O_R   0.941370 0.902830 0.083720 -0.506316
C34   C     C_R   0.110007 0.881612 0.113360 0.751052
V4    V     V_3+5 0.829860 0.986420 0.997150 1.736361
O20   O     O_3   0.104830 0.056030 0.997180 -0.365793
C35   C     C_2   0.774352 0.677186 0.688511 0.488076
H4    H     H_    0.728677 0.744513 0.672593 0.115106
O21   O     O_2   0.682418 0.613279 0.660074 -0.497745
Cl1   Cl    Cl    0.369106 0.804044 0.601735 -0.534500
C36   C     C_2   0.226443 0.938268 0.711170 0.594989
H5    H     H_    0.205405 0.981772 0.657285 0.142469
O22   O     O_2   0.358378 0.956802 0.757919 -0.502611
Cl2   Cl    Cl    0.793295 0.727930 0.124245 -0.526196
Cl3   Cl    Cl    0.468928 0.771739 0.385529 -0.443573
C37   C     C_2   0.408074 0.899991 0.243740 0.617379
H6    H     H_    0.512479 0.905146 0.194165 0.044609
O23   O     O_2   0.407188 0.957600 0.298423 -0.436848
Cl4   Cl    Cl    0.962082 0.231667 0.615689 -0.431280
Cl5   Cl    Cl    0.998440 0.129796 0.780594 -0.569084
C38   C     C_2   0.338420 0.270851 0.873784 0.552172
H7    H     H_    0.250254 0.217601 0.900110 0.102195
O24   O     O_2   0.316644 0.348165 0.899525 -0.450498
C39   C     C_2   0.934387 0.562377 0.770788 0.729041
H8    H     H_    0.023282 0.511529 0.742656 0.071930
O25   O     O_2   0.807165 0.535666 0.816876 -0.423714
Cl6   Cl    Cl    0.266089 0.367456 0.714985 -0.523426
Cl7   Cl    Cl    0.888378 0.206973 0.405932 -0.425499
Cl8   Cl    Cl    0.860576 0.064640 0.262057 -0.489688
C40   C     C_2   0.401400 0.290575 0.104032 0.496436
H9    H     H_    0.441537 0.348982 0.066501 0.133404
O26   O     O_2   0.255000 0.248608 0.087678 -0.501352
Cl9   Cl    Cl    0.407676 0.435930 0.234463 -0.602554
Cl10  Cl    Cl    0.963423 0.672020 0.922083 -0.431660
Cl11  Cl    Cl    0.726847 0.777681 0.837684 -0.654860
Cl12  Cl    Cl    0.991146 0.790084 0.558779 -0.551359
C41   C     C_2   0.896841 0.898609 0.710616 0.449486
H10   H     H_    0.812216 0.889916 0.655098 0.163598
O27   O     O_2   0.832340 0.951188 0.761671 -0.460875
Cl13  Cl    Cl    0.369107 0.563871 0.784524 -0.439223
C42   C     C_2   0.362507 0.725508 0.908355 0.760378
H11   H     H_    0.408627 0.777465 0.951728 0.052310
O28   O     O_2   0.369465 0.647399 0.933485 -0.393253

loop_
_geom_bond_atom_site_label_1
_geom_bond_atom_site_label_2
_ccdc_geom_bond_type
O13   V3    S    
C36   O22   D    
C26   C27   A    
C20   C21   A    
C1    O6    A    
O12   C31   A    
O17   V4    S    
C40   H9    S    
C13   C18   A    
C20   Cl5   S    
C35   H4    S    
C2    C30   S    
C4    C9    S    
C21   C22   A    
C7    C9    S    
C38   O24   D    
O5    C3    A    
C23   C24   A    
C8    C12   S    
O19   V4    S    
V2    O10   S    
O11   C32   A    
C5    C39   S    
O18   C33   A    
C19   C20   A    
C35   O21   D    
O8    V2    S    
C19   C24   A    
C16   Cl3   S    
C42   O28   D    
O14   C32   A    
C10   C11   S    
O15   C33   A    
O7    V1    S    
C21   C32   S    
C11   C36   S    
O11   V4    S    
C36   H5    S    
C18   C34   S    
O9    C4    A    
C23   Cl6   S    
C25   Cl7   S    
C11   C41   S    
O16   V4    S    
C17   C37   S    
O4    C2    A    
C40   O26   D    
C25   C30   A    
C6    C10   S    
C6    Cl11  S    
C38   H7    S    
C37   O23   D    
O19   C34   A    
C26   Cl8   S    
C5    C9    S    
O18   V4    S    
V4    O20   S    
C28   C40   S    
O2    C1    A    
C28   C29   A    
C22   C23   A    
C5    C35   S    
C16   C17   A    
C1    C24   S    
C42   H11   S    
C41   O27   D    
C5    C6    S    
O3    C4    A    
C19   Cl4   S    
O1    V2    S    
C25   C26   A    
C22   C38   S    
C8    H1    S    
O6    V2    S    
O9    V2    S    
C27   C28   A    
O2    V1    S    
C29   C30   A    
O13   C34   A    
O12   V3    S    
C10   C33   S    
O17   V3    S    
C14   H3    S    
C3    C15   S    
O1    C2    A    
C6    Cl10  S    
C8    Cl13  S    
C13   Cl2   S    
O5    V1    S    
O8    C3    A    
C39   O25   D    
O14   V3    S    
C17   C18   A    
C14   C15   A    
C7    C11   S    
C12   H2    S    
O4    V1    S    
O3    V1    S    
V1    O10   S    
C15   C16   A    
C31   O16   A    
V3    O20   S    
C41   H10   S    
C7    Cl1   S    
O15   V3    S    
C10   C12   S    
O7    V2    S    
C7    Cl12  S    
C27   C31   S    
C39   H8    S    
C37   H6    S    
C8    C9    S    
C12   C42   S    
C13   C14   A    
C29   Cl9   S    
