data_mof_unit_7222.cif
_audit_creation_date              2012-12-11T15:48:49-0500
_audit_creation_method            fapswitch 2.2
_symmetry_space_group_name_H-M    P1
_symmetry_Int_Tables_number       1
_space_group_crystal_system       triclinic
_cell_length_a                    11.038123
_cell_length_b                    10.937215
_cell_length_c                    18.818844
_cell_angle_alpha                 90.490296
_cell_angle_beta                  90.332843
_cell_angle_gamma                 60.716865
_cell_volume                      1981.53142378

loop_
_atom_site_label
_atom_site_type_symbol
_atom_type_description
_atom_site_fract_x
_atom_site_fract_y
_atom_site_fract_z
_atom_type_partial_charge
C1    C     C_R   0.239723 0.646632 0.610299 0.553957
C2    C     C_R   0.570282 0.146371 0.711087 -0.180026
C3    C     C_R   0.570546 0.145827 0.784257 -0.164583
C4    C     C_R   0.654120 0.620896 0.601263 0.537179
C5    C     C_3   0.914704 0.119380 0.786342 -0.253616
C6    C     C_3   0.902143 0.131360 0.706255 -0.243384
C7    C     C_R   0.660829 0.178238 0.674785 0.013655
C8    C     C_R   0.175927 0.673508 0.834142 -0.006457
C9    C     C_R   0.153600 0.580128 0.792854 0.005429
C10   C     C_R   0.162756 0.578471 0.719544 -0.031695
C11   C     C_R   0.199283 0.779625 0.725043 0.035509
C12   C     C_3   0.702064 0.533670 0.799142 -0.252320
C13   C     C_R   0.199018 0.773143 0.799043 -0.158275
C14   C     C_3   0.225012 0.424219 0.796498 -0.275348
C15   C     C_3   0.233045 0.422771 0.716038 -0.264050
C16   C     C_R   0.626906 0.229191 0.602639 0.539049
C17   C     C_R   0.191371 0.672858 0.683876 0.024109
C18   C     C_R   0.676118 0.681110 0.174505 0.020017
C19   C     C_R   0.790457 0.584600 0.213609 0.049213
C20   C     C_R   0.787565 0.578101 0.286181 0.029139
C21   C     C_R   0.558757 0.779545 0.286777 -0.166642
C22   C     C_R   0.562151 0.784949 0.212132 -0.167909
C23   C     C_3   0.703023 0.672062 0.812740 0.047900
C24   C     C_3   0.874030 0.429541 0.204550 -0.274780
C25   C     C_3   0.873920 0.421311 0.284602 -0.270214
C26   C     C_R   0.666772 0.667299 0.323759 0.018003
C27   C     C_R   0.648756 0.177744 0.171740 0.016789
C28   C     C_R   0.218583 0.650770 0.402645 0.550167
C29   C     C_R   0.520871 0.227877 0.205631 0.016888
C30   C     C_R   0.514320 0.235957 0.278546 0.045825
C31   C     C_R   0.757417 0.165168 0.285996 -0.169879
C32   C     C_R   0.763660 0.160913 0.212220 -0.163523
C33   C     C_3   0.413551 0.182159 0.201560 -0.271049
C34   C     C_3   0.675617 0.644208 0.676832 0.035437
C35   C     C_3   0.409802 0.187099 0.281887 -0.267404
C36   C     C_R   0.633516 0.195493 0.319897 0.024692
C37   C     C_R   0.107540 0.695664 0.190822 0.022308
C38   C     C_R   0.090005 0.811859 0.230068 0.041874
C39   C     C_R   0.102129 0.807455 0.302411 0.021449
C40   C     C_R   0.643221 0.624173 0.393163 0.543904
C41   C     C_R   0.125602 0.576182 0.301420 -0.152241
C42   C     C_R   0.112490 0.581893 0.227270 -0.154579
C43   C     C_3   0.159402 0.898362 0.221000 -0.273048
C44   C     C_3   0.171170 0.896728 0.300729 -0.269321
C45   C     C_3   0.800434 0.668232 0.688874 -0.252628
C46   C     C_R   0.137270 0.682559 0.338076 0.018044
C47   C     C_R   0.700868 0.100836 0.895965 0.540424
C48   C     C_R   0.724802 0.687952 0.888394 0.544592
C49   C     C_R   0.118099 0.706540 0.905785 0.542347
C50   C     C_R   0.675288 0.108679 0.103248 0.551061
C51   C     C_R   0.699794 0.692280 0.099274 0.545485
C52   C     C_R   0.614297 0.232318 0.394188 0.546480
C53   C     C_R   0.084844 0.714147 0.115136 0.549039
C54   C     C_3   0.565251 0.794428 0.785650 -0.233327
C55   C     C_3   0.545755 0.768649 0.707763 -0.223360
C56   C     C_3   0.699899 0.511789 0.718716 -0.215427
C57   C     C_3   0.823964 0.671273 0.769699 -0.216851
C58   C     C_R   0.674833 0.156621 0.823920 0.019762
C59   C     C_R   0.761189 0.193192 0.787767 -0.018788
C60   C     C_R   0.751083 0.206573 0.714125 -0.006793
Cr1   Cr    Cr6+3 0.392960 0.397920 0.502240 1.014622
Cr2   Cr    Cr6+3 0.398340 0.708480 0.501250 1.037938
Cr3   Cr    Cr6+3 0.708670 0.393570 0.496460 1.014340
Cr4   Cr    Cr6+3 0.937650 0.938540 0.007610 1.007523
Cr5   Cr    Cr6+3 0.625330 0.937370 0.994520 1.004279
Cr6   Cr    Cr6+3 0.937940 0.625230 0.001190 1.008787
H1    H     H_    0.567987 0.894008 0.790391 0.146522
H2    H     H_    0.935347 0.029599 0.678507 0.175421
H3    H     H_    0.475873 0.804907 0.817489 0.136703
H4    H     H_    0.208670 0.852775 0.829185 0.156077
H5    H     H_    0.155931 0.385128 0.816792 0.142294
H6    H     H_    0.327437 0.380701 0.823428 0.144315
H7    H     H_    0.339939 0.378678 0.695533 0.178508
H8    H     H_    0.167687 0.384155 0.689658 0.145643
H9    H     H_    0.468509 0.856870 0.314879 0.115100
H10   H     H_    0.474396 0.865613 0.183925 0.113720
H11   H     H_    0.978515 0.394480 0.181880 0.134490
H12   H     H_    0.801767 0.423423 0.702924 0.147473
H13   H     H_    0.814097 0.385003 0.177848 0.139410
H14   H     H_    0.816838 0.368724 0.303786 0.171712
H15   H     H_    0.465924 0.735726 0.705671 0.182115
H16   H     H_    0.978287 0.383714 0.308653 0.125514
H17   H     H_    0.849351 0.143122 0.316409 0.122164
H18   H     H_    0.862216 0.130780 0.187472 0.135171
H19   H     H_    0.453782 0.075136 0.180095 0.164852
H20   H     H_    0.315618 0.262600 0.176613 0.125846
H21   H     H_    0.308741 0.267324 0.303532 0.134695
H22   H     H_    0.452518 0.082357 0.306758 0.137600
H23   H     H_    0.921596 0.575507 0.783848 0.147458
H24   H     H_    0.140707 0.483507 0.328894 0.120901
H25   H     H_    0.114029 0.495342 0.198577 0.119547
H26   H     H_    0.090460 0.004192 0.199501 0.133301
H27   H     H_    0.515642 0.865090 0.676277 0.160225
H28   H     H_    0.261427 0.839711 0.193795 0.138035
H29   H     H_    0.280624 0.840655 0.318028 0.169421
H30   H     H_    0.106766 0.001326 0.325763 0.127574
H31   H     H_    0.835556 0.764291 0.783459 0.124229
H32   H     H_    0.779599 0.769255 0.664731 0.120733
H33   H     H_    0.795682 0.443511 0.822440 0.136170
H34   H     H_    0.895483 0.583091 0.663509 0.134007
H35   H     H_    0.609071 0.537495 0.824147 0.119315
H36   H     H_    0.617098 0.484925 0.705761 0.127864
H37   H     H_    0.493504 0.129222 0.683324 0.147444
H38   H     H_    0.493534 0.125966 0.808839 0.147603
H39   H     H_    0.959618 0.010384 0.805645 0.176649
H40   H     H_    0.958290 0.182479 0.810702 0.141379
H41   H     H_    0.941080 0.198339 0.682906 0.168483
I1    I     I_    0.218287 0.955358 0.685122 -0.530632
O1    O     O_R   0.507380 0.255700 0.581440 -0.532549
O2    O     O_R   0.837170 0.593410 0.915250 -0.529577
O3    O     O_R   0.065200 0.635530 0.931570 -0.498196
O4    O     O_R   0.280320 0.527350 0.578930 -0.513446
O5    O     O_R   0.068260 0.828890 0.091840 -0.522042
O6    O     O_R   0.798870 0.057410 0.079340 -0.512616
O7    O     O_R   0.584930 0.080350 0.076780 -0.522824
O8    O     O_R   0.626960 0.809650 0.067060 -0.505857
O9    O     O_R   0.816040 0.596610 0.076510 -0.520751
O10   O     O_R   0.045610 0.638500 0.081060 -0.508801
O11   O     O_3   0.833640 0.833710 0.001100 -0.254392
O12   O     O_R   0.524480 0.695810 0.424040 -0.509310
O13   O     O_R   0.260510 0.739590 0.584590 -0.477454
O14   O     O_R   0.532300 0.695080 0.573820 -0.493151
O15   O     O_R   0.744840 0.503500 0.576370 -0.525610
O16   O     O_R   0.699120 0.276560 0.571960 -0.497350
O17   O     O_R   0.498940 0.256500 0.419860 -0.517463
O18   O     O_R   0.272500 0.528080 0.429150 -0.506849
O19   O     O_R   0.252060 0.740380 0.423010 -0.523073
O20   O     O_R   0.736390 0.504290 0.414790 -0.523299
O21   O     O_R   0.691300 0.277290 0.422170 -0.510169
O22   O     O_3   0.499990 0.499990 0.499980 -0.259427
O23   O     O_R   0.089400 0.825690 0.930570 -0.531688
O24   O     O_R   0.818460 0.054440 0.929850 -0.503281
O25   O     O_R   0.606060 0.077150 0.915510 -0.535728
O26   O     O_R   0.646550 0.806680 0.917570 -0.509847

loop_
_geom_bond_atom_site_label_1
_geom_bond_atom_site_label_2
_ccdc_geom_bond_type
C3    H38   S    
C48   O2    A    
C21   C26   A    
C34   C56   S    
C8    C13   A    
C27   C29   A    
C25   H14   S    
C14   H5    S    
Cr2   O22   S    
C2    C7    A    
C22   H10   S    
C55   H27   S    
Cr1   O1    S    
Cr3   O16   S    
C56   H12   S    
C5    H39   S    
C49   O23   A    
C12   C23   S    
C45   C57   S    
C29   C30   A    
Cr4   O11   S    
C57   H23   S    
C30   C35   S    
C52   O21   A    
C48   O26   A    
C18   C19   A    
C45   H32   S    
C31   C36   A    
C1    O4    A    
C5    C6    S    
C13   H4    S    
C10   C17   A    
C40   O20   A    
C29   C33   S    
C43   H28   S    
C31   H17   S    
C42   H25   S    
C41   C42   A    
Cr3   O22   S    
C37   C42   A    
C33   H19   S    
C12   H33   S    
C33   C35   S    
C35   H21   S    
Cr4   O24   S    
C53   O5    A    
C8    C9    A    
Cr6   O9    S    
C18   C51   S    
C41   C46   A    
Cr1   O18   S    
C23   C48   S    
Cr6   O3    S    
C55   H15   S    
C9    C10   A    
Cr2   O12   S    
Cr3   O20   S    
C36   C52   S    
C27   C50   S    
C49   O3    A    
C37   C53   S    
C6    H2    S    
C41   H24   S    
C34   C55   S    
C21   C22   A    
C47   O25   A    
C33   H20   S    
Cr5   O7    S    
C28   O18   A    
C16   O1    A    
C5    H40   S    
C38   C39   A    
C32   H18   S    
C4    C34   S    
Cr4   O6    S    
C5    C59   S    
C6    C60   S    
C20   C25   S    
C24   C25   S    
C53   O10   A    
C51   O8    A    
C54   H1    S    
C58   C59   A    
C4    O15   A    
C10   C15   S    
C50   O6    A    
C9    C14   S    
C59   C60   A    
C37   C38   A    
C44   H30   S    
C35   H22   S    
C24   H13   S    
C31   C32   A    
Cr4   O23   S    
C6    H41   S    
C57   H31   S    
Cr5   O11   S    
C4    O14   A    
C34   C45   S    
Cr6   O2    S    
C12   C56   S    
Cr1   O22   S    
C39   C46   A    
C7    C16   S    
C15   H7    S    
Cr6   O11   S    
C43   C44   S    
C25   H16   S    
Cr5   O8    S    
C7    C60   A    
Cr2   O14   S    
C23   C54   S    
C23   C57   S    
C54   C55   S    
C11   C17   A    
Cr4   O5    S    
C40   O12   A    
C27   C32   A    
C18   C22   A    
C14   H6    S    
Cr5   O26   S    
C45   H34   S    
Cr3   O15   S    
C52   O17   A    
C28   O19   A    
C39   C44   S    
C21   H9    S    
C1    C17   S    
C43   H26   S    
C30   C36   A    
C47   O24   A    
C28   C46   S    
C19   C20   A    
C2    C3    A    
C16   O16   A    
C56   H36   S    
C12   H35   S    
C44   H29   S    
C50   O7    A    
C47   C58   S    
C11   C13   A    
C26   C40   S    
Cr2   O19   S    
C54   H3    S    
C20   C26   A    
C2    H37   S    
C51   O9    A    
C19   C24   S    
Cr3   O21   S    
C1    O13   A    
C3    C58   A    
C24   H11   S    
C38   C43   S    
C15   H8    S    
Cr6   O10   S    
C11   I1    S    
C14   C15   S    
Cr1   O17   S    
Cr1   O4    S    
C8    C49   S    
Cr2   O13   S    
Cr5   O25   S    
