data_mof_unit_42321.cif
_audit_creation_date              2012-12-10T17:19:15-0500
_audit_creation_method            fapswitch 2.2
_symmetry_space_group_name_H-M    P1
_symmetry_Int_Tables_number       1
_space_group_crystal_system       triclinic
_cell_length_a                    18.260484
_cell_length_b                    18.260442
_cell_length_c                    34.250567
_cell_angle_alpha                 89.999598
_cell_angle_beta                  89.999464
_cell_angle_gamma                 90.000138
_cell_volume                      11420.6634946

loop_
_atom_site_label
_atom_site_type_symbol
_atom_type_description
_atom_site_fract_x
_atom_site_fract_y
_atom_site_fract_z
_atom_type_partial_charge
C1    C     C_R   0.634249 0.001142 0.520526 0.260203
C2    C     C_R   0.865749 0.501158 0.979474 0.260202
C3    C     C_R   0.499793 0.932647 0.958931 -0.008347
C4    C     C_R   0.932648 0.499759 0.041070 -0.008346
C5    C     C_R   0.067350 0.499808 0.958930 -0.008355
C6    C     C_R   0.500234 0.932647 0.041070 -0.008343
C7    C     C_R   0.500198 0.067350 0.958931 -0.008358
C8    C     C_R   0.000000 0.500000 0.644235 0.490246
C9    C     C_R   1.000000 0.500001 0.355765 0.490246
C10   C     C_R   0.499999 0.000000 0.644235 0.490248
C11   C     C_R   0.500000 1.000000 0.355765 0.490248
C12   C     C_R   0.500000 1.000000 0.144235 0.490246
C13   C     C_R   0.498754 0.134248 0.020525 0.260196
C14   C     C_R   0.500000 0.999999 0.855765 0.490248
C15   C     C_R   0.000000 0.500000 0.144235 0.490247
C16   C     C_R   0.999999 0.500000 0.855765 0.490248
C17   C     C_R   0.860144 0.639856 0.750000 0.483064
C18   C     C_R   0.139846 0.360150 0.250001 0.483408
C19   C     C_R   0.360143 0.860144 0.750000 0.483066
C20   C     C_R   0.639849 0.139847 0.250001 0.483413
C21   C     C_R   0.139856 0.360143 0.750000 0.483068
C22   C     C_R   0.860152 0.639848 0.250000 0.483413
C23   C     C_R   0.639856 0.139856 0.750000 0.483065
C24   C     C_R   0.498828 0.865747 0.979474 0.260201
C25   C     C_R   0.360153 0.860151 0.250000 0.483412
C26   C     C_R   0.860143 0.360145 0.249999 0.483066
C27   C     C_R   0.139848 0.639848 0.750000 0.483410
C28   C     C_R   0.360144 0.139856 0.250000 0.483064
C29   C     C_R   0.639848 0.860152 0.750000 0.483408
C30   C     C_R   0.139855 0.639857 0.250001 0.483066
C31   C     C_R   0.860152 0.360152 0.750000 0.483410
C32   C     C_R   0.639856 0.860143 0.250000 0.483067
C33   C     C_R   0.360152 0.139848 0.750000 0.483412
C34   C     C_R   0.266402 0.625607 0.798864 -0.085960
C35   C     C_R   0.865749 0.498761 0.020528 0.260202
C36   C     C_R   0.733214 0.374667 0.201401 -0.088939
C37   C     C_R   0.233597 0.125606 0.701137 -0.085958
C38   C     C_R   0.625332 0.733213 0.201403 -0.088936
C39   C     C_R   0.874400 0.233590 0.701141 -0.085960
C40   C     C_R   0.125343 0.766776 0.298608 -0.088937
C41   C     C_R   0.766401 0.874389 0.701132 -0.085961
C42   C     C_R   0.233329 0.125442 0.298691 -0.088950
C43   C     C_R   0.125709 0.233693 0.298948 -0.085971
C44   C     C_R   0.874662 0.766779 0.701396 -0.088935
C45   C     C_R   0.233602 0.874388 0.298869 -0.085960
C46   C     C_R   0.134249 0.498856 0.979472 0.260200
C47   C     C_R   0.766789 0.125330 0.701403 -0.088935
C48   C     C_R   0.733594 0.625605 0.201138 -0.085965
C49   C     C_R   0.125335 0.233215 0.701400 -0.088933
C50   C     C_R   0.625602 0.266407 0.201140 -0.085962
C51   C     C_R   0.374663 0.733217 0.798601 -0.088935
C52   C     C_R   0.766409 0.125604 0.298862 -0.085972
C53   C     C_R   0.233219 0.874665 0.701399 -0.088935
C54   C     C_R   0.874393 0.766405 0.298863 -0.085966
C55   C     C_R   0.266783 0.374667 0.798598 -0.088934
C56   C     C_R   0.374389 0.733599 0.201132 -0.085969
C57   C     C_R   0.501224 0.865748 0.020528 0.260197
C58   C     C_R   0.625324 0.266793 0.798591 -0.088934
C59   C     C_R   0.266317 0.374306 0.201067 -0.085966
C60   C     C_R   0.733221 0.625340 0.798605 -0.088936
C61   C     C_R   0.625611 0.733600 0.798868 -0.085960
C62   C     C_R   0.374578 0.266697 0.201329 -0.088943
C63   C     C_R   0.733587 0.374401 0.798856 -0.085960
C64   C     C_R   0.266780 0.625336 0.201399 -0.088934
C65   C     C_R   0.374393 0.266405 0.798863 -0.085961
C66   C     C_R   0.766782 0.874665 0.298600 -0.088937
C67   C     C_R   0.125609 0.766404 0.701135 -0.085957
C68   C     C_R   0.501153 0.134249 0.979472 0.260210
C69   C     C_R   0.874670 0.233215 0.298596 -0.088934
C70   C     C_R   0.327878 0.618224 0.822664 -0.115117
C71   C     C_R   0.671799 0.381944 0.177549 -0.118208
C72   C     C_R   0.172121 0.118224 0.677337 -0.115104
C73   C     C_R   0.618055 0.671799 0.177550 -0.118196
C74   C     C_R   0.881784 0.172113 0.677343 -0.115114
C75   C     C_R   0.118070 0.828186 0.322465 -0.118216
C76   C     C_R   0.827875 0.881768 0.677331 -0.115121
C77   C     C_R   0.171969 0.118216 0.322589 -0.118333
C78   C     C_R   0.118383 0.172271 0.322793 -0.115223
C79   C     C_R   0.312571 0.742022 0.774235 0.012303
C80   C     C_R   0.881936 0.828190 0.677540 -0.118208
C81   C     C_R   0.172129 0.881767 0.322671 -0.115128
C82   C     C_R   0.828204 0.118052 0.677551 -0.118202
C83   C     C_R   0.672117 0.618221 0.177341 -0.115121
C84   C     C_R   0.118060 0.171802 0.677547 -0.118191
C85   C     C_R   0.618218 0.327885 0.177342 -0.115126
C86   C     C_R   0.381939 0.671803 0.822454 -0.118200
C87   C     C_R   0.827888 0.118221 0.322659 -0.115129
C88   C     C_R   0.171807 0.881941 0.677544 -0.118214
C89   C     C_R   0.881774 0.827881 0.322663 -0.115126
C90   C     C_R   0.687476 0.257862 0.225699 0.012318
C91   C     C_R   0.328196 0.381943 0.822452 -0.118201
C92   C     C_R   0.381770 0.672122 0.177333 -0.115128
C93   C     C_R   0.618042 0.328211 0.822441 -0.118193
C94   C     C_R   0.327754 0.381650 0.177235 -0.115180
C95   C     C_R   0.671811 0.618067 0.822462 -0.118211
C96   C     C_R   0.618232 0.672127 0.822670 -0.115124
C97   C     C_R   0.381815 0.328071 0.177444 -0.118275
C98   C     C_R   0.672104 0.381789 0.822651 -0.115110
C99   C     C_R   0.328192 0.618060 0.177544 -0.118193
C100  C     C_R   0.381774 0.327882 0.822662 -0.115116
C101  C     C_R   0.187428 0.242021 0.725765 0.012303
C102  C     C_R   0.828195 0.881941 0.322454 -0.118202
C103  C     C_R   0.118228 0.827880 0.677335 -0.115117
C104  C     C_R   0.881950 0.171800 0.322449 -0.118191
C105  C     C_R   0.499999 0.000010 0.520507 -0.052928
C106  C     C_R   0.499999 0.000009 0.479492 -0.052916
C107  C     C_R   0.999995 0.500001 0.520507 -0.052931
C108  C     C_R   0.999994 0.500002 0.479492 -0.052929
C109  C     C_R   0.999999 0.500004 0.020508 -0.052927
C110  C     C_R   0.999999 0.500003 0.979492 -0.052928
C111  C     C_R   0.499996 0.999998 0.020508 -0.052924
C112  C     C_R   0.365751 0.001295 0.479474 0.260194
C113  C     C_R   0.742139 0.687476 0.225698 0.012319
C114  C     C_R   0.499996 0.999998 0.979492 -0.052929
C115  C     C_3   0.729295 0.069284 0.543756 0.017816
C116  C     C_3   0.805821 0.064120 0.561628 -0.268362
C117  C     C_3   0.840197 0.139646 0.567042 -0.475413
C118  C     C_3   0.270828 0.069572 0.456211 0.017937
C119  C     C_3   0.194068 0.064476 0.438619 -0.268246
C120  C     C_3   0.159890 0.140062 0.433088 -0.475395
C121  C     C_3   0.930705 0.729290 0.543757 0.017819
C122  C     C_3   0.935864 0.805827 0.561617 -0.268353
C123  C     C_3   0.860335 0.840196 0.567032 -0.475413
C124  C     C_R   0.757981 0.187425 0.725767 0.012303
C125  C     C_3   0.930467 0.270775 0.456249 0.017827
C126  C     C_3   0.935552 0.194218 0.438408 -0.268386
C127  C     C_3   0.859990 0.159927 0.432988 -0.475302
C128  C     C_3   0.270660 0.930817 0.543758 0.017859
C129  C     C_3   0.194135 0.936025 0.561630 -0.268340
C130  C     C_3   0.159714 0.860520 0.567045 -0.475470
C131  C     C_3   0.729261 0.930550 0.456244 0.017818
C132  C     C_3   0.805810 0.935678 0.438395 -0.268359
C133  C     C_3   0.840147 0.860135 0.432979 -0.475355
C134  C     C_3   0.069238 0.270679 0.543747 0.017823
C135  C     C_R   0.242143 0.812520 0.274306 0.012316
C136  C     C_3   0.064058 0.194164 0.561633 -0.268355
C137  C     C_3   0.139571 0.159751 0.567027 -0.475425
C138  C     C_3   0.069443 0.729278 0.456249 0.017826
C139  C     C_3   0.064301 0.805847 0.438426 -0.268340
C140  C     C_3   0.139837 0.840202 0.433016 -0.475356
C141  C     C_3   0.229254 0.569468 0.043749 0.017823
C142  C     C_3   0.305801 0.564354 0.061601 -0.268375
C143  C     C_3   0.340127 0.639902 0.067015 -0.475336
C144  C     C_3   0.770710 0.569310 0.956243 0.017819
C145  C     C_3   0.694168 0.564151 0.938388 -0.268352
C146  C     C_R   0.812570 0.757976 0.725763 0.012305
C147  C     C_3   0.659801 0.639679 0.932970 -0.475411
C148  C     C_3   0.430535 0.229243 0.043755 0.017862
C149  C     C_3   0.435661 0.305880 0.061496 -0.268320
C150  C     C_3   0.360106 0.340160 0.066962 -0.475402
C151  C     C_3   0.430677 0.770702 0.956247 0.017810
C152  C     C_3   0.435837 0.694175 0.938375 -0.268366
C153  C     C_3   0.360311 0.659799 0.932965 -0.475399
C154  C     C_3   0.770721 0.430584 0.043756 0.017819
C155  C     C_3   0.694167 0.435730 0.061597 -0.268349
C156  C     C_3   0.659809 0.360196 0.067011 -0.475368
C157  C     C_R   0.187529 0.242189 0.274347 0.012330
C158  C     C_3   0.229301 0.430717 0.956243 0.017823
C159  C     C_3   0.305831 0.435887 0.938374 -0.268351
C160  C     C_3   0.340219 0.360365 0.932967 -0.475419
C161  C     C_3   0.569400 0.770719 0.043754 0.017808
C162  C     C_3   0.564260 0.694187 0.061623 -0.268367
C163  C     C_3   0.639795 0.659829 0.067030 -0.475367
C164  C     C_3   0.569274 0.229316 0.956245 0.017815
C165  C     C_3   0.564093 0.305823 0.938349 -0.268362
C166  C     C_3   0.639606 0.340234 0.932950 -0.475416
C167  C     C_R   0.242077 0.187481 0.274280 0.012315
C168  C     C_R   0.757859 0.812521 0.725695 0.012322
C169  C     C_R   0.187431 0.757975 0.274239 0.012301
C170  C     C_R   0.812527 0.242136 0.725699 0.012321
C171  C     C_R   0.687427 0.742021 0.225767 0.012301
C172  C     C_R   0.998857 0.634251 0.520526 0.260201
C173  C     C_R   0.242140 0.187477 0.725697 0.012321
C174  C     C_R   0.742020 0.312573 0.225766 0.012299
C175  C     C_R   0.257859 0.687477 0.774303 0.012321
C176  C     C_R   0.812574 0.242021 0.274233 0.012298
C177  C     C_R   0.187478 0.757861 0.725697 0.012322
C178  C     C_R   0.757978 0.812572 0.274235 0.012301
C179  C     C_R   0.312523 0.257861 0.774302 0.012321
C180  C     C_R   0.257975 0.687430 0.225764 0.012300
C181  C     C_R   0.742135 0.312527 0.774299 0.012320
C182  C     C_R   0.312526 0.257932 0.225728 0.012309
C183  C     C_R   0.998714 0.365753 0.479473 0.260189
C184  C     C_R   0.687479 0.742142 0.774305 0.012323
C185  C     C_R   0.742024 0.687431 0.774237 0.012304
C186  C     C_R   0.257814 0.312477 0.225661 0.012329
C187  C     C_R   0.687423 0.257983 0.774230 0.012303
C188  C     C_R   0.312520 0.742141 0.225695 0.012318
C189  C     C_R   0.257978 0.312572 0.774234 0.012304
C190  C     C_R   0.812523 0.757861 0.274302 0.012318
C191  C     C_R   0.242023 0.812572 0.725765 0.012307
C192  C     C_R   0.757863 0.187476 0.274302 0.012315
C193  C     C_R   0.304061 0.804061 0.750000 0.014341
C194  C     C_R   0.365749 0.998900 0.520527 0.260242
C195  C     C_R   0.695917 0.195915 0.250001 0.014389
C196  C     C_R   0.195939 0.304061 0.750000 0.014340
C197  C     C_R   0.804084 0.695916 0.250000 0.014390
C198  C     C_R   0.695938 0.195939 0.749999 0.014341
C199  C     C_R   0.304084 0.804083 0.250000 0.014390
C200  C     C_R   0.804061 0.695939 0.750000 0.014341
C201  C     C_R   0.195915 0.304083 0.250001 0.014390
C202  C     C_R   0.304063 0.195939 0.250002 0.014343
C203  C     C_R   0.695916 0.804084 0.750000 0.014392
C204  C     C_R   0.195938 0.695939 0.250001 0.014339
C205  C     C_R   0.634249 0.998746 0.479472 0.260197
C206  C     C_R   0.804085 0.304083 0.750000 0.014392
C207  C     C_R   0.695939 0.804061 0.250000 0.014338
C208  C     C_R   0.304084 0.195916 0.750000 0.014392
C209  C     C_R   0.804061 0.304062 0.250000 0.014339
C210  C     C_R   0.195916 0.695916 0.750000 0.014392
C211  C     C_R   0.433566 0.000217 0.581930 -0.110743
C212  C     C_R   0.566432 0.000137 0.418069 -0.110736
C213  C     C_R   0.999794 0.433568 0.581930 -0.110732
C214  C     C_R   0.999867 0.566435 0.418069 -0.110732
C215  C     C_R   0.566431 0.999797 0.581930 -0.110741
C216  C     C_R   0.001118 0.365751 0.520527 0.260201
C217  C     C_R   0.433567 0.999870 0.418069 -0.110795
C218  C     C_R   0.000202 0.566433 0.581930 -0.110744
C219  C     C_R   0.000122 0.433569 0.418070 -0.110747
C220  C     C_R   0.933567 0.500145 0.081931 -0.110733
C221  C     C_R   0.066431 0.500196 0.918069 -0.110737
C222  C     C_R   0.499847 0.933566 0.081931 -0.110734
C223  C     C_R   0.499810 0.066431 0.918069 -0.110731
C224  C     C_R   0.066433 0.499863 0.081930 -0.110742
C225  C     C_R   0.933566 0.499806 0.918070 -0.110744
C226  C     C_R   0.500148 0.066432 0.081930 -0.110755
C227  C     C_R   0.001257 0.634251 0.479472 0.260199
C228  C     C_R   0.500184 0.933565 0.918070 -0.110738
C229  C     C_R   0.499998 0.000002 0.601983 0.009199
C230  C     C_R   0.500000 0.000000 0.398016 0.009216
C231  C     C_R   0.000001 0.500001 0.601983 0.009191
C232  C     C_R   0.999998 0.500002 0.398017 0.009197
C233  C     C_R   0.000000 0.500002 0.101983 0.009196
C234  C     C_R   0.999998 0.499999 0.898017 0.009193
C235  C     C_R   0.500000 0.999999 0.101983 0.009199
C236  C     C_R   0.499999 0.999998 0.898017 0.009192
C237  C     C_R   0.567350 0.000192 0.541068 -0.008357
C238  C     C_R   0.134249 0.501257 0.020526 0.260198
C239  C     C_R   0.432648 0.000268 0.458930 -0.008402
C240  C     C_R   0.999809 0.567353 0.541069 -0.008359
C241  C     C_R   0.999733 0.432650 0.458931 -0.008358
C242  C     C_R   0.432647 0.999831 0.541069 -0.008388
C243  C     C_R   0.567350 0.999752 0.458930 -0.008346
C244  C     C_R   0.000180 0.432650 0.541069 -0.008354
C245  C     C_R   0.000252 0.567353 0.458930 -0.008344
C246  C     C_R   0.067351 0.500252 0.041069 -0.008353
C247  C     C_R   0.932647 0.500198 0.958932 -0.008355
C248  C     C_R   0.499756 0.067350 0.041069 -0.008362
H1    H     H_    0.225801 0.582468 0.799969 0.105863
H2    H     H_    0.918074 0.726453 0.700500 0.105318
H3    H     H_    0.866308 0.895485 0.580151 0.143789
H4    H     H_    0.826376 0.806026 0.586838 0.164502
H5    H     H_    0.896516 0.306162 0.436894 0.126864
H6    H     H_    0.903406 0.266121 0.485324 0.166956
H7    H     H_    0.963370 0.197647 0.409607 0.158241
H8    H     H_    0.968860 0.158518 0.457811 0.167210
H9    H     H_    0.831813 0.154419 0.461579 0.153270
H10   H     H_    0.865911 0.104611 0.419895 0.143938
H11   H     H_    0.826090 0.194106 0.413158 0.164482
H12   H     H_    0.306014 0.896801 0.563098 0.126795
H13   H     H_    0.274203 0.917527 0.299972 0.105891
H14   H     H_    0.265923 0.903772 0.514684 0.166968
H15   H     H_    0.197653 0.963811 0.590436 0.158247
H16   H     H_    0.158469 0.969415 0.542250 0.167226
H17   H     H_    0.154083 0.832393 0.538446 0.153351
H18   H     H_    0.104441 0.866528 0.580178 0.143722
H19   H     H_    0.193875 0.826526 0.586837 0.164507
H20   H     H_    0.693887 0.896582 0.436890 0.126851
H21   H     H_    0.733936 0.903489 0.485316 0.166971
H22   H     H_    0.802357 0.963487 0.409593 0.158251
H23   H     H_    0.841495 0.969015 0.457793 0.167251
H24   H     H_    0.726462 0.081918 0.700507 0.105318
H25   H     H_    0.845687 0.831973 0.461572 0.153289
H26   H     H_    0.895453 0.866087 0.419878 0.143877
H27   H     H_    0.805980 0.826206 0.413158 0.164490
H28   H     H_    0.103265 0.306051 0.563073 0.126816
H29   H     H_    0.096257 0.265932 0.514667 0.166982
H30   H     H_    0.036306 0.197697 0.590448 0.158245
H31   H     H_    0.030648 0.158483 0.542270 0.167286
H32   H     H_    0.167652 0.154080 0.538417 0.153483
H33   H     H_    0.133583 0.104497 0.580184 0.143730
H34   H     H_    0.173596 0.193939 0.586791 0.164497
H35   H     H_    0.774196 0.582467 0.200033 0.105868
H36   H     H_    0.103412 0.693929 0.436883 0.126855
H37   H     H_    0.096510 0.733926 0.485322 0.166970
H38   H     H_    0.036489 0.802422 0.409624 0.158252
H39   H     H_    0.030962 0.841504 0.457836 0.167263
H40   H     H_    0.168009 0.845700 0.461609 0.153257
H41   H     H_    0.133874 0.895529 0.419941 0.143894
H42   H     H_    0.173764 0.806071 0.413176 0.164474
H43   H     H_    0.193873 0.603438 0.063098 0.126853
H44   H     H_    0.233932 0.596520 0.014674 0.166971
H45   H     H_    0.302345 0.536551 0.090405 0.158249
H46   H     H_    0.081922 0.273541 0.700504 0.105315
H47   H     H_    0.341495 0.531019 0.042208 0.167232
H48   H     H_    0.345678 0.668056 0.038420 0.153284
H49   H     H_    0.395428 0.633961 0.080124 0.143887
H50   H     H_    0.305948 0.673835 0.086829 0.164493
H51   H     H_    0.806075 0.603293 0.936892 0.126845
H52   H     H_    0.766013 0.596369 0.985315 0.166963
H53   H     H_    0.697644 0.536347 0.909586 0.158263
H54   H     H_    0.658491 0.530797 0.957781 0.167264
H55   H     H_    0.654230 0.667832 0.961565 0.153320
H56   H     H_    0.604506 0.633705 0.919859 0.143799
H57   H     H_    0.582463 0.225806 0.200037 0.105885
H58   H     H_    0.693965 0.673630 0.913157 0.164502
H59   H     H_    0.396634 0.193936 0.063177 0.126888
H60   H     H_    0.403398 0.233772 0.014696 0.166856
H61   H     H_    0.463600 0.302592 0.090267 0.158272
H62   H     H_    0.468876 0.341509 0.042010 0.167253
H63   H     H_    0.331780 0.345471 0.038402 0.153281
H64   H     H_    0.366057 0.395560 0.079948 0.143900
H65   H     H_    0.326327 0.306082 0.086899 0.164485
H66   H     H_    0.396678 0.806078 0.936909 0.126843
H67   H     H_    0.403637 0.765981 0.985323 0.166982
H68   H     H_    0.418076 0.773543 0.799497 0.105318
H69   H     H_    0.463620 0.697677 0.909568 0.158259
H70   H     H_    0.469210 0.658489 0.957754 0.167260
H71   H     H_    0.332182 0.654193 0.961565 0.153335
H72   H     H_    0.366285 0.604519 0.919837 0.143792
H73   H     H_    0.326338 0.693976 0.913170 0.164505
H74   H     H_    0.806081 0.396609 0.063113 0.126851
H75   H     H_    0.766047 0.403523 0.014683 0.166974
H76   H     H_    0.697618 0.463536 0.090400 0.158261
H77   H     H_    0.658496 0.469076 0.042197 0.167259
H78   H     H_    0.654277 0.332033 0.038417 0.153272
H79   H     H_    0.725808 0.082466 0.299968 0.105864
H80   H     H_    0.604497 0.366161 0.080103 0.143863
H81   H     H_    0.693957 0.326259 0.086838 0.164488
H82   H     H_    0.193932 0.396717 0.936904 0.126831
H83   H     H_    0.234020 0.403674 0.985319 0.166967
H84   H     H_    0.302330 0.463667 0.909566 0.158247
H85   H     H_    0.341510 0.469267 0.957753 0.167276
H86   H     H_    0.345830 0.332243 0.961568 0.153379
H87   H     H_    0.395499 0.366347 0.919838 0.143769
H88   H     H_    0.306048 0.326384 0.913174 0.164502
H89   H     H_    0.603391 0.806100 0.063093 0.126847
H90   H     H_    0.273546 0.918078 0.700503 0.105316
H91   H     H_    0.596442 0.766010 0.014677 0.166999
H92   H     H_    0.536476 0.697677 0.090430 0.158253
H93   H     H_    0.530895 0.658496 0.042243 0.167252
H94   H     H_    0.667928 0.654245 0.038431 0.153299
H95   H     H_    0.633835 0.604540 0.080151 0.143847
H96   H     H_    0.673756 0.694005 0.086831 0.164496
H97   H     H_    0.603297 0.193935 0.936922 0.126821
H98   H     H_    0.596296 0.234077 0.985323 0.167007
H99   H     H_    0.536341 0.302276 0.909535 0.158255
H100  H     H_    0.530681 0.341512 0.957707 0.167241
H101  H     H_    0.917532 0.725804 0.299968 0.105870
H102  H     H_    0.667699 0.345893 0.961556 0.153335
H103  H     H_    0.633617 0.395494 0.919799 0.143764
H104  H     H_    0.673622 0.306050 0.913179 0.164509
H105  H     H_    0.773541 0.418079 0.200503 0.105317
H106  H     H_    0.226457 0.418079 0.799494 0.105318
H107  H     H_    0.417527 0.774200 0.200026 0.105863
H108  H     H_    0.581910 0.226468 0.799486 0.105317
H109  H     H_    0.225715 0.417444 0.199962 0.105869
H110  H     H_    0.773548 0.581928 0.799502 0.105316
H111  H     H_    0.582472 0.774201 0.799973 0.105864
H112  H     H_    0.417990 0.226370 0.200433 0.105318
H113  H     H_    0.774189 0.417539 0.799962 0.105865
H114  H     H_    0.226454 0.581923 0.200504 0.105332
H115  H     H_    0.417531 0.225804 0.799968 0.105861
H116  H     H_    0.274198 0.082468 0.700032 0.105862
H117  H     H_    0.726456 0.918077 0.299496 0.105318
H118  H     H_    0.082470 0.725803 0.700031 0.105863
H119  H     H_    0.918083 0.273541 0.299491 0.105335
H120  H     H_    0.070765 0.833583 0.658652 0.097461
H121  H     H_    0.929709 0.165777 0.340853 0.096559
H122  H     H_    0.429238 0.333585 0.841346 0.097444
H123  H     H_    0.834215 0.929694 0.340862 0.096527
H124  H     H_    0.666398 0.429256 0.841331 0.097450
H125  H     H_    0.334214 0.570303 0.159138 0.096554
H126  H     H_    0.570770 0.666426 0.841356 0.097456
H127  H     H_    0.581919 0.773539 0.200507 0.105319
H128  H     H_    0.429541 0.334062 0.159012 0.096568
H129  H     H_    0.333427 0.429086 0.158528 0.097506
H130  H     H_    0.665793 0.570316 0.840872 0.096538
H131  H     H_    0.429233 0.666420 0.158649 0.097453
H132  H     H_    0.570283 0.334237 0.840844 0.096534
H133  H     H_    0.929238 0.833584 0.341346 0.097469
H134  H     H_    0.334217 0.429697 0.840860 0.096540
H135  H     H_    0.833593 0.070756 0.341342 0.097456
H136  H     H_    0.165788 0.929694 0.659136 0.096557
H137  H     H_    0.570750 0.333590 0.158661 0.097504
H138  H     H_    0.917539 0.274191 0.700036 0.105861
H139  H     H_    0.429692 0.665782 0.840862 0.096538
H140  H     H_    0.666413 0.570756 0.158658 0.097458
H141  H     H_    0.070306 0.165781 0.659139 0.096536
H142  H     H_    0.166428 0.929231 0.341355 0.097534
H143  H     H_    0.834226 0.070297 0.659144 0.096543
H144  H     H_    0.070958 0.166606 0.341509 0.097541
H145  H     H_    0.929688 0.834209 0.659131 0.096541
H146  H     H_    0.833576 0.929231 0.658645 0.097449
H147  H     H_    0.165999 0.070507 0.341035 0.096606
H148  H     H_    0.929250 0.166408 0.658660 0.097445
H149  H     H_    0.081931 0.726449 0.299505 0.105317
H150  H     H_    0.070320 0.834203 0.340876 0.096531
H151  H     H_    0.166419 0.070760 0.658654 0.097439
H152  H     H_    0.570300 0.665776 0.159144 0.096528
H153  H     H_    0.333580 0.570760 0.841347 0.097447
H154  H     H_    0.665777 0.429698 0.159141 0.096531
H155  H     H_    0.382891 0.000407 0.598435 0.141512
H156  H     H_    0.617107 0.000270 0.401564 0.141513
H157  H     H_    0.999608 0.382893 0.598435 0.141536
H158  H     H_    0.999739 0.617110 0.401564 0.141514
H159  H     H_    0.617106 0.999608 0.598433 0.141530
H160  H     H_    0.725799 0.917527 0.700027 0.105861
H161  H     H_    0.382892 0.999731 0.401565 0.141442
H162  H     H_    0.000388 0.617108 0.598434 0.141529
H163  H     H_    0.000250 0.382894 0.401566 0.141513
H164  H     H_    0.882892 0.500282 0.098436 0.141519
H165  H     H_    0.117106 0.500375 0.901564 0.141529
H166  H     H_    0.499702 0.882891 0.098435 0.141523
H167  H     H_    0.499638 0.117106 0.901565 0.141532
H168  H     H_    0.117108 0.499726 0.098434 0.141516
H169  H     H_    0.882891 0.499627 0.901566 0.141525
H170  H     H_    0.500294 0.117108 0.098434 0.141498
H171  H     H_    0.273661 0.082035 0.299591 0.105323
H172  H     H_    0.500356 0.882890 0.901566 0.141530
H173  H     H_    0.693920 0.103280 0.563096 0.126836
H174  H     H_    0.734017 0.096329 0.514682 0.166964
H175  H     H_    0.802318 0.036333 0.590435 0.158255
H176  H     H_    0.841507 0.030751 0.542248 0.167261
H177  H     H_    0.845805 0.167779 0.538444 0.153355
H178  H     H_    0.895476 0.133670 0.580171 0.143774
H179  H     H_    0.806020 0.173616 0.586838 0.164505
H180  H     H_    0.306059 0.103323 0.436678 0.126914
H181  H     H_    0.266524 0.096862 0.485241 0.166636
H182  H     H_    0.082567 0.274292 0.300051 0.105863
H183  H     H_    0.197113 0.036359 0.409889 0.158249
H184  H     H_    0.158509 0.031442 0.458228 0.167270
H185  H     H_    0.154882 0.168600 0.461603 0.153253
H186  H     H_    0.104370 0.134132 0.420247 0.143990
H187  H     H_    0.193865 0.173635 0.413002 0.164451
H188  H     H_    0.896719 0.693921 0.563105 0.126842
H189  H     H_    0.903652 0.733993 0.514684 0.166958
H190  H     H_    0.963661 0.802344 0.590421 0.158266
H191  H     H_    0.969223 0.841507 0.542228 0.167261
H192  H     H_    0.832192 0.845781 0.538436 0.153338
O1    O     O_3   0.000000 0.500000 0.750000 -0.443992
O2    O     O_R   0.060740 0.500000 0.337440 -0.536251
O3    O     O_R   0.500000 0.939260 0.662560 -0.536241
O4    O     O_R   0.500000 0.060740 0.337440 -0.536259
O5    O     O_R   0.560740 0.000000 0.162560 -0.536245
O6    O     O_R   0.439260 0.000000 0.837440 -0.536244
O7    O     O_R   0.000000 0.560740 0.162560 -0.536246
O8    O     O_R   0.000000 0.439260 0.837440 -0.536243
O9    O     O_R   0.439260 0.000000 0.162560 -0.536251
O10   O     O_R   0.560740 0.000000 0.837440 -0.536240
O11   O     O_R   0.000000 0.439260 0.162560 -0.536248
O12   O     O_3   0.000000 0.500000 0.250000 -0.443988
O13   O     O_R   0.000000 0.560740 0.837440 -0.536242
O14   O     O_R   0.853850 0.585450 0.727070 -0.539812
O15   O     O_R   0.146150 0.414550 0.272930 -0.538985
O16   O     O_R   0.414550 0.853850 0.727070 -0.539810
O17   O     O_R   0.585450 0.146150 0.272930 -0.538982
O18   O     O_R   0.146150 0.414550 0.727070 -0.539811
O19   O     O_R   0.853850 0.585450 0.272930 -0.538986
O20   O     O_R   0.585450 0.146150 0.727070 -0.539815
O21   O     O_R   0.414550 0.853850 0.272930 -0.538988
O22   O     O_R   0.853850 0.414550 0.272930 -0.539818
O23   O     O_3   0.500000 0.000000 0.750000 -0.443992
O24   O     O_R   0.146150 0.585450 0.727070 -0.538984
O25   O     O_R   0.414550 0.146150 0.272930 -0.539824
O26   O     O_R   0.585450 0.853850 0.727070 -0.538985
O27   O     O_R   0.146150 0.585450 0.272930 -0.539810
O28   O     O_R   0.853850 0.414550 0.727070 -0.538983
O29   O     O_R   0.585450 0.853850 0.272930 -0.539816
O30   O     O_R   0.414550 0.146150 0.727070 -0.538984
O31   O     O_R   0.353850 0.085450 0.227070 -0.539806
O32   O     O_R   0.646150 0.914550 0.772930 -0.538984
O33   O     O_R   0.914550 0.353850 0.227070 -0.539809
O34   O     O_3   0.500000 0.000000 0.250000 -0.443987
O35   O     O_R   0.085450 0.646150 0.772930 -0.538984
O36   O     O_R   0.646150 0.914550 0.227070 -0.539813
O37   O     O_R   0.353850 0.085450 0.772930 -0.538984
O38   O     O_R   0.085450 0.646150 0.227070 -0.539815
O39   O     O_R   0.914550 0.353850 0.772930 -0.538987
O40   O     O_R   0.353850 0.914550 0.772930 -0.539814
O41   O     O_R   0.646150 0.085450 0.227070 -0.538984
O42   O     O_R   0.914550 0.646150 0.772930 -0.539814
O43   O     O_R   0.085450 0.353850 0.227070 -0.538982
O44   O     O_R   0.646150 0.085450 0.772930 -0.539809
O45   O     O_R   0.060740 0.500000 0.662560 -0.536241
O46   O     O_R   0.353850 0.914550 0.227070 -0.538978
O47   O     O_R   0.085450 0.353850 0.772930 -0.539813
O48   O     O_R   0.914550 0.646150 0.227070 -0.538984
O49   O     O_3   0.700124 0.997940 0.540465 -0.582558
O50   O     O_3   0.299864 0.998178 0.459541 -0.582539
O51   O     O_3   0.002053 0.700127 0.540466 -0.582554
O52   O     O_3   0.001842 0.299873 0.459534 -0.582591
O53   O     O_3   0.299873 0.002144 0.540465 -0.582410
O54   O     O_3   0.700126 0.001909 0.459532 -0.582583
O55   O     O_3   0.997903 0.299876 0.540468 -0.582546
O56   O     O_R   0.939260 0.500000 0.337440 -0.536248
O57   O     O_3   0.998088 0.700129 0.459532 -0.582577
O58   O     O_3   0.200127 0.498104 0.040465 -0.582576
O59   O     O_3   0.799872 0.497963 0.959535 -0.582564
O60   O     O_3   0.501903 0.200129 0.040462 -0.582580
O61   O     O_3   0.502023 0.799872 0.959534 -0.582577
O62   O     O_3   0.799872 0.501937 0.040469 -0.582572
O63   O     O_3   0.200124 0.502059 0.959531 -0.582561
O64   O     O_3   0.498048 0.799871 0.040468 -0.582589
O65   O     O_3   0.497938 0.200123 0.959531 -0.582524
O66   O     O_R   0.500000 0.060740 0.662560 -0.536243
O67   O     O_R   0.500000 0.939260 0.337440 -0.536247
O68   O     O_R   0.939260 0.500000 0.662560 -0.536241
Zn1   Zn    Zn3+2 0.000000 0.586740 0.782740 0.928497
Zn2   Zn    Zn3+2 0.500000 0.913260 0.717260 0.928500
Zn3   Zn    Zn3+2 0.913260 0.500000 0.282740 0.928491
Zn4   Zn    Zn3+2 0.086740 0.500000 0.717260 0.928502
Zn5   Zn    Zn3+2 0.500000 0.913260 0.282740 0.928492
Zn6   Zn    Zn3+2 0.500000 0.086740 0.717260 0.928499
Zn7   Zn    Zn3+2 0.086740 0.500000 0.282740 0.928491
Zn8   Zn    Zn3+2 0.913260 0.500000 0.717260 0.928498
Zn9   Zn    Zn3+2 0.000000 0.413260 0.217260 0.928496
Zn10  Zn    Zn3+2 0.413260 0.000000 0.782740 0.928498
Zn11  Zn    Zn3+2 0.586740 0.000000 0.217260 0.928497
Zn12  Zn    Zn3+2 0.000000 0.413260 0.782740 0.928498
Zn13  Zn    Zn3+2 0.000000 0.586740 0.217260 0.928496
Zn14  Zn    Zn3+2 0.586740 0.000000 0.782740 0.928500
Zn15  Zn    Zn3+2 0.413260 0.000000 0.217260 0.928497
Zn16  Zn    Zn3+2 0.500000 0.086740 0.282740 0.928482

loop_
_geom_bond_atom_site_label_1
_geom_bond_atom_site_label_2
_ccdc_geom_bond_type
C225  C247  A    
O25   Zn16  S    
C151  H67   S    
C191  C193  A    
C137  H32   S    
C126  C127  S    
C177  C191  A    
C221  C234  A    
C99   H125  S    
C117  H179  S    
C118  H180  S    
C106  C243  A    
C181  C187  A    
C17   O14   A    
C222  H166  S    
C215  H159  S    
O27   Zn7   S    
O68   Zn8   S    
C32   O36   A    
C128  H12   S    
C122  H191  S    
O23   Zn2   S    
C63   C98   A    
C212  H156  S    
C135  C199  A    
O22   Zn3   S    
C160  H86   S    
C59   C186  A    
C39   C74   A    
O26   Zn2   S    
C35   O62   S    
C7    C68   A    
C179  C208  A    
C161  H89   S    
C47   H24   S    
C50   C90   A    
C90   C195  A    
C77   H147  S    
C111  C248  A    
C151  H66   S    
C33   O30   A    
C152  H69   S    
C76   H146  S    
C91   C100  A    
O35   Zn1   S    
C219  C232  A    
C217  H161  S    
C36   C71   A    
C52   C192  A    
C23   O20   A    
C164  O65   S    
C228  H172  S    
C125  O52   S    
O7    Zn13  S    
O1    Zn4   S    
C112  O50   S    
C40   C169  A    
C224  H168  S    
C141  H43   S    
C158  H82   S    
C147  H55   S    
C104  H121  S    
C14   O6    A    
C192  C195  A    
C38   C171  A    
C136  H31   S    
C116  H176  S    
O37   Zn10  S    
O38   Zn13  S    
C94   C97   A    
C163  H95   S    
C65   H115  S    
C16   O13   A    
C219  C241  A    
C166  H103  S    
C224  C233  A    
O8    Zn12  S    
C156  H78   S    
C25   C199  S    
C79   C175  A    
C7    C223  A    
C12   O9    A    
C144  H52   S    
C138  H37   S    
C93   H132  S    
O34   Zn15  S    
C127  H10   S    
C12   O5    A    
C154  C155  S    
C72   C84   A    
C54   C89   A    
C130  H19   S    
C137  H34   S    
C159  H85   S    
C106  C239  A    
C67   C177  A    
C158  C159  S    
C43   H182  S    
C86   H139  S    
C13   O60   S    
C63   H113  S    
O41   Zn11  S    
C50   H57   S    
C42   C167  A    
O43   Zn9   S    
C107  C240  A    
C82   H143  S    
O23   Zn10  S    
O12   Zn9   S    
C54   H101  S    
C150  H64   S    
C16   O8    A    
C134  H29   S    
C45   C81   A    
C31   O28   A    
C144  C145  S    
C139  C140  S    
C51   H68   S    
C160  H88   S    
C5    C46   A    
C90   C174  A    
C15   O11   A    
O6    Zn10  S    
C41   C76   A    
C132  H22   S    
C161  H91   S    
C189  C196  A    
C57   O64   S    
C18   C201  S    
C21   C196  S    
C146  C200  A    
C60   C95   A    
C13   C248  A    
C164  H98   S    
C155  C156  S    
C105  C237  A    
C42   H171  S    
C126  H8    S    
C165  H100  S    
C109  C110  A    
C2    O59   S    
C3    C228  A    
C73   C83   A    
C11   O67   A    
C143  H50   S    
C6    C222  A    
C110  C247  A    
C177  C210  A    
O47   Zn12  S    
C123  H192  S    
C63   C181  A    
C75   H150  S    
C218  H162  S    
C6    C111  A    
C118  O50   S    
C22   C197  S    
C101  C173  A    
O10   Zn14  S    
C128  C129  S    
C10   O3    A    
C47   C124  A    
C61   C96   A    
C67   C103  A    
C70   H153  S    
C115  H174  S    
C123  H3    S    
C159  H84   S    
O4    Zn16  S    
C225  C234  A    
C55   C189  A    
C49   C84   A    
C172  C227  A    
C60   H110  S    
C175  C210  A    
C5    C110  A    
C115  C116  S    
C115  O49   S    
C184  C185  A    
C121  H189  S    
C167  C202  A    
C216  O55   S    
C21   O18   A    
C64   C99   A    
O18   Zn4   S    
C24   C57   A    
C108  C241  A    
C151  O61   S    
C107  C108  A    
C215  C237  A    
C111  C114  A    
C129  H16   S    
C213  C231  A    
C101  C196  A    
C214  H158  S    
C140  H41   S    
O13   Zn1   S    
C83   H140  S    
C220  H164  S    
C221  H165  S    
C69   H119  S    
C211  C242  A    
C3    C24   A    
O20   Zn6   S    
C145  H53   S    
C148  H59   S    
O19   Zn3   S    
C66   H117  S    
C149  H62   S    
C45   C135  A    
C133  H25   S    
C187  C198  A    
C220  C233  A    
C18   O15   A    
C1    C237  A    
C78   H144  S    
C11   O4    A    
C139  H38   S    
O3    Zn2   S    
C68   O65   S    
C72   H151  S    
C136  H30   S    
C91   H134  S    
C217  C230  A    
C62   C97   A    
O1    Zn8   S    
C45   H13   S    
C179  C189  A    
C17   O42   A    
C87   H135  S    
C41   H160  S    
C112  C194  A    
C19   O16   A    
C156  H80   S    
C162  H92   S    
C37   H116  S    
C172  C240  A    
C96   H126  S    
C39   H138  S    
C46   O63   S    
C213  H157  S    
O45   Zn4   S    
C157  C201  A    
C171  C207  A    
C21   O47   A    
C144  O59   S    
C129  C130  S    
C224  C246  A    
C238  O58   S    
C61   C184  A    
C54   C190  A    
C85   H137  S    
C58   C187  A    
C117  H178  S    
C213  C244  A    
C76   C80   A    
C118  H181  S    
C1    O49   S    
C136  C137  S    
C43   C157  A    
C162  H93   S    
C116  H175  S    
C226  C248  A    
C36   H105  S    
C79   C193  A    
C48   C83   A    
C183  O52   S    
C181  C206  A    
C123  H4    S    
C169  C204  A    
C26   O22   A    
C214  C245  A    
C127  H11   S    
C125  H6    S    
C51   C79   A    
C25   O46   A    
C223  C236  A    
C140  H42   S    
O23   Zn14  S    
C58   H108  S    
C152  C153  S    
C190  C197  A    
C42   C77   A    
C92   H131  S    
C138  H36   S    
C52   H79   S    
C29   O32   A    
C152  H70   S    
C183  C241  A    
C128  O53   S    
C205  C243  A    
C40   H149  S    
C20   O41   A    
C92   C99   A    
C53   H90   S    
C13   C68   A    
C154  H74   S    
C2    C35   A    
C216  C244  A    
C12   C235  S    
C120  H185  S    
C36   C174  A    
C60   C185  A    
C133  H27   S    
C119  H184  S    
C174  C209  A    
C98   H124  S    
C4    C109  A    
C214  C232  A    
C157  C167  A    
C9    O56   A    
C161  C162  S    
C69   C176  A    
O21   Zn5   S    
C77   C78   A    
C43   C78   A    
C158  H83   S    
C23   C198  S    
C165  C166  S    
C105  C106  A    
C9    C232  S    
C31   O39   A    
C32   O29   A    
C95   H130  S    
C164  C165  S    
O11   Zn9   S    
C58   C93   A    
C170  C206  A    
C212  C243  A    
C49   C101  A    
C178  C190  A    
C8    C231  S    
C41   C168  A    
C124  C198  A    
C176  C209  A    
O5    Zn11  S    
C182  C186  A    
C166  H104  S    
C55   C91   A    
C34   C175  A    
C180  C188  A    
C50   C85   A    
C19   O40   A    
C4    C220  A    
C227  O57   S    
O34   Zn16  S    
C151  C152  S    
C127  H9    S    
C219  H163  S    
C102  H123  S    
C59   C94   A    
C128  H14   S    
C34   C70   A    
C20   C195  S    
C141  O58   S    
C119  H183  S    
C97   H128  S    
C4    C35   A    
C137  H33   S    
C88   H136  S    
C184  C203  A    
C6    C57   A    
C74   C82   A    
C211  H155  S    
C51   C86   A    
C14   C236  S    
C145  C147  S    
C48   H35   S    
C225  H169  S    
O46   Zn15  S    
C194  O53   S    
C205  O54   S    
C222  C235  A    
O33   Zn9   S    
C18   O43   A    
O9    Zn15  S    
C44   C80   A    
C71   H154  S    
C22   O48   A    
C148  H60   S    
O40   Zn10  S    
C131  H20   S    
C65   C179  A    
C121  O51   S    
C142  H47   S    
C108  C245  A    
C153  H72   S    
C27   C210  S    
C186  C201  A    
C160  H87   S    
C94   H129  S    
C62   C182  A    
C34   H1    S    
C159  C160  S    
C16   C234  S    
C178  C207  A    
C238  C246  A    
C139  H39   S    
C49   H46   S    
C30   O38   A    
C89   H133  S    
C140  H40   S    
C53   C191  A    
C121  C122  S    
C22   O19   A    
C44   H2    S    
C120  H187  S    
C20   O17   A    
C125  C126  S    
C107  C244  A    
C165  H99   S    
C131  C132  S    
C105  C242  A    
C30   C204  S    
C143  H49   S    
C141  H44   S    
C162  C163  S    
C183  C216  A    
C146  C168  A    
C147  H56   S    
C211  C229  A    
C182  C202  A    
O34   Zn5   S    
C154  O62   S    
C65   C100  A    
C180  C204  A    
C119  C120  S    
O1    Zn12  S    
O12   Zn3   S    
C115  H173  S    
C163  H96   S    
C56   H107  S    
C40   C75   A    
C28   C202  S    
C166  H102  S    
C14   O10   A    
O56   Zn3   S    
C149  C150  S    
O67   Zn5   S    
C144  H51   S    
C24   O61   S    
C223  H167  S    
C218  C240  A    
O28   Zn8   S    
C121  H188  S    
C135  C169  A    
C138  C139  S    
O15   Zn7   S    
C87   C104  A    
C130  H18   S    
C100  H122  S    
C161  O64   S    
C9    O2    A    
C37   C72   A    
C172  O51   S    
C142  C143  S    
O30   Zn6   S    
C129  H15   S    
C7    C114  A    
O66   Zn6   S    
C33   C208  S    
O16   Zn2   S    
C48   C113  A    
C10   O66   A    
C5    C221  A    
C150  H63   S    
C29   C203  S    
C89   C102  A    
C134  H28   S    
C8    O45   A    
C66   C102  A    
C67   H118  S    
C95   C96   A    
C2    C247  A    
C132  H23   S    
O14   Zn8   S    
C113  C171  A    
C29   O26   A    
O48   Zn13  S    
C142  H45   S    
C149  H61   S    
C66   C178  A    
C138  O57   S    
C38   H127  S    
C226  H170  S    
C39   C170  A    
O1    Zn1   S    
C64   C180  A    
C143  H48   S    
C176  C192  A    
C227  C245  A    
C158  O63   S    
O12   Zn7   S    
C116  C117  S    
C17   C200  S    
C134  O55   S    
C47   C82   A    
C15   O7    A    
C118  C119  S    
C8    O68   A    
C71   C85   A    
O42   Zn1   S    
C56   C188  A    
C132  C133  S    
C155  H77   S    
C164  H97   S    
C44   C146  A    
C64   H114  S    
C126  H7    S    
O17   Zn16  S    
C88   C103  A    
C173  C208  A    
C1    C205  A    
C150  H65   S    
C3    C114  A    
O34   Zn11  S    
C130  H17   S    
O12   Zn13  S    
C154  H75   S    
C55   H106  S    
O39   Zn12  S    
C23   O44   A    
C84   H141  S    
C163  H94   S    
C117  H177  S    
C81   H142  S    
C148  C149  S    
C31   C206  S    
C153  H71   S    
C148  O60   S    
C75   C81   A    
C134  C136  S    
C155  H76   S    
C188  C199  A    
O23   Zn6   S    
C10   C229  S    
C226  C235  A    
C73   H152  S    
C33   O37   A    
C27   O35   A    
C212  C230  A    
C131  H21   S    
O2    Zn7   S    
C112  C239  A    
C15   C233  S    
C32   C207  S    
C125  H5    S    
O32   Zn14  S    
O44   Zn14  S    
C53   C88   A    
C156  H81   S    
C61   H111  S    
C109  C246  A    
C19   C193  S    
C11   C230  S    
O36   Zn11  S    
C131  O54   S    
C70   C86   A    
C122  H190  S    
C153  H73   S    
C145  H54   S    
C27   O24   A    
C69   C104  A    
C120  H186  S    
C133  H26   S    
C194  C242  A    
O29   Zn5   S    
C215  C229  A    
C52   C87   A    
O31   Zn15  S    
O24   Zn4   S    
C168  C203  A    
C28   O31   A    
C28   O25   A    
C141  C142  S    
C26   O33   A    
C25   O21   A    
C26   C209  S    
C62   H112  S    
C46   C238  A    
C185  C200  A    
C147  H58   S    
C218  C231  A    
C228  C236  A    
C37   C173  A    
C59   H109  S    
C56   C92   A    
C124  C170  A    
C30   O27   A    
C113  C197  A    
C217  C239  A    
C103  H120  S    
C122  C123  S    
C74   H148  S    
C93   C98   A    
C80   H145  S    
C38   C73   A    
