data_mof_unit_11469.cif
_audit_creation_date              2012-12-11T14:24:53-0500
_audit_creation_method            fapswitch 2.2
_symmetry_space_group_name_H-M    P1
_symmetry_Int_Tables_number       1
_space_group_crystal_system       triclinic
_cell_length_a                    19.172031
_cell_length_b                    11.141074
_cell_length_c                    18.675377
_cell_angle_alpha                 90.232044
_cell_angle_beta                  90.914262
_cell_angle_gamma                 89.538994
_cell_volume                      3988.33718527

loop_
_atom_site_label
_atom_site_type_symbol
_atom_type_description
_atom_site_fract_x
_atom_site_fract_y
_atom_site_fract_z
_atom_type_partial_charge
C1    C     C_R   0.727543 0.368369 0.143173 0.565379
C2    C     C_R   0.239073 0.886754 0.065878 -0.030309
C3    C     C_R   0.643103 0.567298 0.428489 0.124382
C4    C     C_R   0.871321 0.157300 0.589266 -0.116331
C5    C     C_R   0.077053 0.064411 0.458836 -0.120851
C6    C     C_R   0.371381 0.657230 0.589230 -0.116361
C7    C     C_R   0.577048 0.564371 0.458831 -0.120866
C8    C     C_R   0.894772 0.130618 0.521192 -0.124126
C9    C     C_R   0.068185 0.017298 0.526859 -0.135576
C10   C     C_R   0.394809 0.630541 0.521151 -0.124140
C11   C     C_R   0.568188 0.517257 0.526857 -0.135539
C12   C     C_R   0.850922 0.080947 0.469283 -0.018276
C13   C     C_R   0.256772 0.399379 0.931572 -0.053155
C14   C     C_R   0.124040 0.967232 0.563698 -0.022414
C15   C     C_R   0.350942 0.580876 0.469257 -0.018291
C16   C     C_R   0.624047 0.467211 0.563695 -0.022500
C17   C     C_R   0.736824 0.983719 0.440375 -0.052534
C18   C     C_R   0.250290 0.929478 0.570187 -0.050288
C19   C     C_R   0.236820 0.483728 0.440373 -0.052523
C20   C     C_R   0.750300 0.429500 0.570181 -0.050476
C21   C     C_R   0.731445 0.383454 0.352533 0.601802
C22   C     C_R   0.266817 0.382355 0.648652 0.589648
C23   C     C_R   0.231443 0.883450 0.352535 0.601830
C24   C     C_R   0.739066 0.386732 0.065870 -0.030331
C25   C     C_R   0.766825 0.882329 0.648640 0.590106
C26   C     C_R   0.530356 0.158042 0.351793 0.571265
C27   C     C_R   0.467220 0.157008 0.646558 0.596090
C28   C     C_R   0.030358 0.658043 0.351794 0.571276
C29   C     C_R   0.967224 0.657010 0.646559 0.596104
C30   C     C_R   0.731043 0.014269 0.364497 0.545334
C31   C     C_R   0.257842 0.970995 0.643430 0.560340
C32   C     C_R   0.231038 0.514284 0.364498 0.545315
C33   C     C_R   0.757845 0.471005 0.643426 0.560565
C34   C     C_3   0.526973 0.215473 0.964427 0.372071
C35   C     C_R   0.701510 0.846488 0.970501 -0.097739
C36   C     C_3   0.486108 0.271702 0.026280 0.410460
C37   C     C_3   0.026972 0.715475 0.964427 0.372087
C38   C     C_3   0.986107 0.771701 0.026280 0.410464
C39   C     C_3   0.545618 0.104729 0.010141 -0.192954
C40   C     C_3   0.418244 0.209936 0.999332 -0.189573
C41   C     C_3   0.045619 0.604730 0.010141 -0.192951
C42   C     C_3   0.918244 0.709932 0.999332 -0.189585
C43   C     C_3   0.503560 0.161370 0.072136 -0.053216
C44   C     C_3   0.460372 0.154396 0.937640 -0.056313
C45   C     C_3   0.003560 0.661369 0.072136 -0.053219
C46   C     C_R   0.295659 0.835545 0.026960 -0.053269
C47   C     C_3   0.960373 0.654396 0.937640 -0.056321
C48   C     C_2   0.775944 0.157340 0.678908 0.568943
C49   C     C_2   0.155107 0.142946 0.364209 0.588823
C50   C     C_2   0.276016 0.657333 0.678871 0.569005
C51   C     C_2   0.655095 0.642941 0.364209 0.588720
C52   C     C_R   0.201508 0.346494 0.970499 -0.097739
C53   C     C_R   0.795651 0.335520 0.026950 -0.053291
C54   C     C_R   0.706700 0.842295 0.046323 -0.123594
C55   C     C_R   0.291829 0.835723 0.951078 -0.117445
C56   C     C_R   0.206698 0.342300 0.046321 -0.123598
C57   C     C_R   0.270891 0.372717 0.855368 0.532331
C58   C     C_R   0.791819 0.335699 0.951067 -0.117434
C59   C     C_R   0.814308 0.950014 0.044160 0.354594
C60   C     C_R   0.182291 0.941050 0.953532 0.422822
C61   C     C_R   0.314306 0.450020 0.044158 0.354583
C62   C     C_R   0.682285 0.441034 0.953526 0.422814
C63   C     C_R   0.813130 0.947687 0.970646 -0.141427
C64   C     C_R   0.181100 0.930422 0.026751 -0.096901
C65   C     C_R   0.313128 0.447694 0.970644 -0.141397
C66   C     C_R   0.681094 0.430401 0.026745 -0.096903
C67   C     C_R   0.642669 0.793512 0.937816 -0.079524
C68   C     C_R   0.227547 0.868380 0.143177 0.565377
C69   C     C_R   0.354871 0.781122 0.059211 -0.023562
C70   C     C_R   0.142667 0.293520 0.937813 -0.079513
C71   C     C_R   0.854864 0.281096 0.059198 -0.023566
C72   C     C_R   0.098390 0.222478 0.977844 0.530573
C73   C     C_R   0.901307 0.214358 0.018002 0.540444
C74   C     C_R   0.598394 0.722467 0.977847 0.530555
C75   C     C_R   0.401312 0.714377 0.018018 0.540399
C76   C     C_R   0.610293 0.705704 0.050935 0.441028
C77   C     C_R   0.390815 0.702156 0.944407 0.473555
C78   C     C_R   0.110288 0.205714 0.050932 0.441025
C79   C     C_R   0.770892 0.872715 0.855369 0.532313
C80   C     C_R   0.890808 0.202140 0.944390 0.473468
C81   C     C_R   0.663126 0.767086 0.085147 -0.124933
C82   C     C_R   0.337181 0.763757 0.911251 -0.107664
C83   C     C_R   0.163122 0.267092 0.085145 -0.124942
C84   C     C_R   0.837169 0.263731 0.911236 -0.107747
C85   C     C_R   0.532688 0.155216 0.144731 0.598488
C86   C     C_R   0.438054 0.150812 0.862227 0.571758
C87   C     C_R   0.032688 0.655216 0.144731 0.598491
C88   C     C_R   0.938054 0.650812 0.862227 0.571754
C89   C     C_R   0.757632 0.909251 0.082007 0.031113
C90   C     C_3   0.437352 0.098895 0.045300 0.344241
C91   C     C_R   0.241071 0.905081 0.916099 0.032530
C92   C     C_R   0.257631 0.409253 0.082006 0.031109
C93   C     C_R   0.741065 0.405067 0.916092 0.032536
C94   C     C_R   0.493598 0.164853 0.572908 0.028605
C95   C     C_R   0.495725 0.165292 0.422064 0.034150
C96   C     C_R   0.993605 0.664856 0.572912 0.028714
C97   C     C_R   0.995731 0.665297 0.422068 0.034146
C98   C     C_R   0.506279 0.058217 0.534113 -0.039741
C99   C     C_R   0.489737 0.058161 0.460692 -0.040252
C100  C     C_R   0.006283 0.558221 0.534116 -0.039725
C101  C     C_3   0.478262 0.043839 0.983447 0.355577
C102  C     C_R   0.989741 0.558166 0.460695 -0.040278
C103  C     C_R   0.489732 0.273740 0.459563 -0.152249
C104  C     C_R   0.482226 0.271726 0.534076 -0.167145
C105  C     C_R   0.989748 0.773745 0.459568 -0.152245
C106  C     C_R   0.982244 0.771732 0.534081 -0.167113
C107  C     C_R   0.529402 0.949488 0.565605 0.399703
C108  C     C_R   0.474860 0.949327 0.426619 0.461894
C109  C     C_R   0.029401 0.449493 0.565609 0.399712
C110  C     C_R   0.974861 0.449334 0.426623 0.461880
C111  C     C_R   0.023483 0.342631 0.527271 -0.157702
C112  C     C_3   0.937353 0.598891 0.045300 0.344246
C113  C     C_R   0.995596 0.343500 0.457962 -0.116159
C114  C     C_R   0.523486 0.842621 0.527266 -0.157695
C115  C     C_R   0.495599 0.843487 0.457957 -0.116122
C116  C     C_R   0.735872 0.941575 0.586439 0.082866
C117  C     C_R   0.250162 0.936607 0.421644 0.057953
C118  C     C_R   0.235871 0.441612 0.586445 0.082533
C119  C     C_R   0.750165 0.436621 0.421638 0.057955
C120  C     C_R   0.768261 0.044496 0.561082 -0.051744
C121  C     C_R   0.196868 0.996231 0.460482 -0.026962
C122  C     C_R   0.268283 0.544506 0.561068 -0.051593
C123  C     C_3   0.978264 0.543838 0.983446 0.355577
C124  C     C_R   0.696870 0.496237 0.460479 -0.026892
C125  C     C_R   0.784001 0.042527 0.487971 -0.033360
C126  C     C_R   0.189781 0.961737 0.531867 0.006439
C127  C     C_R   0.284015 0.542508 0.487958 -0.033275
C128  C     C_R   0.689788 0.461739 0.531864 0.006345
C129  C     C_R   0.688371 0.904206 0.468680 -0.119331
C130  C     C_R   0.310565 0.898746 0.532555 -0.131259
C131  C     C_R   0.188357 0.404240 0.468688 -0.119317
C132  C     C_R   0.810578 0.398790 0.532546 -0.131235
C133  C     C_R   0.743424 0.966192 0.150919 0.547997
C134  C     C_R   0.756774 0.899374 0.931573 -0.053194
C135  C     C_R   0.256450 0.965610 0.848757 0.549975
C136  C     C_R   0.243424 0.466193 0.150919 0.548003
C137  C     C_R   0.756448 0.465607 0.848754 0.550196
C138  C     C_R   0.693298 0.873611 0.540020 0.370034
C139  C     C_R   0.307087 0.888324 0.459011 0.358712
C140  C     C_R   0.193286 0.373654 0.540030 0.370121
C141  C     C_R   0.807095 0.388354 0.459003 0.358714
C142  C     C_R   0.804484 0.122860 0.608194 0.080056
C143  C     C_R   0.143107 0.067309 0.428491 0.124360
C144  C     C_R   0.304538 0.622844 0.608164 0.080192
Cr1   Cr    Cr6+3 0.772820 0.169820 0.252640 1.139464
Cr2   Cr    Cr6+3 0.383280 0.011130 0.749340 1.125495
Cr3   Cr    Cr6+3 0.116720 0.511130 0.250660 1.117086
Cr4   Cr    Cr6+3 0.883280 0.511130 0.749340 1.125675
Cr5   Cr    Cr6+3 0.227180 0.169820 0.747360 1.144234
Cr6   Cr    Cr6+3 0.272820 0.669820 0.252640 1.139477
Cr7   Cr    Cr6+3 0.727180 0.669820 0.747360 1.144325
Cr8   Cr    Cr6+3 0.615040 0.323610 0.249150 1.130737
Cr9   Cr    Cr6+3 0.384960 0.323610 0.750850 1.123510
Cr10  Cr    Cr6+3 0.115040 0.823610 0.249150 1.130716
Cr11  Cr    Cr6+3 0.884960 0.823610 0.750850 1.123241
Cr12  Cr    Cr6+3 0.616720 0.011130 0.250660 1.117062
F1    F     F_    0.561778 0.947142 0.630828 -0.568301
F2    F     F_    0.493204 0.389350 0.048508 -0.441083
F3    F     F_    0.072448 0.772131 0.919565 -0.541706
F4    F     F_    0.993202 0.889348 0.048510 -0.441079
F5    F     F_    0.391608 0.039450 0.088899 -0.607521
F6    F     F_    0.474574 0.926202 0.960528 -0.594514
F7    F     F_    0.891610 0.539440 0.088897 -0.607504
F8    F     F_    0.974576 0.426201 0.960527 -0.594502
F9    F     F_    0.872691 0.986595 0.079154 -0.512478
F10   F     F_    0.125290 0.985777 0.918877 -0.483651
F11   F     F_    0.372689 0.486602 0.079151 -0.512478
F12   F     F_    0.441371 0.945882 0.361760 -0.535147
F13   F     F_    0.625286 0.485768 0.918872 -0.483634
F14   F     F_    0.046767 0.163616 0.944080 -0.423107
F15   F     F_    0.954101 0.155745 0.050788 -0.421581
F16   F     F_    0.546772 0.663602 0.944084 -0.423098
F17   F     F_    0.454104 0.655761 0.050806 -0.421602
F18   F     F_    0.072470 0.128049 0.089578 -0.499511
F19   F     F_    0.930434 0.127793 0.904175 -0.506569
F20   F     F_    0.572478 0.628035 0.089581 -0.499503
F21   F     F_    0.430438 0.627802 0.904193 -0.506439
F22   F     F_    0.061771 0.447141 0.630839 -0.568354
F23   F     F_    0.941374 0.445892 0.361763 -0.535145
F24   F     F_    0.663743 0.769613 0.560981 -0.621985
F25   F     F_    0.354891 0.820616 0.425232 -0.611920
F26   F     F_    0.163730 0.269659 0.560994 -0.621960
F27   F     F_    0.854892 0.320632 0.425224 -0.611946
F28   F     F_    0.572449 0.272123 0.919562 -0.541716
H1    H     H_    0.597977 0.061842 0.014986 0.138309
H2    H     H_    0.988309 0.263963 0.426710 0.184647
H3    H     H_    0.539124 0.759297 0.552124 0.204004
H4    H     H_    0.488320 0.763943 0.426700 0.184645
H5    H     H_    0.651677 0.856494 0.434841 0.175361
H6    H     H_    0.359726 0.881085 0.559631 0.149448
H7    H     H_    0.151655 0.356535 0.434854 0.175356
H8    H     H_    0.859743 0.381147 0.559620 0.149494
H9    H     H_    0.905205 0.204712 0.626526 0.157622
H10   H     H_    0.032305 0.094577 0.428757 0.112445
H11   H     H_    0.405275 0.704639 0.626482 0.157564
H12   H     H_    0.363721 0.240508 0.993981 0.127761
H13   H     H_    0.532297 0.594514 0.428749 0.112443
H14   H     H_    0.946657 0.150575 0.507964 0.094749
H15   H     H_    0.018618 0.021336 0.552563 0.100960
H16   H     H_    0.446687 0.650501 0.507907 0.094757
H17   H     H_    0.518623 0.521276 0.552565 0.101000
H18   H     H_    0.873640 0.063897 0.417880 0.181890
H19   H     H_    0.115426 0.930942 0.616532 0.152357
H20   H     H_    0.373646 0.563782 0.417863 0.181858
H21   H     H_    0.615439 0.430919 0.616530 0.152253
H22   H     H_    0.629862 0.805408 0.881829 0.199207
H23   H     H_    0.097978 0.561845 0.014986 0.138312
H24   H     H_    0.367086 0.789142 0.115493 0.215639
H25   H     H_    0.129861 0.305418 0.881826 0.199195
H26   H     H_    0.867080 0.289109 0.115481 0.215639
H27   H     H_    0.860762 0.971912 0.945196 0.243367
H28   H     H_    0.132905 0.953829 0.052298 0.262044
H29   H     H_    0.360758 0.471923 0.945194 0.243371
H30   H     H_    0.632900 0.453808 0.052294 0.262049
H31   H     H_    0.671858 0.750980 0.141764 0.176040
H32   H     H_    0.329499 0.750751 0.854420 0.207049
H33   H     H_    0.171854 0.250984 0.141761 0.176032
H34   H     H_    0.863719 0.740500 0.993982 0.127766
H35   H     H_    0.829484 0.250719 0.854404 0.206936
H36   H     H_    0.692550 0.164481 0.743421 0.355443
H37   H     H_    0.224628 0.217561 0.297996 0.352816
H38   H     H_    0.192463 0.665474 0.743142 0.355442
H39   H     H_    0.724623 0.717647 0.298030 0.352819
H40   H     H_    0.489457 0.358397 0.431375 0.140027
H41   H     H_    0.465863 0.352321 0.561324 0.141173
H42   H     H_    0.989480 0.858403 0.431381 0.140040
H43   H     H_    0.965892 0.852332 0.561332 0.141147
H44   H     H_    0.039116 0.259308 0.552132 0.203997
O1    O     O_R   0.788190 0.043000 0.172520 -0.436283
O2    O     O_R   0.454170 0.051610 0.669840 -0.450432
O3    O     O_R   0.045830 0.551610 0.330160 -0.450881
O4    O     O_R   0.954170 0.551610 0.669840 -0.450447
O5    O     O_R   0.681920 0.959720 0.327070 -0.500605
O6    O     O_R   0.318080 0.959720 0.672930 -0.502942
O7    O     O_R   0.181920 0.459720 0.327070 -0.500556
O8    O     O_R   0.818080 0.459720 0.672930 -0.502462
O9    O     O_3   0.668190 0.168190 0.250820 -0.339438
O10   O     O_3   0.331810 0.168190 0.749180 -0.342846
O11   O     O_3   0.168190 0.668190 0.250820 -0.339447
O12   O     O_R   0.211810 0.043000 0.827480 -0.442792
O13   O     O_3   0.831810 0.668190 0.749180 -0.342914
O14   O     O_R   0.766240 0.292300 0.176860 -0.508585
O15   O     O_R   0.233760 0.292300 0.823140 -0.514780
O16   O     O_R   0.266240 0.792300 0.176860 -0.508592
O17   O     O_R   0.733760 0.792300 0.823140 -0.514710
O18   O     O_R   0.670310 0.409160 0.168720 -0.476438
O19   O     O_R   0.329690 0.409160 0.831280 -0.484729
O20   O     O_R   0.170310 0.909160 0.168720 -0.476457
O21   O     O_R   0.829690 0.909160 0.831280 -0.484939
O22   O     O_R   0.556160 0.251900 0.173380 -0.456939
O23   O     O_R   0.288190 0.543000 0.172520 -0.436274
O24   O     O_R   0.443840 0.251900 0.826620 -0.428351
O25   O     O_R   0.056160 0.751900 0.173380 -0.456935
O26   O     O_R   0.943840 0.751900 0.826620 -0.428349
O27   O     O_R   0.545410 0.050140 0.168240 -0.461563
O28   O     O_R   0.454590 0.050140 0.831760 -0.426097
O29   O     O_R   0.045410 0.550140 0.168240 -0.461563
O30   O     O_R   0.954590 0.550140 0.831760 -0.426106
O31   O     O_R   0.681530 0.958350 0.176970 -0.525689
O32   O     O_R   0.318470 0.958350 0.823030 -0.514444
O33   O     O_R   0.181530 0.458350 0.176970 -0.525684
O34   O     O_R   0.711810 0.543000 0.827480 -0.442816
O35   O     O_R   0.818470 0.458350 0.823030 -0.514225
O36   O     O_R   0.788610 0.044480 0.334450 -0.504240
O37   O     O_R   0.211390 0.044480 0.665550 -0.476388
O38   O     O_R   0.288610 0.544480 0.334450 -0.504239
O39   O     O_R   0.711390 0.544480 0.665550 -0.476432
O40   O     O_R   0.766630 0.293670 0.326970 -0.426572
O41   O     O_R   0.233370 0.293670 0.673030 -0.409903
O42   O     O_R   0.266630 0.793670 0.326970 -0.426575
O43   O     O_R   0.733370 0.793670 0.673030 -0.409867
O44   O     O_R   0.670730 0.410640 0.330640 -0.533845
O45   O     O_R   0.556550 0.253260 0.323480 -0.517085
O46   O     O_R   0.329270 0.410640 0.669360 -0.536018
O47   O     O_R   0.170730 0.910640 0.330640 -0.533837
O48   O     O_R   0.829270 0.910640 0.669360 -0.536216
O49   O     O_2   0.813397 0.205445 0.723922 -0.524157
O50   O     O_R   0.705767 0.136601 0.693661 -0.675705
O51   O     O_2   0.105731 0.187153 0.331116 -0.504734
O52   O     O_R   0.223183 0.165372 0.342289 -0.681264
O53   O     O_2   0.313651 0.704406 0.724124 -0.523888
O54   O     O_R   0.205659 0.637715 0.693355 -0.676006
O55   O     O_2   0.605702 0.687091 0.331094 -0.504692
O56   O     O_R   0.443450 0.253260 0.676520 -0.514477
O57   O     O_R   0.723186 0.665442 0.342317 -0.681279
O58   O     O_R   0.056550 0.753260 0.323480 -0.517094
O59   O     O_R   0.943450 0.753260 0.676520 -0.514506
O60   O     O_R   0.545830 0.051610 0.330160 -0.450896

loop_
_geom_bond_atom_site_label_1
_geom_bond_atom_site_label_2
_ccdc_geom_bond_type
Cr2   O6    S    
Cr5   O37   S    
C57   O19   A    
C114  C115  A    
C135  O32   A    
C45   C87   S    
C4    C142  A    
C95   C99   A    
C5    C143  A    
C112  F7    S    
C38   C45   S    
C131  C140  A    
H39   O57   S    
Cr3   O3    S    
C50   C144  S    
C46   C55   A    
C139  F25   S    
C80   C84   A    
C97   C105  A    
C137  O34   A    
C94   C104  A    
C100  C109  A    
C15   C127  A    
C17   C30   S    
C117  C139  A    
C20   C132  A    
C118  C140  A    
C19   C32   S    
C35   C134  A    
C107  F1    S    
C31   O6    A    
C85   O27   A    
C50   O53   D    
C43   C85   S    
C71   C73   A    
C120  C125  A    
C49   O52   S    
C114  H3    S    
C41   H23   S    
C65   H29   S    
C37   C38   S    
C47   C123  S    
C44   C101  S    
Cr1   O36   S    
C120  C142  A    
C111  C113  A    
C67   C74   A    
C33   O8    A    
C20   C33   S    
C119  C141  A    
C18   C130  A    
C53   C71   A    
C56   C83   A    
C22   C118  S    
C69   H24   S    
C136  O33   A    
C29   O4    A    
Cr11  O48   S    
C42   H34   S    
C53   C58   A    
Cr12  O9    S    
C59   C63   A    
C14   C126  A    
C60   C64   A    
C21   C119  S    
C77   C82   A    
Cr1   O40   S    
C30   O5    A    
C140  F26   S    
C61   C65   A    
Cr6   O11   S    
C62   C93   A    
C49   O51   D    
C106  H43   S    
C64   H28   S    
C18   C31   S    
C54   C81   A    
C130  H6    S    
C21   O44   A    
C5    H10   S    
Cr10  O25   S    
C28   C97   S    
C23   O42   A    
Cr2   O32   S    
C87   O29   A    
Cr8   O22   S    
C36   F2    S    
Cr11  O21   S    
C68   O20   A    
C99   C108  A    
C74   C76   A    
C108  C115  A    
C25   O48   A    
C2    C68   S    
C109  C111  A    
C93   C137  S    
C13   C57   S    
C86   O28   A    
Cr9   O19   S    
C118  C122  A    
C122  C127  A    
C42   C112  S    
C72   C78   A    
Cr7   O34   S    
C109  F22   S    
Cr8   O9    S    
Cr2   O10   S    
C129  H5    S    
C12   H18   S    
C37   C47   S    
C132  H8    S    
C59   F9    S    
C28   O58   A    
C108  F12   S    
C23   O47   A    
C95   C103  A    
C89   C133  S    
C62   C66   A    
C34   C39   S    
C16   H21   S    
C25   C116  S    
C27   O56   A    
C77   F21   S    
C116  C120  A    
C141  F27   S    
C17   C125  A    
C5    C9    A    
Cr7   O13   S    
C110  C113  A    
C35   C67   A    
C8    C12   A    
C75   C77   A    
C25   O43   A    
C22   O41   A    
C98   C99   A    
C6    C144  A    
C132  C141  A    
C79   C134  S    
Cr1   O1    S    
C41   C45   S    
C80   F19   S    
C63   H27   S    
C27   C94   S    
C23   C117  S    
C29   C96   S    
C61   C92   A    
Cr3   O11   S    
C37   F3    S    
C38   F4    S    
C18   C126  A    
C81   H31   S    
C110  F23   S    
C96   C100  A    
Cr1   O14   S    
Cr10  O58   S    
C34   C36   S    
C37   C41   S    
C1    O14   A    
C40   C44   S    
C24   C66   A    
C1    C24   S    
H37   O52   S    
C9    H15   S    
Cr9   O56   S    
C31   O37   A    
H38   O54   S    
C104  H41   S    
C48   O49   D    
Cr9   O10   S    
C50   O54   S    
C111  H44   S    
C79   O17   A    
C101  F6    S    
C58   C93   A    
C3    C7    A    
Cr8   O45   S    
Cr2   O2    S    
C83   H33   S    
Cr11  O26   S    
C94   C98   A    
C135  O12   A    
C55   C91   A    
C21   O40   A    
C8    H14   S    
C78   C83   A    
Cr4   O4    S    
Cr6   O38   S    
Cr8   O18   S    
C97   C102  A    
Cr12  O27   S    
C88   O30   A    
C124  C128  A    
Cr12  O31   S    
Cr6   O16   S    
C29   O59   A    
C35   C54   A    
Cr6   O42   S    
C92   C136  S    
C130  C139  A    
C6    H11   S    
C86   O24   A    
C4    H9    S    
Cr9   O24   S    
C43   C90   S    
C63   C134  A    
C76   F20   S    
C112  C123  S    
C3    C51   S    
C88   O26   A    
C12   C125  A    
C24   C53   A    
C60   F10   S    
C98   C107  A    
C61   F11   S    
Cr3   O29   S    
C9    C14   A    
C107  C114  A    
C26   O60   A    
C103  H40   S    
C26   O45   A    
C13   C52   A    
C11   C16   A    
C27   O2    A    
Cr5   O10   S    
C67   H22   S    
C82   H32   S    
Cr11  O13   S    
Cr7   O39   S    
C131  H7    S    
C102  C110  A    
C3    C124  A    
C62   F13   S    
C51   O57   S    
C10   H16   S    
C6    C10   A    
C38   C42   S    
C105  C106  A    
C1    O18   A    
Cr5   O41   S    
C57   O15   A    
C123  F8    S    
C49   C143  S    
C69   C75   A    
C133  O1    A    
Cr7   O17   S    
C133  O31   A    
C91   C135  S    
C103  C104  A    
C36   C43   S    
C40   C90   S    
C22   O46   A    
C32   O7    A    
Cr3   O7    S    
C66   H30   S    
C75   F17   S    
C121  C143  A    
C122  C144  A    
C4    C8    A    
C138  F24   S    
C15   H20   S    
C45   C112  S    
Cr6   O23   S    
C13   C65   A    
C119  C124  A    
C2    C46   A    
C7    C11   A    
C7    H13   S    
C33   O39   A    
Cr8   O44   S    
C20   C128  A    
C10   C15   A    
C59   C89   A    
Cr5   O12   S    
C11   H17   S    
C117  C121  A    
C46   C69   A    
C129  C138  A    
Cr1   O9    S    
C136  O23   A    
C34   F28   S    
Cr9   O46   S    
C73   F15   S    
C74   F16   S    
Cr5   O15   S    
C85   O22   A    
C79   O21   A    
C51   O55   D    
C44   C86   S    
C2    C64   A    
C39   C101  S    
C116  C138  A    
C19   C131  A    
C90   F5    S    
C17   C129  A    
C36   C40   S    
C34   C44   S    
C54   C89   A    
C87   O25   A    
C39   C43   S    
Cr10  O11   S    
Cr4   O8    S    
C72   F14   S    
C90   C101  S    
C84   H35   S    
C58   C84   A    
Cr12  O5    S    
C71   H26   S    
C14   H19   S    
C100  C102  A    
C48   C142  S    
C105  H42   S    
C55   C82   A    
C32   O38   A    
C16   C128  A    
C28   O3    A    
Cr10  O20   S    
H36   O50   S    
Cr4   O13   S    
Cr3   O33   S    
Cr11  O59   S    
C137  O35   A    
Cr12  O60   S    
C40   H12   S    
C60   C91   A    
C26   C95   S    
C96   C106  A    
Cr2   O28   S    
Cr4   O30   S    
C76   C81   A    
C48   O50   S    
C47   C88   S    
C41   C123  S    
C121  C126  A    
C115  H4    S    
Cr7   O43   S    
C68   O16   A    
C113  H2    S    
C19   C127  A    
C73   C80   A    
C30   O36   A    
C42   C47   S    
Cr4   O35   S    
Cr10  O47   S    
C52   C70   A    
C39   H1    S    
C56   C92   A    
C78   F18   S    
C70   H25   S    
C70   C72   A    
C52   C56   A    
