data_mof_unit_9845.cif
_audit_creation_date              2012-12-11T16:57:22-0500
_audit_creation_method            fapswitch 2.2
_symmetry_space_group_name_H-M    P1
_symmetry_Int_Tables_number       1
_space_group_crystal_system       triclinic
_cell_length_a                    14.531211
_cell_length_b                    16.188193
_cell_length_c                    6.937712
_cell_angle_alpha                 89.962803
_cell_angle_beta                  98.701632
_cell_angle_gamma                 90.023408
_cell_volume                      1613.20081091

loop_
_atom_site_label
_atom_site_type_symbol
_atom_type_description
_atom_site_fract_x
_atom_site_fract_y
_atom_site_fract_z
_atom_type_partial_charge
O1    O     O_R   0.584990 0.413650 0.534420 -0.542934
O2    O     O_R   0.584990 0.586350 0.534420 -0.537805
O3    O     O_R   0.596190 0.585230 0.208380 -0.545915
O4    O     O_R   0.596190 0.414770 0.208380 -0.546193
O5    O     O_R   0.415010 0.586420 0.976930 -0.534451
O6    O     O_R   0.415010 0.413580 0.976930 -0.540971
C1    C     C_R   0.618930 0.614225 0.384114 0.728074
C2    C     C_R   0.618829 0.385690 0.384121 0.682072
O7    O     O_3   0.440560 0.500000 0.319140 -0.346993
V1    V     V_3+5 0.511030 0.500000 0.068070 1.440173
O8    O     O_R   0.403810 0.414840 0.643540 -0.528256
O9    O     O_R   0.403810 0.585160 0.643540 -0.526330
C3    C     C_R   0.379517 0.387713 0.806167 0.754009
C4    C     C_R   0.383735 0.615593 0.806919 0.761081
V2    V     V_3+5 0.488970 0.500000 0.560620 1.482529
O10   O     O_3   0.559440 0.500000 0.859420 -0.385020
C5    C     C_2   0.314690 0.683520 0.802131 -0.362746
C6    C     C_2   0.311403 0.318935 0.800470 -0.368724
C7    C     C_2   0.303444 0.729451 0.961582 -0.008428
C8    C     C_2   0.267671 0.298069 0.953903 -0.019444
C9    C     C_2   0.198705 0.823004 0.112750 -0.307164
C10   C     C_2   0.187765 0.185928 0.110310 -0.306798
C11   C     C_2   0.225545 0.789360 0.951530 -0.165037
C12   C     C_2   0.211851 0.221058 0.947884 -0.165366
H1    H     H_    0.268815 0.694024 0.665422 0.138848
H2    H     H_    0.301170 0.280761 0.670134 0.132000
C13   C     C_R   0.753630 0.687568 0.587843 0.084312
C14   C     C_R   0.753844 0.312518 0.587665 0.093213
C15   C     C_R   0.690503 0.680938 0.414524 -0.100635
C16   C     C_R   0.690552 0.319086 0.414555 -0.099959
C17   C     C_R   0.699190 0.739572 0.267665 -0.158558
C18   C     C_R   0.699326 0.260562 0.267665 -0.173729
H3    H     H_    0.652484 0.737162 0.130905 0.124299
H4    H     H_    0.652613 0.262974 0.130923 0.120959
C19   C     C_R   0.763501 0.805649 0.301134 -0.160198
C20   C     C_R   0.763694 0.194547 0.301086 -0.159755
C21   C     C_R   0.821224 0.815288 0.482483 -0.113913
C22   C     C_R   0.821459 0.184875 0.482381 -0.114342
C23   C     C_R   0.817172 0.752732 0.620820 0.082700
C24   C     C_R   0.817493 0.247452 0.620570 0.081990
C25   C     C_3   0.805234 0.759024 0.829834 -0.228490
C26   C     C_3   0.805924 0.241262 0.829835 -0.231162
C27   C     C_3   0.736617 0.687311 0.794388 -0.431831
C28   C     C_3   0.737136 0.312828 0.794383 -0.432482
H5    H     H_    0.773371 0.818469 0.864620 0.122051
H6    H     H_    0.774274 0.181771 0.865275 0.121155
H7    H     H_    0.663881 0.705203 0.806381 0.165126
H8    H     H_    0.664485 0.294796 0.806883 0.160495
O11   O     O_R   0.921430 0.915960 0.371040 -0.532181
O12   O     O_R   0.921430 0.084040 0.371040 -0.532442
O13   O     O_R   0.910450 0.087500 0.697310 -0.548356
O14   O     O_R   0.910450 0.912500 0.697310 -0.548349
O15   O     O_R   0.091710 0.087460 0.928430 -0.542222
O16   O     O_R   0.091710 0.912540 0.928430 -0.542130
C29   C     C_R   0.887961 0.114369 0.519443 0.695960
C30   C     C_R   0.887854 0.885709 0.519467 0.695507
O17   O     O_3   0.065970 1.000000 0.586140 -0.373451
V3    V     V_3+5 0.995640 1.000000 0.837400 1.420826
O18   O     O_R   0.103020 0.915700 0.261710 -0.542536
O19   O     O_R   0.103020 0.084300 0.261710 -0.543081
C31   C     C_R   0.125669 0.886663 0.100274 0.777470
C32   C     C_R   0.124371 0.114410 0.099940 0.774363
V4    V     V_3+5 0.017940 0.000000 0.344880 1.425675
O20   O     O_3   0.947330 1.000000 0.046180 -0.377964
H9    H     H_    0.189199 0.805900 0.808082 0.155658
H10   H     H_    0.190014 0.192712 0.806344 0.155128
H11   H     H_    0.760480 0.628899 0.870624 0.175331
H12   H     H_    0.760970 0.371325 0.870147 0.177023
C33   C     C_1   0.368718 0.724871 0.142238 0.349395
N1    N     N_1   0.420454 0.721663 0.286334 -0.386691
C34   C     C_1   0.268489 0.352018 0.121435 0.366915
N2    N     N_1   0.268180 0.394760 0.254963 -0.338646
H13   H     H_    0.232071 0.804829 0.257251 0.132557
H14   H     H_    0.211952 0.212019 0.253206 0.128375
H15   H     H_    0.764816 0.851662 0.188544 0.116960
H16   H     H_    0.764969 0.148569 0.188551 0.116938
C35   C     C_1   0.891500 0.738243 0.960581 0.366069
N3    N     N_1   0.959343 0.722027 0.063707 -0.363260
C36   C     C_1   0.892285 0.262349 0.959936 0.369719
N4    N     N_1   0.960182 0.278849 0.062563 -0.360016

loop_
_geom_bond_atom_site_label_1
_geom_bond_atom_site_label_2
_ccdc_geom_bond_type
C22   C24   A    
C1    C15   S    
C13   C15   A    
O1    C2    A    
O2    C1    A    
C6    H2    S    
O4    C2    A    
C23   C25   S    
C35   N3    T    
C19   H15   S    
C3    C6    S    
O19   V4    S    
O11   V4    S    
C18   C20   A    
C10   C12   D    
C19   C21   A    
O3    C1    A    
C25   C35   S    
C14   C24   A    
V2    O10   S    
C9    H13   S    
O19   C32   A    
C26   H6    S    
C20   H16   S    
C21   C30   S    
O8    V2    S    
C22   C29   S    
C8    C12   S    
C13   C23   A    
C17   H3    S    
C8    C34   S    
O1    V2    S    
O7    V1    S    
O13   C29   A    
C12   H10   S    
C24   C26   S    
C26   C36   S    
O12   V4    S    
C25   C27   S    
C4    C5    S    
C26   C28   S    
O17   V4    S    
V3    O20   S    
O18   C31   A    
C28   H8    S    
C14   C28   S    
V4    O20   S    
C18   H4    S    
C7    C11   S    
C10   C32   S    
O15   C32   A    
O9    V2    S    
C15   C17   A    
O13   V3    S    
O2    V2    S    
O5    C4    A    
O14   V3    S    
O9    C4    A    
C9    C11   D    
C17   C19   A    
C28   H12   S    
C10   H14   S    
O4    V1    S    
O16   V3    S    
C9    C31   S    
O6    V1    S    
O15   V3    S    
O16   C31   A    
O11   C30   A    
O18   V4    S    
O12   C29   A    
C2    C16   S    
C11   H9    S    
C20   C22   A    
O7    V2    S    
C5    H1    S    
O5    V1    S    
C21   C23   A    
O3    V1    S    
V1    O10   S    
O6    C3    A    
C16   C18   A    
O8    C3    A    
O17   V3    S    
C14   C16   A    
C5    C7    D    
C6    C8    D    
C33   N1    T    
C7    C33   S    
C36   N4    T    
C13   C27   S    
C34   N2    T    
C27   H11   S    
C25   H5    S    
C27   H7    S    
O14   C30   A    
