data_mof_unit_57753.cif
_audit_creation_date              2012-12-10T19:42:54-0500
_audit_creation_method            fapswitch 2.2
_symmetry_space_group_name_H-M    P1
_symmetry_Int_Tables_number       1
_space_group_crystal_system       triclinic
_cell_length_a                    10.886186
_cell_length_b                    13.003179
_cell_length_c                    11.735424
_cell_angle_alpha                 100.99174
_cell_angle_beta                  94.653207
_cell_angle_gamma                 92.128313
_cell_volume                      1623.00695759

loop_
_atom_site_label
_atom_site_type_symbol
_atom_type_description
_atom_site_fract_x
_atom_site_fract_y
_atom_site_fract_z
_atom_type_partial_charge
C1    C     C_R   0.498084 0.298922 0.477714 0.836560
C2    C     C_R   0.501916 0.701078 0.522286 0.836564
C3    C     C_R   0.871947 0.499397 0.503068 -0.032926
C4    C     C_R   0.128053 0.500603 0.496932 -0.032923
C5    C     C_R   0.947141 0.477026 0.598731 0.052981
C6    C     C_R   0.052858 0.522974 0.401269 0.052984
C7    C     C_R   0.501099 0.814850 0.535490 -0.075312
C8    C     C_R   0.498900 0.185150 0.464510 -0.075315
C9    C     C_R   0.518809 0.013797 0.345158 0.021081
C10   C     C_R   0.481189 0.986203 0.654841 0.021080
C11   C     C_R   0.517927 0.122526 0.357617 -0.233656
C12   C     C_R   0.482072 0.877474 0.642383 -0.233654
C13   C     C_R   0.482155 0.139712 0.561065 -0.240790
C14   C     C_R   0.517844 0.860288 0.438934 -0.240790
C15   C     C_R   0.491360 0.032074 0.554911 0.115914
C16   C     C_R   0.508639 0.967926 0.445088 0.115915
C17   C     C_R   0.426175 0.375590 0.014588 -0.361664
C18   C     C_R   0.573827 0.624409 0.985412 -0.361679
C19   C     C_R   0.423634 0.390516 0.136498 0.187751
C20   C     C_R   0.576367 0.609484 0.863502 0.187765
C21   C     C_R   0.527460 0.557518 0.160023 0.018160
C22   C     C_R   0.472540 0.442482 0.839977 0.018167
C23   C     C_R   0.262116 0.500512 0.499067 0.835183
C24   C     C_R   0.737884 0.499488 0.500933 0.835182
C25   C     C_R   0.525161 0.546115 0.036732 0.035706
C26   C     C_R   0.474840 0.453885 0.963268 0.035699
C27   C     C_R   0.213956 0.657872 0.189427 -0.157467
C28   C     C_R   0.786040 0.342119 0.810563 -0.157485
C29   C     C_R   0.164766 0.642235 0.291626 0.044115
C30   C     C_R   0.835232 0.357759 0.708366 0.044112
C31   C     C_R   0.102002 0.544583 0.292773 -0.004215
C32   C     C_R   0.897997 0.455412 0.707225 -0.004217
C33   C     C_R   0.084494 0.466431 0.188874 -0.023909
C34   C     C_R   0.915502 0.533561 0.811125 -0.023918
C35   C     C_R   0.136374 0.484670 0.086588 0.009616
C36   C     C_R   0.863623 0.515318 0.913410 0.009607
C37   C     C_R   0.200447 0.580452 0.089107 -0.151164
C38   C     C_R   0.799547 0.419535 0.910886 -0.151184
C39   C     C_R   0.925892 0.522448 0.406127 -0.216468
C40   C     C_R   0.074107 0.477553 0.593873 -0.216454
Cu1   Cu    Cu3+1 0.509250 0.507730 0.615930 0.988931
Cu2   Cu    Cu3+1 0.490750 0.492270 0.384070 0.988926
N1    N     N_R   0.523180 0.519350 0.790130 -0.192841
N2    N     N_R   0.476820 0.480650 0.209870 -0.192845
O1    O     O_R   0.506570 0.354460 0.582000 -0.613863
O2    O     O_R   0.493430 0.645540 0.418000 -0.613865
O3    O     O_R   0.490940 0.341410 0.386200 -0.566325
O4    O     O_R   0.509060 0.658590 0.613800 -0.566319
O5    O     O_R   0.327460 0.506540 0.597900 -0.598871
O6    O     O_R   0.672540 0.493460 0.402100 -0.598873
O7    O     O_R   0.311830 0.493480 0.402100 -0.539803
O8    O     O_R   0.688170 0.506520 0.597900 -0.539802
H1    H     H_    0.242545 0.595085 0.012765 0.174722
H2    H     H_    0.757449 0.404899 0.987226 0.174718
H3    H     H_    0.429156 0.372415 0.784395 0.140569
H4    H     H_    0.570844 0.627585 0.215605 0.140570
C41   C     C_2   0.640494 0.695602 0.822496 0.454458
H5    H     H_    0.627739 0.776234 0.863411 0.043324
O9    O     O_2   0.715171 0.678769 0.750301 -0.541991
C42   C     C_2   0.359507 0.304397 0.177504 0.454504
H6    H     H_    0.372262 0.223765 0.136590 0.043322
O10   O     O_2   0.284828 0.321231 0.249697 -0.541978
H7    H     H_    0.385825 0.303752 0.959384 0.181360
H8    H     H_    0.614178 0.696246 0.040616 0.181345
H9    H     H_    0.263741 0.731006 0.187005 0.185569
H10   H     H_    0.736254 0.268984 0.812981 0.185573
C43   C     C_2   0.181624 0.730766 0.393648 0.350703
H11   H     H_    0.241546 0.798516 0.390132 0.091125
O11   O     O_2   0.128069 0.731200 0.481123 -0.546084
C44   C     C_2   0.818377 0.269231 0.606342 0.350695
H12   H     H_    0.758455 0.201480 0.609854 0.091123
O12   O     O_2   0.871936 0.268799 0.518869 -0.546086
C45   C     C_2   0.012003 0.367363 0.190287 0.466284
H13   H     H_    0.020803 0.331603 0.266687 0.115874
O13   O     O_2   0.937324 0.327722 0.109251 -0.526910
C46   C     C_2   0.987989 0.632632 0.809715 0.466311
H14   H     H_    0.979167 0.668404 0.733323 0.115877
O14   O     O_2   0.062689 0.672260 0.890739 -0.526913
C47   C     C_2   0.131799 0.406032 0.976094 0.395365
H15   H     H_    0.145216 0.432069 0.895185 0.048656
O15   O     O_2   0.120163 0.311994 0.974034 -0.499341
C48   C     C_2   0.868199 0.593951 0.023910 0.395329
H16   H     H_    0.854740 0.567911 0.104809 0.048648
O16   O     O_2   0.879885 0.687989 0.025984 -0.499322
H17   H     H_    0.869034 0.540484 0.332949 0.150401
H18   H     H_    0.130966 0.459517 0.667052 0.150402
H19   H     H_    0.539452 0.810409 0.359405 0.198809
H20   H     H_    0.460548 0.189591 0.640595 0.198810
H21   H     H_    0.470352 0.841658 0.717265 0.142598
H22   H     H_    0.529647 0.158341 0.282734 0.142595
C49   C     C_2   0.528463 0.953472 0.225498 0.327730
H23   H     H_    0.581165 0.987617 0.165961 0.095060
O17   O     O_2   0.471509 0.869408 0.189272 -0.585000
C50   C     C_2   0.471534 0.046528 0.774502 0.327730
H24   H     H_    0.418832 0.012382 0.834039 0.095063
O18   O     O_2   0.528488 0.130592 0.810728 -0.585003

loop_
_geom_bond_atom_site_label_1
_geom_bond_atom_site_label_2
_ccdc_geom_bond_type
C24   O8    A    
C8    C13   A    
C27   C29   A    
C1    C8    S    
Cu1   N1    S    
Cu1   Cu2   S    
C2    C7    S    
C1    O1    A    
C9    C49   S    
C2    O2    A    
C17   C26   A    
C35   C37   A    
C9    C16   A    
C46   O14   D    
C14   H19   S    
C10   C15   A    
Cu2   O2    S    
C23   O5    A    
C10   C50   S    
C15   C16   A    
C42   O10   D    
C45   H13   S    
C40   H18   S    
C17   C19   A    
C29   C43   S    
C7    C14   A    
C4    C40   A    
C36   C48   S    
C31   C33   A    
C44   H12   S    
Cu1   O8    S    
C18   C20   A    
Cu2   O7    S    
C5    C32   S    
C37   H1    S    
C6    C31   S    
C3    C39   A    
C45   O13   D    
C3    C24   S    
C18   C25   A    
Cu2   N2    S    
Cu1   O5    S    
C30   C44   S    
C24   O6    A    
C7    C12   A    
C43   H11   S    
C12   H21   S    
C46   H14   S    
C4    C6    A    
C49   H23   S    
C47   O15   D    
C4    C23   S    
C1    O3    A    
C2    O4    A    
C25   C26   A    
C42   H6    S    
C43   O11   D    
C32   C34   A    
C28   H10   S    
C27   H9    S    
C49   O17   D    
C21   N2    A    
C23   O7    A    
C22   N1    A    
C38   H2    S    
C28   C38   A    
C50   O18   D    
C9    C11   A    
C10   C12   A    
Cu2   O6    S    
C33   C45   S    
C48   O16   D    
C13   C15   A    
C14   C16   A    
C39   H17   S    
C20   N1    A    
C19   N2    A    
C21   C25   A    
C3    C5    A    
C21   H4    S    
C22   H3    S    
C19   C42   S    
C36   C38   A    
C28   C30   A    
C29   C31   A    
C17   H7    S    
C30   C32   A    
C11   H22   S    
C18   H8    S    
C41   H5    S    
C27   C37   A    
C8    C11   A    
C13   H20   S    
C35   C47   S    
C33   C35   A    
Cu1   O4    S    
C34   C36   A    
Cu2   O3    S    
C50   H24   S    
C41   O9    D    
C47   H15   S    
C48   H16   S    
C22   C26   A    
C5    C40   A    
Cu1   O1    S    
C6    C39   A    
C44   O12   D    
C20   C41   S    
C34   C46   S    
