data_mof_unit_52402.cif
_audit_creation_date              2012-12-10T18:16:19-0500
_audit_creation_method            fapswitch 2.2
_symmetry_space_group_name_H-M    P1
_symmetry_Int_Tables_number       1
_space_group_crystal_system       triclinic
_cell_length_a                    12.590562
_cell_length_b                    13.023865
_cell_length_c                    27.697402
_cell_angle_alpha                 90.79914
_cell_angle_beta                  102.678177
_cell_angle_gamma                 82.828005
_cell_volume                      4395.92860612

loop_
_atom_site_label
_atom_site_type_symbol
_atom_type_description
_atom_site_fract_x
_atom_site_fract_y
_atom_site_fract_z
_atom_type_partial_charge
C1    C     C_R   0.439322 0.691695 0.496035 0.876607
C2    C     C_R   0.605602 0.507540 0.732402 0.211824
C3    C     C_R   0.508898 0.493225 0.747883 0.268807
C4    C     C_R   0.491951 0.490943 0.897297 -0.058727
C5    C     C_R   0.475019 0.585117 0.870908 -0.079340
C6    C     C_R   0.445294 0.677370 0.893594 -0.148419
C7    C     C_R   0.515026 0.397317 0.873312 -0.002196
C8    C     C_R   0.504083 0.497894 0.646952 -0.093872
C9    C     C_R   0.498210 0.496196 0.353235 -0.042722
C10   C     C_R   0.485727 0.582436 0.024409 0.052565
C11   C     C_R   0.483769 0.394034 0.022465 0.014663
C12   C     C_R   0.501051 0.499884 0.593915 0.847433
C13   C     C_R   0.485892 0.487490 0.048912 0.082869
C14   C     C_R   0.509664 0.669735 0.053380 -0.244713
C15   C     C_R   0.516922 0.667951 0.103999 -0.144227
C16   C     C_R   0.503988 0.577644 0.127580 0.000309
C17   C     C_R   0.490343 0.486075 0.100392 -0.100077
C18   C     C_R   0.482083 0.393490 0.124699 -0.066262
C19   C     C_R   0.482762 0.397182 0.175681 0.509177
C20   C     C_R   0.506634 0.576405 0.178161 0.499855
C21   C     C_R   0.399810 0.482155 0.268408 -0.103507
C22   C     C_R   0.400489 0.485565 0.318631 -0.221233
C23   C     C_R   0.560573 0.308947 0.508826 0.867143
C24   C     C_R   0.595230 0.502802 0.336919 -0.218362
C25   C     C_R   0.594305 0.499096 0.286689 -0.105614
C26   C     C_R   0.496622 0.489003 0.252448 0.317230
C27   C     C_R   0.469303 0.585390 0.972131 -0.051673
C28   C     C_R   0.485462 0.490255 0.947526 0.044320
C29   C     C_R   0.495372 0.394269 0.972818 0.080799
C30   C     C_R   0.438550 0.678925 0.943327 0.198333
C31   C     C_R   0.529401 0.303438 0.899076 -0.147794
C32   C     C_R   0.472537 0.303066 0.046806 -0.292360
C33   C     C_R   0.472209 0.301560 0.097152 0.244254
C34   C     C_R   0.499294 0.499267 0.406113 0.869571
C35   C     C_R   0.519241 0.301696 0.947912 -0.222744
C36   C     C_R   0.643007 0.097717 0.604444 0.117343
C37   C     C_R   0.592906 0.204548 0.529256 -0.144888
C38   C     C_R   0.308823 0.837699 0.456043 -0.201620
C39   C     C_R   0.280984 0.943346 0.445613 0.277752
C40   C     C_R   0.348699 0.012525 0.471258 -0.263971
C41   C     C_R   0.442443 0.977043 0.508347 0.087547
C42   C     C_R   0.460985 0.872828 0.523062 0.039878
C43   C     C_R   0.518282 0.043078 0.531079 0.048049
C44   C     C_R   0.589072 0.017248 0.577877 0.009461
C45   C     C_R   0.482626 0.584157 0.821255 0.506690
C46   C     C_R   0.604389 0.912217 0.594356 0.158046
C47   C     C_R   0.540793 0.841795 0.566278 -0.215905
C48   C     C_R   0.527580 0.132487 0.506448 -0.277980
C49   C     C_R   0.655198 0.186088 0.578070 0.198158
C50   C     C_R   0.400688 0.802026 0.493176 -0.155215
C51   C     C_R   0.086718 0.345555 0.431151 -0.307915
C52   C     C_R   0.801792 0.626156 0.560693 0.011727
C53   C     C_R   0.907332 0.653673 0.573763 -0.249757
C54   C     C_R   0.987842 0.606493 0.550528 -0.186237
C55   C     C_R   0.963157 0.530010 0.514465 0.014215
C56   C     C_R   0.522773 0.400038 0.823767 0.493492
C57   C     C_R   0.854277 0.504446 0.502846 0.239923
C58   C     C_R   0.041859 0.477214 0.490013 -0.014931
C59   C     C_R   0.010527 0.399059 0.455325 0.198302
C60   C     C_R   0.903653 0.374497 0.445248 -0.293062
C61   C     C_R   0.826923 0.426363 0.468726 -0.226289
C62   C     C_R   0.151146 0.498240 0.498501 -0.049949
C63   C     C_R   0.193302 0.369838 0.441354 0.008275
C64   C     C_R   0.412233 0.480639 0.713585 -0.133927
C65   C     C_R   0.409632 0.482820 0.663417 -0.217048
C66   C     C_R   0.601692 0.509958 0.681365 -0.244712
H1    H     H_    0.673905 0.521005 0.667978 0.178029
H2    H     H_    0.338682 0.469617 0.726079 0.143040
H3    H     H_    0.548490 0.230610 0.881569 0.187964
H4    H     H_    0.462203 0.231440 0.027306 0.142961
H5    H     H_    0.671794 0.510441 0.362853 0.169253
H6    H     H_    0.669268 0.504221 0.274257 0.139323
H7    H     H_    0.534754 0.226696 0.965880 0.143150
H8    H     H_    0.481826 0.148928 0.468860 0.156226
H9    H     H_    0.260138 0.783074 0.434530 0.163535
H10   H     H_    0.325495 0.094153 0.462750 0.133650
H11   H     H_    0.553703 0.762123 0.578939 0.163201
H12   H     H_    0.253572 0.329047 0.423190 0.129579
H13   H     H_    0.879134 0.314553 0.419093 0.159932
H14   H     H_    0.064111 0.285494 0.404774 0.141586
H15   H     H_    0.182451 0.556221 0.523913 0.127222
H16   H     H_    0.738722 0.660131 0.578815 0.129977
H17   H     H_    0.421818 0.748110 0.871774 0.197375
H18   H     H_    0.068410 0.630329 0.562029 0.138888
H19   H     H_    0.926943 0.710943 0.601939 0.147599
H20   H     H_    0.746918 0.402633 0.459815 0.216551
H21   H     H_    0.324620 0.480332 0.330264 0.162798
H22   H     H_    0.324125 0.474756 0.241812 0.140159
H23   H     H_    0.532954 0.737797 0.124574 0.187467
H24   H     H_    0.526425 0.739508 0.037623 0.173719
H25   H     H_    0.333489 0.473104 0.637606 0.168255
N1    N     N_R   0.506889 0.492579 0.799108 -0.356358
N2    N     N_R   0.495357 0.487409 0.200843 -0.360405
N3    N     N_R   0.222180 0.444690 0.474320 -0.100545
N4    N     N_R   0.776980 0.554780 0.525420 -0.125616
O1    O     O_R   0.366730 0.627160 0.487740 -0.614278
O2    O     O_2   0.518972 0.663755 0.204548 -0.563089
O3    O     O_2   0.545365 0.311236 0.800221 -0.585789
O4    O     O_2   0.471072 0.312060 0.200250 -0.533391
O5    O     O_R   0.544830 0.662520 0.504140 -0.606090
O6    O     O_R   0.410970 0.482310 0.563040 -0.614103
O7    O     O_R   0.589070 0.517670 0.579450 -0.648445
O8    O     O_R   0.455170 0.337480 0.495860 -0.605459
O9    O     O_R   0.633270 0.372840 0.512260 -0.638403
O10   O     O_R   0.410930 0.482330 0.420550 -0.619294
O11   O     O_R   0.589030 0.517690 0.436960 -0.630478
O12   O     O_2   0.465561 0.673701 0.795122 -0.570740
Zn1   Zn    Zn3+2 0.381080 0.476390 0.489050 0.942495
Zn2   Zn    Zn3+2 0.618920 0.523610 0.510950 0.923585
N5    N     N_2   0.463724 0.206092 0.119545 -0.250399
H26   H     H_    0.406550 0.164401 0.098183 0.215431
C67   C     C_3   0.568022 0.143031 0.136804 -0.687102
H27   H     H_    0.604958 0.117484 0.105000 0.205213
H28   H     H_    0.555393 0.073548 0.156598 0.241103
H29   H     H_    0.625469 0.187061 0.162840 0.257218
N6    N     N_2   0.722784 0.259179 0.602829 -0.308769
H30   H     H_    0.686780 0.334752 0.600648 0.249300
C68   C     C_3   0.832730 0.246731 0.594205 -0.751873
H31   H     H_    0.881198 0.302939 0.616871 0.235635
H32   H     H_    0.830680 0.261093 0.554535 0.250660
H33   H     H_    0.873747 0.167286 0.605078 0.237501
C69   C     C_3   0.700440 0.866454 0.634736 -0.448718
C70   C     C_3   0.662997 0.818695 0.677411 -0.840180
H34   H     H_    0.601062 0.873198 0.690808 0.269796
H35   H     H_    0.626692 0.746573 0.665468 0.257978
H36   H     H_    0.734692 0.798768 0.708561 0.251453
H37   H     H_    0.750673 0.805571 0.618623 0.195983
H38   H     H_    0.759137 0.921994 0.648944 0.203244
C71   C     C_3   0.665041 0.103294 0.660806 -0.435083
C72   C     C_3   0.593080 0.193427 0.678495 -0.768640
H39   H     H_    0.617745 0.269305 0.671017 0.261592
H40   H     H_    0.505473 0.191765 0.660175 0.254281
H41   H     H_    0.601544 0.186417 0.719114 0.279579
H42   H     H_    0.644071 0.034206 0.677322 0.231526
H43   H     H_    0.753098 0.110074 0.676180 0.223470
C73   C     C_3   0.709312 0.519793 0.771202 -0.394002
C74   C     C_3   0.811664 0.530437 0.751349 -0.892039
H44   H     H_    0.832635 0.461003 0.729911 0.264927
H45   H     H_    0.798831 0.601199 0.727825 0.259122
H46   H     H_    0.882034 0.537251 0.782870 0.260967
H47   H     H_    0.693280 0.589344 0.793452 0.226673
H48   H     H_    0.728384 0.451305 0.796525 0.220242
N7    N     N_2   0.185700 0.980224 0.409102 -0.307731
H49   H     H_    0.159687 0.058177 0.411198 0.217566
C75   C     C_3   0.188169 0.948537 0.359030 -0.770793
H50   H     H_    0.110212 0.980345 0.333637 0.240931
H51   H     H_    0.196569 0.862934 0.356209 0.245642
H52   H     H_    0.257437 0.978408 0.347112 0.244340
N8    N     N_2   0.382596 0.769495 0.960680 -0.308366
H53   H     H_    0.346145 0.761256 0.990039 0.238435
C76   C     C_3   0.425284 0.866837 0.957211 -0.806632
H54   H     H_    0.382658 0.927463 0.977285 0.238933
H55   H     H_    0.410426 0.892601 0.918048 0.252430
H56   H     H_    0.514649 0.859295 0.973796 0.236747

loop_
_geom_bond_atom_site_label_1
_geom_bond_atom_site_label_2
_ccdc_geom_bond_type
C10   C27   A    
C58   C62   A    
C59   C60   A    
C20   N2    A    
C60   H13   S    
C8    C66   A    
C41   C42   A    
C54   C55   A    
C56   O3    S    
C21   C26   A    
C67   H28   S    
C75   H50   S    
C70   H34   S    
C53   C54   A    
C74   H45   S    
C63   N3    A    
N3    Zn1   S    
C5    C6    A    
C64   H2    S    
C28   C29   A    
N8    C76   S    
C38   C39   A    
C9    C22   A    
C70   H35   S    
N7    H49   S    
N6    H30   S    
C52   N4    A    
N7    C75   S    
C18   C19   A    
C76   H56   S    
C69   H37   S    
C45   N1    A    
N5    H26   S    
C14   H24   S    
C3    N1    S    
C73   H48   S    
C4    C28   A    
C71   H43   S    
C23   O8    A    
C20   O2    S    
C16   C17   A    
C76   H54   S    
O8    Zn1   S    
C43   C48   A    
C19   N2    A    
C8    C12   S    
C26   N2    S    
C66   H1    S    
O1    Zn1   S    
C21   H22   S    
C8    C65   A    
C21   C22   A    
C68   H31   S    
C27   C30   A    
C69   H38   S    
C41   C43   A    
C7    C56   A    
C4    C7    A    
C1    O5    A    
C54   H18   S    
C67   H27   S    
C75   H51   S    
C44   C46   A    
C68   H32   S    
C38   H9    S    
O10   Zn1   S    
C74   H46   S    
C7    C31   A    
C34   O11   A    
C48   H8    S    
C51   C63   A    
C24   C25   A    
C10   C14   A    
C39   C40   A    
C19   O4    S    
C73   C74   S    
C30   N8    S    
C32   H4    S    
C58   C59   A    
C23   C37   S    
C5    C45   A    
C2    C73   S    
C40   H10   S    
C60   C61   A    
C68   H33   S    
C72   H40   S    
C43   C44   A    
C12   O7    A    
C73   H47   S    
C15   H23   S    
C37   C49   A    
C23   O9    A    
C31   H3    S    
C16   C20   A    
C17   C18   A    
C25   H6    S    
C22   H21   S    
C37   C48   A    
C52   H16   S    
C42   C50   A    
C40   C41   A    
C6    C30   A    
C62   H15   S    
C39   N7    S    
C11   C32   A    
C62   N3    A    
N4    Zn2   S    
C9    C34   S    
C31   C35   A    
C36   C44   A    
C72   H41   S    
C51   C59   A    
C47   H11   S    
C75   H52   S    
C52   C53   A    
C71   C72   S    
C1    C50   S    
C65   H25   S    
C46   C47   A    
C35   H7    S    
C6    H17   S    
C34   O10   A    
C4    C5    A    
C2    C66   A    
C10   C13   A    
C70   H36   S    
C9    C24   A    
C57   C61   A    
C38   C50   A    
C74   H44   S    
C29   C35   A    
C13   C17   A    
C64   C65   A    
C55   C57   A    
C2    C3    A    
C25   C26   A    
C12   O6    A    
C36   C71   S    
C32   C33   A    
C11   C13   A    
O9    Zn2   S    
O6    Zn1   S    
C1    O1    A    
C51   H14   S    
N6    C68   S    
C72   H39   S    
C42   C47   A    
C76   H55   S    
C3    C64   A    
C18   C33   A    
N5    C67   S    
C61   H20   S    
C71   H42   S    
C45   O12   S    
O5    Zn2   S    
C49   N6    S    
C11   C29   A    
C57   N4    A    
C55   C58   A    
C27   C28   A    
C14   C15   A    
C46   C69   S    
O7    Zn2   S    
C53   H19   S    
C33   N5    S    
C69   C70   S    
N8    H53   S    
C56   N1    A    
O11   Zn2   S    
C67   H29   S    
C36   C49   A    
C15   C16   A    
C24   H5    S    
C63   H12   S    
