data_mof_unit_45490.cif
_audit_creation_date              2012-12-11T17:15:00-0500
_audit_creation_method            fapswitch 2.2
_symmetry_space_group_name_H-M    P1
_symmetry_Int_Tables_number       1
_space_group_crystal_system       triclinic
_cell_length_a                    7.268044
_cell_length_b                    11.97036
_cell_length_c                    21.310891
_cell_angle_alpha                 90.003486
_cell_angle_beta                  90.593729
_cell_angle_gamma                 90.000469
_cell_volume                      1853.97147717

loop_
_atom_site_label
_atom_site_type_symbol
_atom_type_description
_atom_site_fract_x
_atom_site_fract_y
_atom_site_fract_z
_atom_type_partial_charge
O1    O     O_R   0.354460 0.152320 0.595720 -0.532854
O2    O     O_R   0.645540 0.847680 0.404280 -0.530870
O3    O     O_R   0.145540 0.652320 0.404280 -0.532845
O4    O     O_R   0.854460 0.347680 0.595720 -0.530875
O5    O     O_R   0.683670 0.140090 0.727290 -0.536371
O6    O     O_R   0.316330 0.859910 0.272710 -0.537629
O7    O     O_R   0.816330 0.640090 0.272710 -0.536323
O8    O     O_R   0.183670 0.359910 0.727290 -0.537610
O9    O     O_R   0.854010 0.349340 0.727750 -0.532243
O10   O     O_R   0.145990 0.650660 0.272250 -0.533544
O11   O     O_R   0.645990 0.849340 0.272250 -0.532273
O12   O     O_R   0.354010 0.150660 0.727750 -0.533558
C1    C     C_R   0.516544 0.110063 0.746079 0.683205
C2    C     C_R   0.483707 0.889893 0.253888 0.683532
C3    C     C_R   0.983455 0.610043 0.253927 0.683218
C4    C     C_R   0.016293 0.389904 0.746110 0.683546
O13   O     O_R   0.684170 0.139420 0.596190 -0.534270
O14   O     O_R   0.315830 0.860580 0.403810 -0.536412
O15   O     O_R   0.815830 0.639420 0.403810 -0.534280
O16   O     O_R   0.184170 0.360580 0.596190 -0.536409
C5    C     C_R   0.515190 0.113226 0.574595 0.712539
C6    C     C_R   0.484805 0.886769 0.425407 0.712463
C7    C     C_R   0.984810 0.613226 0.425405 0.712478
C8    C     C_R   0.015195 0.386770 0.574592 0.712407
O17   O     O_3   0.520730 0.319480 0.661730 -0.375110
O18   O     O_3   0.479270 0.680520 0.338270 -0.375469
O19   O     O_3   0.979270 0.819480 0.338270 -0.375209
O20   O     O_3   0.020730 0.180520 0.661730 -0.375564
V1    V     V_3+5 0.795560 0.238090 0.661730 1.412464
V2    V     V_3+5 0.204440 0.761910 0.338270 1.404393
V3    V     V_3+5 0.704440 0.738090 0.338270 1.412517
V4    V     V_3+5 0.295560 0.261910 0.661730 1.404462
C9    C     C_R   0.010556 0.471785 0.797404 -0.068695
C10   C     C_R   0.986684 0.528101 0.202648 -0.068738
C11   C     C_R   0.489432 0.971768 0.202598 -0.068625
C12   C     C_R   0.513286 0.028119 0.797349 -0.068672
C13   C     C_R   0.005158 0.660066 0.838647 -0.177501
C14   C     C_R   0.973449 0.340004 0.161273 -0.177778
C15   C     C_R   0.494751 0.160046 0.161370 -0.177521
C16   C     C_R   0.526197 0.840004 0.838689 -0.177790
C17   C     C_R   0.011341 0.588365 0.786356 0.054495
C18   C     C_R   0.977678 0.411644 0.213654 0.053979
C19   C     C_R   0.488703 0.088345 0.213659 0.054387
C20   C     C_R   0.522212 0.911667 0.786321 0.053906
C21   C     C_R   0.003074 0.429848 0.858594 -0.235737
C22   C     C_R   0.992189 0.569970 0.141429 -0.236056
C23   C     C_R   0.496774 0.929828 0.141402 -0.235749
C24   C     C_R   0.507718 0.069975 0.858572 -0.236081
C25   C     C_R   0.996279 0.501350 0.911214 0.077088
C26   C     C_R   0.986536 0.498601 0.088698 0.077130
C27   C     C_R   0.503464 0.001327 0.088784 0.077093
C28   C     C_R   0.513197 0.998592 0.911293 0.077133
C29   C     C_R   0.998635 0.617886 0.899983 0.100551
C30   C     C_R   0.978094 0.382157 0.099891 0.100821
C31   C     C_R   0.501163 0.117865 0.100027 0.100572
C32   C     C_R   0.521497 0.882145 0.900081 0.100818
C33   C     C_R   0.988639 0.461080 0.974432 0.058992
C34   C     C_R   0.989063 0.538932 0.025430 0.058969
C35   C     C_R   0.510982 0.961057 0.025557 0.058971
C36   C     C_R   0.510638 0.038914 0.974567 0.058976
C37   C     C_R   0.990514 0.654383 0.011407 -0.193597
C38   C     C_R   0.979367 0.345746 0.988381 -0.193353
C39   C     C_R   0.509225 0.154364 0.988604 -0.193598
C40   C     C_R   0.520040 0.845718 0.011590 -0.193345
C41   C     C_R   0.994701 0.692551 0.950064 -0.189628
C42   C     C_R   0.973929 0.307599 0.049725 -0.189332
C43   C     C_R   0.505060 0.192529 0.049951 -0.189674
C44   C     C_R   0.525464 0.807577 0.950240 -0.189302
H1    H     H_    0.995429 0.781965 0.941807 0.136986
H2    H     H_    0.966440 0.218290 0.057924 0.137225
H3    H     H_    0.504362 0.281943 0.058216 0.136998
H4    H     H_    0.532800 0.718265 0.942030 0.137213
H5    H     H_    0.000449 0.659425 0.136975 0.105984
H6    H     H_    0.004799 0.340266 0.863161 0.105802
H7    H     H_    0.499554 0.159432 0.863036 0.105971
H8    H     H_    0.495064 0.840246 0.136830 0.105793
H9    H     H_    0.005574 0.749718 0.832616 0.117015
H10   H     H_    0.965982 0.250463 0.167287 0.117059
H11   H     H_    0.494320 0.249698 0.167411 0.117007
H12   H     H_    0.533509 0.750460 0.832656 0.117055
H13   H     H_    0.986767 0.718556 0.046698 0.128246
H14   H     H_    0.974049 0.281737 0.952983 0.128111
H15   H     H_    0.512965 0.218543 0.953321 0.128249
H16   H     H_    0.525165 0.781696 0.046980 0.128118
C45   C     C_1   0.995280 0.533177 0.478008 -0.180944
C46   C     C_1   0.004742 0.466815 0.521988 -0.181273
C47   C     C_1   0.504720 0.033178 0.521993 -0.181089
C48   C     C_1   0.495258 0.966815 0.478011 -0.181429
C49   C     C_3   0.975012 0.366915 0.280816 -0.382214
C50   C     C_3   0.978478 0.238207 0.287425 -0.294050
C51   C     C_3   0.985586 0.200326 0.356001 -0.744180
H17   H     H_    0.064705 0.259672 0.385745 0.226800
H18   H     H_    0.845418 0.192893 0.375136 0.220345
H19   H     H_    0.050700 0.116571 0.359293 0.214245
H20   H     H_    0.856689 0.200286 0.264356 0.195411
H21   H     H_    0.098929 0.203242 0.263098 0.197304
H22   H     H_    0.096854 0.401392 0.306022 0.167500
H23   H     H_    0.851270 0.399932 0.304673 0.174111
C52   C     C_3   0.018766 0.633143 0.719275 -0.382706
C53   C     C_3   0.025174 0.761824 0.712842 -0.296922
C54   C     C_3   0.036328 0.799614 0.644428 -0.744769
H24   H     H_    0.125296 0.743296 0.616774 0.229716
H25   H     H_    0.898174 0.801188 0.622288 0.221433
H26   H     H_    0.092571 0.885763 0.642261 0.214525
H27   H     H_    0.902815 0.800553 0.734167 0.195776
H28   H     H_    0.144947 0.795943 0.738827 0.198111
H29   H     H_    0.142749 0.597723 0.696656 0.169683
H30   H     H_    0.897331 0.601133 0.692837 0.170970
C55   C     C_3   0.525052 0.866993 0.719145 -0.382603
C56   C     C_3   0.521721 0.738297 0.712470 -0.293370
C57   C     C_3   0.515208 0.700486 0.643856 -0.743769
H31   H     H_    0.439537 0.760967 0.613789 0.226267
H32   H     H_    0.655653 0.690869 0.625252 0.219778
H33   H     H_    0.446813 0.617732 0.640291 0.213913
H34   H     H_    0.643311 0.700362 0.735658 0.195168
H35   H     H_    0.401098 0.703307 0.736681 0.197166
H36   H     H_    0.403207 0.901443 0.693922 0.167827
H37   H     H_    0.648828 0.900065 0.695328 0.174425
C58   C     C_3   0.481478 0.133111 0.280753 -0.383118
C59   C     C_3   0.475051 0.261789 0.287220 -0.296155
C60   C     C_3   0.464445 0.299578 0.355665 -0.744221
H38   H     H_    0.378770 0.242009 0.383736 0.229100
H39   H     H_    0.603186 0.303385 0.377280 0.220832
H40   H     H_    0.404798 0.384859 0.357995 0.214186
H41   H     H_    0.597175 0.300568 0.265767 0.195459
H42   H     H_    0.355065 0.295859 0.261339 0.197994
H43   H     H_    0.357534 0.097694 0.303403 0.169946
H44   H     H_    0.602995 0.101111 0.307155 0.171371

loop_
_geom_bond_atom_site_label_1
_geom_bond_atom_site_label_2
_ccdc_geom_bond_type
C47   C48   T    
C5    C47   S    
O1    C5    A    
C54   H24   S    
O13   V1    S    
O3    C7    A    
C57   H31   S    
C10   C18   A    
O15   V3    S    
C50   C51   S    
C55   H36   S    
C33   C38   A    
C45   C46   T    
C52   H30   S    
C53   H27   S    
C26   C30   A    
C36   C39   A    
C40   C44   A    
O20   V1    S    
O9    C4    A    
C23   H8    S    
C14   C18   A    
O10   C3    A    
O4    C8    A    
O11   C2    A    
C59   H42   S    
C43   H3    S    
O6    C2    A    
C9    C21   A    
C56   C57   S    
C40   H16   S    
C60   H40   S    
C28   C36   A    
C15   C31   A    
O16   C8    A    
C16   C32   A    
O2    C6    A    
C17   C52   S    
C10   C22   A    
C6    C48   S    
C11   C19   A    
C3    C10   S    
O5    C1    A    
O4    V1    S    
O9    V1    S    
C13   C29   A    
C58   H44   S    
C34   C37   A    
O7    C3    A    
C38   H14   S    
C11   C23   A    
C35   C36   A    
C54   H25   S    
O12   V4    S    
O19   V2    S    
C24   H7    S    
C55   H37   S    
O5    V1    S    
C39   C43   A    
O7    V3    S    
C38   C42   A    
O8    V4    S    
C50   H20   S    
C1    C12   S    
C2    C11   S    
C59   H41   S    
C23   C27   A    
C14   H10   S    
C32   C44   A    
C13   H9    S    
O1    V4    S    
O13   C5    A    
C39   H15   S    
O2    V3    S    
C26   C34   A    
O3    V2    S    
O15   C7    A    
C4    C9    S    
C51   H18   S    
O10   V2    S    
C31   C43   A    
C52   C53   S    
C14   C30   A    
C21   C25   A    
C44   H4    S    
C16   H12   S    
C35   C40   A    
C57   H32   S    
C60   H38   S    
O14   V2    S    
O6    V2    S    
C16   C20   A    
C54   H26   S    
C12   C20   A    
C27   C35   A    
C19   C58   S    
C56   H35   S    
C51   H17   S    
C29   C41   A    
C59   C60   S    
O16   V4    S    
O14   C6    A    
O18   V3    S    
C25   C33   A    
C15   C19   A    
C58   C59   S    
C50   H21   S    
C30   C42   A    
C52   H29   S    
C22   C26   A    
C53   H28   S    
C49   H23   S    
C18   C49   S    
C9    C17   A    
C37   H13   S    
C55   C56   S    
C20   C55   S    
C51   H19   S    
C33   C34   A    
C42   H2    S    
O17   V4    S    
C41   H1    S    
C53   C54   S    
C12   C24   A    
C57   H33   S    
C27   C31   A    
C13   C17   A    
C60   H39   S    
C25   C29   A    
O11   V3    S    
C37   C41   A    
C24   C28   A    
O12   C1    A    
O8    C4    A    
C7    C45   S    
C49   H22   S    
C21   H6    S    
C49   C50   S    
C8    C46   S    
C56   H34   S    
C22   H5    S    
C28   C32   A    
C15   H11   S    
C58   H43   S    
