data_mof_unit_31474.cif
_audit_creation_date              2013-03-05T16:35:37-0500
_audit_creation_method            fapswitch 2.2
_symmetry_space_group_name_H-M    P1
_symmetry_Int_Tables_number       1
_space_group_crystal_system       triclinic
_cell_length_a                    7.778894
_cell_length_b                    9.097504
_cell_length_c                    17.256147
_cell_angle_alpha                 90.006781
_cell_angle_beta                  86.409343
_cell_angle_gamma                 89.991319
_cell_volume                      1218.79469188

loop_
_atom_site_label
_atom_site_type_symbol
_atom_site_description
_atom_site_fract_x
_atom_site_fract_y
_atom_site_fract_z
_atom_type_partial_charge
O1    O     O_R   0.357240 0.711600 0.500000 -0.575646
O2    O     O_R   0.642760 0.288400 0.500000 -0.575647
O3    O     O_R   0.642760 0.711600 0.500000 -0.577452
O4    O     O_R   0.357240 0.288400 0.500000 -0.577461
C1    C     C_R   0.499994 0.780001 0.499992 0.849333
C2    C     C_R   0.500006 0.219999 0.500008 0.849322
O5    O     O_R   0.340660 0.500000 0.613590 -0.587319
O6    O     O_R   0.659340 0.500000 0.386410 -0.587300
O7    O     O_R   0.626230 0.500000 0.613600 -0.588097
O8    O     O_R   0.373770 0.500000 0.386400 -0.588084
C3    C     C_R   0.478560 0.503703 0.650546 0.798201
C4    C     C_R   0.521440 0.496284 0.349456 0.798181
Cu1   Cu    Cu3+1 0.330920 0.500000 0.500000 1.000347
Cu2   Cu    Cu3+1 0.669080 0.500000 0.500000 1.000354
H1    H     H_    0.271879 0.393229 0.120471 0.147791
H2    H     H_    0.728318 0.605884 0.879583 0.147740
N1    N     N_1   0.923170 0.500000 0.500010 -0.052655
N2    N     N_1   0.076830 0.500000 0.499990 -0.052656
C5    C     C_R   0.469560 0.518909 0.735102 -0.071833
C6    C     C_R   0.530446 0.481008 0.264905 -0.071807
C7    C     C_R   0.618062 0.559159 0.772012 -0.197479
C8    C     C_R   0.382053 0.440325 0.228023 -0.197541
C9    C     C_R   0.612005 0.575975 0.851887 -0.236545
C10   C     C_R   0.388120 0.423444 0.148150 -0.236359
C11   C     C_R   0.458515 0.550276 0.896247 0.192940
C12   C     C_R   0.541513 0.449486 0.103772 0.192944
C13   C     C_R   0.306765 0.512759 0.860093 0.208995
C14   C     C_R   0.693164 0.487439 0.139900 0.208804
C15   C     C_R   0.313650 0.497918 0.779137 -0.196453
C16   C     C_R   0.686271 0.502354 0.220852 -0.196440
C17   C     C_2   0.462847 0.555412 0.980778 0.061446
C18   C     C_2   0.537144 0.444315 0.019246 0.061402
C19   C     C_1   0.499990 0.934640 0.499998 -0.175419
C20   C     C_1   0.500010 0.065360 0.500002 -0.175415
H3    H     H_    0.739261 0.578224 0.739156 0.168249
H4    H     H_    0.260936 0.420969 0.260899 0.168250
H5    H     H_    0.801404 0.532483 0.249365 0.156830
H6    H     H_    0.198431 0.468133 0.750606 0.156841
C21   C     C_3   0.139870 0.485367 0.906957 -0.902370
H7    H     H_    0.034862 0.453632 0.869516 0.225221
H8    H     H_    0.157081 0.395101 0.949083 0.233690
H9    H     H_    0.099481 0.586660 0.939000 0.250880
C22   C     C_3   0.859956 0.515190 0.093011 -0.902338
H10   H     H_    0.964894 0.547221 0.130433 0.225322
H11   H     H_    0.900658 0.413951 0.060986 0.250717
H12   H     H_    0.842421 0.605374 0.050867 0.233735
N3    N     N_3   0.608892 0.316844 0.979937 -0.584998
H13   H     H_    0.711734 0.349405 0.941960 0.223804
H14   H     H_    0.514223 0.268672 0.947769 0.228592
N4    N     N_3   0.390938 0.682813 0.020106 -0.585018
H15   H     H_    0.485560 0.731077 0.052269 0.228610
H16   H     H_    0.288157 0.650125 0.058092 0.223792

loop_
_geom_bond_atom_site_label_1
_geom_bond_atom_site_label_2
_geom_bond_distance
_ccdc_geom_bond_type
C15   H6    1.083713 S    
C11   C17   1.461920 S    
N4    H16   1.044901 S    
O7    Cu2   1.967746 S    
C12   C18   1.461874 S    
C5    C7    1.402292 A    
C7    H3    1.083289 S    
C13   C15   1.401173 A    
C8    H4    1.083347 S    
C14   C22   1.506805 S    
C12   C14   1.411275 A    
C17   C18   1.358032 D    
O6    C4    1.282251 A    
C3    C5    1.462950 S    
C4    C6    1.462910 S    
C14   C16   1.401157 A    
C19   C20   1.189221 T    
N3    H14   1.045815 S    
C6    C16   1.403421 A    
Cu1   Cu2   2.630511 S    
O5    C3    1.282266 A    
C22   H11   1.109863 S    
Cu2   N1    1.976549 S    
O7    C3    1.278818 A    
O2    C2    1.273010 A    
O3    Cu2   1.935858 S    
O8    C4    1.278811 A    
Cu1   N2    1.976550 S    
C22   H10   1.110995 S    
O1    C1    1.273010 A    
H1    C10   1.084180 S    
C22   H12   1.110470 S    
C10   C12   1.397148 A    
N1    N2    1.195284 T    
H2    C9    1.084108 S    
C21   H7    1.110923 S    
C9    C11   1.397084 A    
C7    C9    1.384661 A    
O2    Cu2   1.935921 S    
C18   N3    1.438278 S    
C8    C10   1.384674 A    
C11   C13   1.411200 A    
C17   N4    1.438359 S    
C5    C15   1.403371 A    
N3    H13   1.044825 S    
O5    Cu1   1.966325 S    
O1    Cu1   1.935920 S    
C21   H8    1.110408 S    
O4    C2    1.272946 A    
C13   C21   1.506719 S    
O4    Cu1   1.935859 S    
C21   H9    1.109803 S    
O6    Cu2   1.966325 S    
N4    H15   1.045855 S    
C2    C20   1.406833 S    
C16   H5    1.083776 S    
C6    C8    1.402370 A    
O3    C1    1.272946 A    
O8    Cu1   1.967748 S    
C1    C19   1.406833 S    
