data_mof_unit_68450.cif
_audit_creation_date              2012-12-10T18:42:29-0500
_audit_creation_method            fapswitch 2.2
_symmetry_space_group_name_H-M    P1
_symmetry_Int_Tables_number       1
_space_group_crystal_system       triclinic
_cell_length_a                    8.874698
_cell_length_b                    10.953504
_cell_length_c                    9.921501
_cell_angle_alpha                 92.752461
_cell_angle_beta                  99.198736
_cell_angle_gamma                 92.20348
_cell_volume                      949.916980349

loop_
_atom_site_label
_atom_site_type_symbol
_atom_type_description
_atom_site_fract_x
_atom_site_fract_y
_atom_site_fract_z
_atom_type_partial_charge
C1    C     C_R   0.499249 0.259814 0.496289 0.948040
C2    C     C_R   0.500745 0.740185 0.503710 0.948039
C3    C     C_R   0.201528 0.497748 0.464182 0.930959
C4    C     C_R   0.798472 0.502252 0.535819 0.930963
C5    C     C_2   0.037387 0.479670 0.448593 -0.208735
C6    C     C_2   0.962617 0.520324 0.551410 -0.208758
C7    C     C_R   0.413156 0.052032 0.387839 -0.166362
C8    C     C_R   0.586812 0.947968 0.612166 -0.166353
C9    C     C_R   0.403219 0.925556 0.400095 0.333758
C10   C     C_R   0.596759 0.074442 0.599906 0.333762
C11   C     C_R   0.494279 0.872896 0.508816 -0.213851
C12   C     C_R   0.505702 0.127103 0.491185 -0.213873
C13   C     C_R   0.604388 0.570930 0.090858 0.313520
C14   C     C_R   0.395613 0.429068 0.909142 0.313499
C15   C     C_R   0.607215 0.567006 0.947966 0.284628
C16   C     C_R   0.392786 0.432992 0.052033 0.284610
N1    N     N_R   0.499960 0.499970 0.857200 -0.167879
N2    N     N_R   0.500040 0.500030 0.142800 -0.167875
O1    O     O_R   0.499990 0.316750 0.614620 -0.527798
O2    O     O_R   0.500010 0.683250 0.385380 -0.527815
O3    O     O_R   0.499990 0.316780 0.385290 -0.610795
O4    O     O_R   0.500010 0.683220 0.614710 -0.610799
O5    O     O_R   0.271750 0.499990 0.587840 -0.582647
O6    O     O_R   0.728250 0.500010 0.412160 -0.582627
O7    O     O_R   0.271750 0.500010 0.358510 -0.562113
O8    O     O_R   0.728250 0.499990 0.641490 -0.562099
Zn1   Zn    Zn3+2 0.500000 0.499980 0.653120 1.074634
Zn2   Zn    Zn3+2 0.500000 0.500020 0.346880 1.074630
C17   C     C_R   0.963623 0.392879 0.335861 0.136963
C18   C     C_R   0.934555 0.429954 0.201271 0.049649
C19   C     C_R   0.848109 0.353338 0.098447 -0.088533
C20   C     C_R   0.788523 0.240571 0.130083 -0.143439
C21   C     C_R   0.822316 0.201130 0.263246 -0.172663
C22   C     C_R   0.908843 0.277168 0.365982 -0.145734
H1    H     H_    0.978172 0.518281 0.176285 0.191128
H2    H     H_    0.827162 0.381271 0.994284 0.183902
H3    H     H_    0.722567 0.181492 0.049644 0.164239
H4    H     H_    0.783788 0.111127 0.287369 0.135776
H5    H     H_    0.931022 0.247000 0.469401 0.165170
C23   C     C_R   0.036379 0.607115 0.664143 0.136996
C24   C     C_R   0.091100 0.722848 0.634026 -0.145684
C25   C     C_R   0.177555 0.798921 0.736774 -0.172768
C26   C     C_R   0.211364 0.759482 0.869936 -0.143426
C27   C     C_R   0.151870 0.646675 0.901560 -0.088489
C28   C     C_R   0.065471 0.570035 0.798731 0.049598
H6    H     H_    0.068903 0.753018 0.530608 0.165173
H7    H     H_    0.216013 0.888953 0.712666 0.135784
H8    H     H_    0.277261 0.818592 0.950381 0.164238
H9    H     H_    0.172831 0.618740 0.005723 0.183886
H10   H     H_    0.021890 0.481694 0.823714 0.191134
C29   C     C_R   0.340585 0.097245 0.256803 0.223176
C30   C     C_R   0.181223 0.099801 0.226311 -0.037816
C31   C     C_R   0.110227 0.100881 0.090193 -0.071174
C32   C     C_R   0.196437 0.100219 0.984186 -0.028069
C33   C     C_R   0.355200 0.102821 0.014506 -0.135393
C34   C     C_R   0.426420 0.099875 0.150043 -0.091368
H11   H     H_    0.112577 0.091602 0.306535 0.128255
H12   H     H_    0.988365 0.100581 0.065753 0.144358
H13   H     H_    0.140010 0.099602 0.879035 0.176500
H14   H     H_    0.422788 0.105468 0.933155 0.168007
H15   H     H_    0.547300 0.089815 0.171201 0.106446
C35   C     C_R   0.659348 0.902757 0.743214 0.223181
C36   C     C_R   0.573475 0.900117 0.849947 -0.091401
C37   C     C_R   0.644655 0.897160 0.985495 -0.135464
C38   C     C_R   0.803416 0.899773 0.015853 -0.028071
C39   C     C_R   0.889660 0.899112 0.909870 -0.071131
C40   C     C_R   0.818707 0.900201 0.773742 -0.037809
H16   H     H_    0.452595 0.910178 0.828764 0.106487
H17   H     H_    0.577038 0.894503 0.066824 0.168008
H18   H     H_    0.859816 0.900384 0.121011 0.176520
H19   H     H_    0.011520 0.899399 0.934335 0.144369
H20   H     H_    0.887382 0.908404 0.693540 0.128262
Cl1   Cl    Cl    0.269435 0.833056 0.280094 -0.676651
Cl2   Cl    Cl    0.730548 0.166938 0.719908 -0.676646
Cl3   Cl    Cl    0.732414 0.670946 0.201763 -0.607647
Cl4   Cl    Cl    0.267601 0.329040 0.798237 -0.607647
Cl5   Cl    Cl    0.761188 0.634109 0.889038 -0.620414
Cl6   Cl    Cl    0.238826 0.365873 0.110964 -0.620427

loop_
_geom_bond_atom_site_label_1
_geom_bond_atom_site_label_2
_ccdc_geom_bond_type
C27   H9    S    
C33   C34   A    
C1    O3    A    
C24   C25   A    
C3    O5    A    
C31   C32   A    
C27   C28   A    
O7    Zn2   S    
O8    Zn1   S    
C17   C18   A    
C35   C40   A    
C5    C6    D    
C40   H20   S    
C18   C19   A    
C4    O6    A    
C38   H18   S    
C7    C9    A    
C29   C34   A    
C36   H16   S    
C19   C20   A    
C2    O4    A    
C24   H6    S    
O5    Zn1   S    
O1    Zn1   S    
C26   H8    S    
C39   C40   A    
C33   H14   S    
C14   N1    A    
C7    C12   A    
C1    C12   S    
C9    Cl1   S    
C2    C11   S    
C5    C17   S    
C32   H13   S    
C23   C28   A    
C1    O1    A    
C2    O2    A    
C29   C30   A    
N1    Zn1   S    
C13   Cl3   S    
C3    O7    A    
C6    C23   S    
N2    Zn2   S    
C4    C6    S    
O2    Zn2   S    
C20   H3    S    
C17   C22   A    
C22   H5    S    
C14   Cl4   S    
C26   C27   A    
C35   C36   A    
C13   N2    A    
C39   H19   S    
C21   C22   A    
C37   H17   S    
C9    C11   A    
C10   C12   A    
C18   H1    S    
C8    C10   A    
C23   C24   A    
O3    Zn2   S    
O4    Zn1   S    
C13   C15   A    
C14   C16   A    
C25   C26   A    
C30   C31   A    
C15   N1    A    
C32   C33   A    
C19   H2    S    
O6    Zn2   S    
C3    C5    S    
C4    O8    A    
C31   H12   S    
C21   H4    S    
C20   C21   A    
C7    C29   S    
C37   C38   A    
C10   Cl2   S    
C15   Cl5   S    
C28   H10   S    
C8    C11   A    
C16   Cl6   S    
C25   H7    S    
C30   H11   S    
C36   C37   A    
C16   N2    A    
C38   C39   A    
C34   H15   S    
C8    C35   S    
