data_mof_unit_9439.cif
_audit_creation_date              2013-03-05T16:48:48-0500
_audit_creation_method            fapswitch 2.2
_symmetry_space_group_name_H-M    P1
_symmetry_Int_Tables_number       1
_space_group_crystal_system       triclinic
_cell_length_a                    10.9263
_cell_length_b                    10.9302
_cell_length_c                    13.137684
_cell_angle_alpha                 92.218241
_cell_angle_beta                  91.364692
_cell_angle_gamma                 89.645467
_cell_volume                      1567.34730507

loop_
_atom_site_label
_atom_site_type_symbol
_atom_site_description
_atom_site_fract_x
_atom_site_fract_y
_atom_site_fract_z
_atom_type_partial_charge
O1    O     O_R   0.499980 0.319630 0.578260 -0.531342
O2    O     O_R   0.500020 0.680370 0.421740 -0.531417
O3    O     O_R   0.500000 0.319650 0.421740 -0.600642
O4    O     O_R   0.500000 0.680350 0.578260 -0.600665
C1    C     C_R   0.489781 0.259820 0.497867 0.892279
C2    C     C_R   0.510246 0.740173 0.502136 0.892481
O5    O     O_R   0.319630 0.500000 0.578260 -0.568602
O6    O     O_R   0.680370 0.500000 0.421740 -0.568540
O7    O     O_R   0.319650 0.500020 0.421740 -0.587873
O8    O     O_R   0.680350 0.499980 0.578260 -0.587877
C3    C     C_R   0.259509 0.504923 0.498868 0.832378
C4    C     C_R   0.740492 0.495084 0.501132 0.832464
Cu1   Cu    Cu3+1 0.499990 0.499990 0.592680 1.028975
Cu2   Cu    Cu3+1 0.500010 0.500010 0.407320 1.028946
H1    H     H_    0.226830 0.633006 0.042813 0.203635
H2    H     H_    0.773269 0.366995 0.957212 0.203675
C5    C     C_R   0.211888 0.689017 0.200252 -0.111914
C6    C     C_R   0.788151 0.311000 0.799763 -0.111756
H3    H     H_    0.256882 0.775699 0.191511 0.221545
H4    H     H_    0.743160 0.224317 0.808508 0.221671
C7    C     C_R   0.169418 0.659636 0.295484 -0.103406
C8    C     C_R   0.830590 0.340389 0.704524 -0.103446
H5    H     H_    0.181666 0.724216 0.359518 0.130532
H6    H     H_    0.818325 0.275813 0.640489 0.130551
C9    C     C_R   0.109908 0.548091 0.307660 0.060865
C10   C     C_R   0.890100 0.451933 0.692342 0.060812
C11   C     C_R   0.092303 0.466797 0.223176 -0.200425
C12   C     C_R   0.907733 0.533219 0.776828 -0.200438
H7    H     H_    0.044831 0.381443 0.232746 0.173989
H8    H     H_    0.955206 0.618571 0.767255 0.174017
C13   C     C_R   0.134810 0.495794 0.126864 0.389734
C14   C     C_R   0.865258 0.504213 0.873148 0.389729
C15   C     C_R   0.194712 0.607834 0.116314 -0.132471
C16   C     C_R   0.805357 0.392174 0.883704 -0.132505
C17   C     C_R   0.930606 0.513940 0.410896 -0.187866
C18   C     C_R   0.069395 0.486078 0.589103 -0.187971
H9    H     H_    0.876778 0.527182 0.341667 0.197801
H10   H     H_    0.123224 0.472835 0.658332 0.197771
C19   C     C_R   0.873047 0.494511 0.502834 -0.110979
C20   C     C_R   0.126954 0.505504 0.497165 -0.110982
C21   C     C_R   0.943094 0.479406 0.593196 0.016591
C22   C     C_R   0.056907 0.520614 0.406803 0.016564
C23   C     C_R   0.443909 0.152537 0.142762 0.385293
C24   C     C_R   0.556199 0.847432 0.857254 0.385207
C25   C     C_R   0.432363 0.124043 0.244815 -0.211788
C26   C     C_R   0.567734 0.875899 0.755192 -0.211757
H11   H     H_    0.342608 0.105627 0.273875 0.171533
H12   H     H_    0.657489 0.894248 0.726109 0.171568
C27   C     C_R   0.536798 0.111677 0.307791 0.124319
C28   C     C_R   0.463293 0.888321 0.692236 0.124194
C29   C     C_R   0.652923 0.133446 0.269328 -0.144383
C30   C     C_R   0.347170 0.866648 0.730735 -0.144447
H13   H     H_    0.734239 0.122720 0.316986 0.162081
H14   H     H_    0.265849 0.877426 0.683097 0.162168
C31   C     C_R   0.664561 0.162974 0.167501 -0.200522
C32   C     C_R   0.335543 0.837146 0.832570 -0.200497
H15   H     H_    0.754715 0.176412 0.137468 0.205395
H16   H     H_    0.245392 0.823779 0.862626 0.205447
C33   C     C_R   0.560625 0.169865 0.103559 0.387467
C34   C     C_R   0.439488 0.830189 0.896488 0.387475
C35   C     C_R   0.542966 0.931882 0.414953 0.287608
C36   C     C_R   0.457170 0.068104 0.585076 0.287655
C37   C     C_R   0.513674 0.873365 0.504833 -0.267632
C38   C     C_R   0.486405 0.126622 0.495183 -0.267710
C39   C     C_R   0.476048 0.942336 0.591619 -0.121700
C40   C     C_R   0.524043 0.057649 0.408399 -0.121723
N1    N     N_1   0.500030 0.500030 0.268070 -0.130924
N2    N     N_1   0.499970 0.499970 0.731930 -0.130899
C41   C     C_1   0.500059 0.499965 0.173608 0.220899
C42   C     C_1   0.499941 0.500036 0.826392 0.221034
C43   C     C_1   0.500044 0.499946 0.050684 0.068554
C44   C     C_1   0.499956 0.500056 0.949316 0.068580
N3    N     N_R   0.596495 0.864092 0.331019 0.145083
O9    O     O_R   0.537453 0.851479 0.244174 -0.276372
O10   O     O_R   0.701820 0.809685 0.343215 -0.341704
N4    N     N_R   0.403842 0.135907 0.669094 0.145147
O11   O     O_R   0.463292 0.148862 0.755742 -0.276660
O12   O     O_R   0.298302 0.190013 0.657149 -0.341503
N5    N     N_R   0.115429 0.413091 0.040106 0.154246
O13   O     O_R   0.163323 0.434991 0.952919 -0.336266
O14   O     O_R   0.048037 0.316121 0.047013 -0.309692
N6    N     N_R   0.884674 0.586904 0.959909 0.154279
O15   O     O_R   0.836793 0.565007 0.047101 -0.336245
O16   O     O_R   0.952085 0.683861 0.952997 -0.309692
Cl1   Cl    Cl    0.578972 0.193275 0.973740 -0.551707
Cl2   Cl    Cl    0.421163 0.806798 0.026317 -0.551750
Cl3   Cl    Cl    0.311549 0.159308 0.064442 -0.432781
Cl4   Cl    Cl    0.688571 0.840590 0.935544 -0.432769

loop_
_geom_bond_atom_site_label_1
_geom_bond_atom_site_label_2
_geom_bond_distance
_ccdc_geom_bond_type
C37   C39   1.410413 A    
C31   C33   1.399787 A    
C11   H7    1.083234 S    
N3    O9    1.300299 A    
C19   C21   1.411624 A    
O5    C3    1.222124 A    
O1    C1    1.223575 A    
C17   H9    1.085226 S    
N4    O12   1.301637 A    
C41   C43   1.614924 S    
O4    Cu1   1.987739 S    
C35   C37   1.408840 A    
C17   C22   1.384819 A    
C18   C20   1.399001 A    
C36   C38   1.408848 A    
H2    C16   1.081292 S    
C35   C40   1.394509 A    
C24   C26   1.396937 A    
C27   C29   1.401937 A    
C28   C30   1.401907 A    
Cu2   N1    1.829437 S    
C13   C15   1.405229 A    
C6    H4    1.081396 S    
C23   C33   1.403307 A    
O7    C3    1.220045 A    
C20   C22   1.411623 A    
Cu1   Cu2   2.435215 S    
N3    O10   1.301473 A    
C36   N4    1.438438 S    
C18   C21   1.384810 A    
O2    C2    1.223593 A    
C5    C15   1.398255 A    
C30   H14   1.083046 S    
C25   H11   1.083631 S    
C7    H5    1.083384 S    
C26   H12   1.083601 S    
C27   C40   1.478314 S    
C11   C13   1.406435 A    
C12   C14   1.406430 A    
N4    O11   1.300487 A    
O4    C2    1.223575 A    
N5    O14   1.301592 A    
C34   Cl2   1.750818 S    
C35   N3    1.438456 S    
C5    C7    1.394415 A    
C32   C34   1.399745 A    
C1    C38   1.455618 S    
C29   H13   1.083079 S    
C14   C16   1.405225 A    
C2    C37   1.455569 S    
C17   C19   1.399013 A    
O7    Cu2   1.984237 S    
C33   Cl1   1.750768 S    
C23   C25   1.396919 A    
C25   C27   1.402380 A    
O6    C4    1.222122 A    
C6    C16   1.398261 A    
O3    Cu2   1.987739 S    
O8    C4    1.220049 A    
N6    O16   1.301595 A    
C31   H15   1.082758 S    
C8    H6    1.083384 S    
O1    Cu1   1.973142 S    
C7    C9    1.401679 A    
O6    Cu2   1.975255 S    
C36   C39   1.394429 A    
C6    C8    1.394412 A    
O3    C1    1.223620 A    
O8    Cu1   1.984237 S    
C9    C22   1.480026 S    
C13   N5    1.439526 S    
C9    C11   1.405015 A    
C14   N6    1.439523 S    
C26   C28   1.402346 A    
C10   C12   1.405017 A    
C23   Cl3   1.757667 S    
C4    C19   1.447951 S    
C12   H8    1.083234 S    
C43   C44   1.331760 T    
C24   C34   1.403276 A    
C18   H10   1.085227 S    
C5    H3    1.081395 S    
C32   H16   1.082722 S    
C29   C31   1.397144 A    
C3    C20   1.447946 S    
O2    Cu2   1.973139 S    
C28   C39   1.478366 S    
N5    O13   1.301724 A    
O5    Cu1   1.975257 S    
N2    C42   1.240994 T    
N6    O15   1.301727 A    
C8    C10   1.401677 A    
C42   C44   1.614924 S    
N1    C41   1.240995 T    
C24   Cl4   1.757603 S    
H1    C15   1.081296 S    
C30   C32   1.397153 A    
C10   C21   1.480023 S    
C38   C40   1.410443 A    
Cu1   N2    1.829436 S    
