data_mof_unit_62739.cif
_audit_creation_date              2013-03-05T16:23:10-0500
_audit_creation_method            fapswitch 2.2
_symmetry_space_group_name_H-M    P1
_symmetry_Int_Tables_number       1
_space_group_crystal_system       triclinic
_cell_length_a                    18.692529
_cell_length_b                    18.671575
_cell_length_c                    18.690052
_cell_angle_alpha                 109.227443
_cell_angle_beta                  109.330154
_cell_angle_gamma                 109.333697
_cell_volume                      5053.65726082

loop_
_atom_site_label
_atom_site_type_symbol
_atom_site_description
_atom_site_fract_x
_atom_site_fract_y
_atom_site_fract_z
_atom_type_partial_charge
O1    O     O_R   0.408690 0.356690 0.448570 -0.614888
O2    O     O_R   0.408080 0.460090 0.551420 -0.622561
C1    C     C_R   0.380082 0.380329 0.500301 0.881199
O3    O     O_R   0.592400 0.448300 0.540680 -0.584342
O4    O     O_R   0.591790 0.551700 0.643540 -0.655432
C2    C     C_R   0.617516 0.496831 0.620636 0.875666
Zn1   Zn    Zn3+2 0.500410 0.430960 0.431320 1.000629
Zn2   Zn    Zn3+2 0.499590 0.569040 0.568680 1.004409
O5    O     O_R   0.591920 0.539910 0.448580 -0.635539
O6    O     O_R   0.591310 0.643310 0.551430 -0.602739
O7    O     O_R   0.408210 0.448300 0.356460 -0.614889
O8    O     O_R   0.407600 0.551700 0.459320 -0.598259
C3    C     C_R   0.619288 0.620121 0.499131 0.861051
C4    C     C_R   0.377501 0.498688 0.379208 0.920780
C5    C     C_3   0.705676 0.421176 0.646466 0.237634
C6    C     C_3   0.769208 0.416889 0.722312 -0.227224
H1    H     H_    0.730583 0.360522 0.727324 0.157158
H2    H     H_    0.893248 0.585782 0.780277 0.200977
C7    C     C_3   0.770565 0.588855 0.741454 -0.113188
C8    C     C_3   0.655655 0.482014 0.755327 -0.203870
C9    C     C_3   0.685517 0.496996 0.688721 0.056065
H3    H     H_    0.604013 0.413189 0.722332 0.136829
C10   C     C_3   0.808607 0.500787 0.810823 0.013602
C11   C     C_3   0.845406 0.584482 0.803288 -0.407145
C12   C     C_3   0.733598 0.495025 0.832896 -0.067203
H4    H     H_    0.708955 0.435815 0.839692 0.159711
H5    H     H_    0.760530 0.638852 0.782400 0.165328
H6    H     H_    0.882276 0.644146 0.868306 0.180180
C13   C     C_R   0.230499 0.264804 0.428917 -0.001406
C14   C     C_R   0.313628 0.316583 0.501174 -0.058023
C15   C     C_R   0.329420 0.313526 0.578452 -0.178739
H7    H     H_    0.392387 0.357977 0.637044 0.134688
C16   C     C_R   0.265189 0.248958 0.578364 -0.151314
H8    H     H_    0.278931 0.244445 0.637274 0.161795
C17   C     C_R   0.185052 0.188960 0.501319 -0.032206
C18   C     C_R   0.166843 0.200980 0.428772 -0.073980
C19   C     C_3   0.130577 0.138893 0.334031 0.251989
C20   C     C_3   0.201462 0.210888 0.334604 0.079410
H9    H     H_    0.251587 0.196374 0.324579 0.151638
C21   C     C_R   0.289733 0.458002 0.227814 0.168825
C22   C     C_R   0.305092 0.493328 0.313151 -0.145901
C23   C     C_R   0.248206 0.520758 0.332557 0.048714
C24   C     C_R   0.185678 0.523957 0.267669 0.277864
C25   C     C_R   0.181160 0.499332 0.185813 -0.230259
C26   C     C_R   0.228566 0.460763 0.165062 0.071696
C27   C     C_3   0.283738 0.479260 0.124146 -0.458869
C28   C     C_3   0.351586 0.476124 0.193616 -0.467884
H10   H     H_    0.254533 0.424735 0.057383 0.215085
H11   H     H_    0.305047 0.545085 0.130166 0.224896
H12   H     H_    0.361528 0.419775 0.166911 0.222805
H13   H     H_    0.412399 0.540103 0.240058 0.195522
C29   C     C_R   0.762084 0.684527 0.510784 0.052676
C30   C     C_R   0.686114 0.687145 0.501182 -0.129321
C31   C     C_R   0.679718 0.760833 0.504554 -0.150112
H14   H     H_    0.623157 0.766160 0.502483 0.179755
C32   C     C_R   0.744142 0.825309 0.504783 -0.125422
H15   H     H_    0.737001 0.879900 0.502576 0.208838
C33   C     C_R   0.815855 0.817000 0.504748 -0.090813
C34   C     C_R   0.827067 0.749645 0.513561 0.126901
C35   C     C_3   0.846356 0.687451 0.459912 -0.486180
C36   C     C_3   0.773621 0.615161 0.455398 -0.091375
H16   H     H_    0.830837 0.684096 0.395820 0.167357
H17   H     H_    0.912704 0.698296 0.497585 0.228405
H18   H     H_    0.716426 0.568892 0.388763 0.184413
O9    O     O_R   0.946090 0.356720 0.906270 -0.643488
O10   O     O_R   0.049530 0.460080 0.906210 -0.571622
C37   C     C_R   0.997578 0.380043 0.876704 0.884208
O11   O     O_R   0.853510 0.448360 0.905260 -0.643871
O12   O     O_R   0.956950 0.551730 0.905200 -0.618268
C38   C     C_R   0.876895 0.502437 0.879141 0.891627
Zn3   Zn    Zn3+2 0.928260 0.431020 0.997380 1.009636
Zn4   Zn    Zn3+2 0.066400 0.569060 0.997290 1.049241
O13   O     O_R   0.945130 0.540000 0.088470 -0.599727
O14   O     O_R   0.048570 0.643360 0.088400 -0.624089
O15   O     O_R   0.037700 0.448350 0.089480 -0.582226
O16   O     O_R   0.141150 0.551720 0.089410 -0.626190
C39   C     C_R   0.997711 0.620067 0.117752 0.936291
C40   C     C_R   0.117544 0.500223 0.118483 0.936204
O17   O     O_R   0.051500 0.091600 0.643170 -0.607295
O18   O     O_R   0.947510 0.091650 0.539220 -0.584770
C41   C     C_R   0.997143 0.117369 0.619084 0.928162
O19   O     O_R   0.143610 0.091630 0.552030 -0.598341
O20   O     O_R   0.039620 0.091690 0.448080 -0.646173
C42   C     C_R   0.119956 0.119727 0.499258 0.910665
Zn5   Zn    Zn3+2 0.069430 0.000010 0.569450 1.075999
Zn6   Zn    Zn3+2 0.930570 0.000090 0.430650 1.019386
O21   O     O_R   0.052490 0.908450 0.460880 -0.589468
O22   O     O_R   0.948500 0.908500 0.356930 -0.616625
O23   O     O_R   0.960380 0.908410 0.552020 -0.592990
O24   O     O_R   0.856390 0.908470 0.448070 -0.625641
C43   C     C_R   0.002441 0.881760 0.380546 0.934333
C44   C     C_R   0.880247 0.880001 0.500352 0.875555
C45   C     C_R   0.973487 0.232322 0.804092 -0.082712
C46   C     C_R   0.002080 0.315497 0.812820 -0.206836
C47   C     C_R   0.042260 0.335997 0.764025 0.327239
C48   C     C_R   0.040988 0.269420 0.700559 -0.260041
H19   H     H_    0.068952 0.283420 0.661113 0.171641
C49   C     C_R   0.999247 0.184241 0.684555 -0.074627
C50   C     C_R   0.969933 0.167325 0.739313 -0.018026
C51   C     C_3   0.888186 0.097635 0.724712 0.480292
C52   C     C_3   0.894081 0.170561 0.799614 -0.173062
H20   H     H_    0.838889 0.183903 0.780244 0.196420
C53   C     C_R   0.925555 0.692292 0.172361 0.105730
C54   C     C_R   0.000488 0.686896 0.185038 -0.143402
C55   C     C_R   0.081209 0.754217 0.257448 -0.188545
H21   H     H_    0.140393 0.752843 0.263510 0.212034
C56   C     C_R   0.085464 0.821521 0.323478 0.317621
C57   C     C_R   0.006500 0.820478 0.313655 -0.207297
C58   C     C_R   0.928762 0.758781 0.235644 0.144172
C59   C     C_3   0.842584 0.700287 0.221957 -0.491277
C60   C     C_3   0.839678 0.626595 0.152847 -0.446514
H22   H     H_    0.847907 0.692494 0.279552 0.189720
H23   H     H_    0.792178 0.717436 0.195016 0.218506
H24   H     H_    0.843975 0.576316 0.170681 0.230041
H25   H     H_    0.786944 0.600642 0.086244 0.202018
N1    N     N_3   0.744001 0.439625 0.592493 -0.400519
H26   H     H_    0.743965 0.384624 0.553379 0.211018
H27   H     H_    0.809071 0.488795 0.630499 0.213446
N2    N     N_3   0.765953 0.570368 0.916994 -0.457838
H28   H     H_    0.778315 0.626738 0.911902 0.206402
H29   H     H_    0.717821 0.558133 0.935123 0.208109
N3    N     N_R   0.141647 0.061861 0.319246 0.223071
O25   O     O_R   0.075766 0.983765 0.262740 -0.368899
O26   O     O_R   0.218577 0.071095 0.359167 -0.346825
N4    N     N_3   0.040737 0.116393 0.278676 -0.368589
H30   H     H_    0.034156 0.172168 0.297415 0.208907
H31   H     H_    0.998989 0.074049 0.290104 0.216572
N5    N     N_R   0.167457 0.245903 0.280322 0.216909
O27   O     O_R   0.173946 0.322297 0.314869 -0.426556
O28   O     O_R   0.134757 0.202139 0.196417 -0.337973
N6    N     N_3   0.255617 0.545933 0.417486 -0.383608
H32   H     H_    0.239502 0.490593 0.424836 0.230775
H33   H     H_    0.211034 0.565985 0.423431 0.244239
N7    N     N_3   0.624350 0.335713 0.588523 -0.427899
H34   H     H_    0.597817 0.313119 0.622861 0.156087
H35   H     H_    0.638295 0.288484 0.557708 0.212347
N8    N     N_R   0.131937 0.558223 0.286542 0.180472
O29   O     O_R   0.050306 0.505865 0.257332 -0.360870
O30   O     O_R   0.165472 0.641630 0.335627 -0.383755
N9    N     N_3   0.804981 0.571391 0.499790 -0.416502
H36   H     H_    0.854118 0.617113 0.564299 0.215674
H37   H     H_    0.752933 0.530227 0.502028 0.224896
N10   N     N_R   0.080253 0.421537 0.773924 0.226694
O31   O     O_R   0.031681 0.456331 0.756138 -0.400026
O32   O     O_R   0.157224 0.455676 0.781603 -0.375906
N11   N     N_R   0.808972 0.059753 0.641788 0.164912
O33   O     O_R   0.733749 0.009684 0.630202 -0.351061
O34   O     O_R   0.811028 0.081258 0.582702 -0.401834
N12   N     N_R   0.900295 0.030359 0.742570 0.196572
O35   O     O_R   0.964389 0.017431 0.741824 -0.393007
O36   O     O_R   0.842426 0.977848 0.751777 -0.317947
N13   N     N_3   0.914632 0.162859 0.878668 -0.368433
H38   H     H_    0.974941 0.165067 0.902765 0.233253
H39   H     H_    0.921037 0.217161 0.926437 0.221446
N14   N     N_R   0.168941 0.887701 0.399189 0.233154
O37   O     O_R   0.187185 0.968570 0.436449 -0.317499
O38   O     O_R   0.230904 0.869270 0.424739 -0.330835
N15   N     N_3   0.834735 0.399756 0.704665 -0.430408
H40   H     H_    0.888919 0.457880 0.725624 0.241129
H41   H     H_    0.856496 0.370731 0.739781 0.204515
N16   N     N_3   0.794972 0.619110 0.685414 -0.474718
H42   H     H_    0.854867 0.677110 0.724888 0.209164
H43   H     H_    0.750481 0.636346 0.655767 0.197612
N17   N     N_3   0.616461 0.533476 0.786185 -0.449240
H44   H     H_    0.649126 0.597854 0.800299 0.215919
H45   H     H_    0.551138 0.504523 0.739253 0.208429

loop_
_geom_bond_atom_site_label_1
_geom_bond_atom_site_label_2
_geom_bond_distance
_ccdc_geom_bond_type
C21   C28   1.494135 S    
C47   N10   1.434182 S    
C45   C46   1.396394 A    
O21   C43   1.283153 A    
N14   O38   1.301532 A    
C22   C23   1.420601 A    
C47   C48   1.394071 A    
Zn4   O16   2.023753 S    
N5    O27   1.301227 A    
N16   H42   1.046278 S    
C5    N7    1.481830 S    
C30   C31   1.402880 A    
C57   C58   1.395409 A    
Zn1   O7    2.025872 S    
C55   C56   1.398539 A    
C13   C18   1.375800 A    
C52   H20   1.113455 S    
C35   H17   1.112007 S    
H2    C11   1.110175 S    
O16   C40   1.279225 A    
C1    C14   1.416765 S    
C35   H16   1.109727 S    
N17   H44   1.042046 S    
C7    C9    1.576181 S    
C19   C20   1.537703 S    
N9    H37   1.045005 S    
C29   C36   1.498397 S    
N12   O36   1.301197 A    
C14   C15   1.399887 A    
O7    C4    1.284953 A    
Zn6   O22   2.017074 S    
C41   C49   1.409686 S    
C5    C6    1.565060 S    
C8    N17   1.474268 S    
N1    H26   1.045864 S    
C53   C60   1.492803 S    
C7    N16   1.469604 S    
O5    C3    1.279886 A    
C59   C60   1.515937 S    
O18   Zn6   2.017874 S    
C53   C54   1.384803 A    
C31   H14   1.083632 S    
O10   Zn4   2.018930 S    
C17   C18   1.396486 A    
C51   N11   1.469719 S    
C6    H1    1.115475 S    
O9    C37   1.286217 A    
O14   C39   1.273788 A    
C48   C49   1.392204 A    
C13   C20   1.500418 S    
C37   C46   1.439127 S    
C56   C57   1.418450 A    
C15   C16   1.390666 A    
C24   N8    1.433315 S    
C23   N6    1.442080 S    
C32   C33   1.399720 A    
C7    H5    1.110287 S    
C45   C50   1.367009 A    
N11   O34   1.300835 A    
N2    H29   1.045565 S    
O10   C37   1.273648 A    
C34   C35   1.494539 S    
N15   H41   1.045668 S    
C10   C38   1.459362 S    
O12   C38   1.278251 A    
O3    Zn1   2.026835 S    
C12   N2    1.471824 S    
C54   C55   1.400045 A    
N16   H43   1.044906 S    
C28   H12   1.111586 S    
C19   N4    1.470862 S    
Zn5   O21   2.017874 S    
C21   C26   1.369884 A    
C31   C32   1.390254 A    
C6    N15   1.472700 S    
C8    C12   1.555277 S    
C20   H9    1.112363 S    
N9    H36   1.046825 S    
Zn4   O14   2.015270 S    
Zn6   O24   2.012520 S    
C45   C52   1.503593 S    
O17   C41   1.276750 A    
Zn5   O23   2.017779 S    
C28   H13   1.112357 S    
C33   C34   1.393124 A    
O9    Zn3   2.015271 S    
C2    C9    1.469363 S    
C35   C36   1.520348 S    
O1    C1    1.277916 A    
N15   H40   1.042405 S    
O12   Zn4   2.028906 S    
C24   C25   1.408740 A    
C3    C30   1.424624 S    
C13   C14   1.388937 A    
C29   C34   1.376683 A    
N8    O30   1.300682 A    
O24   C44   1.283296 A    
C15   H7    1.083812 S    
C27   H11   1.112194 S    
O22   C43   1.282419 A    
Zn2   O8    2.026834 S    
C48   H19   1.084740 S    
C16   H8    1.083319 S    
C26   C27   1.492617 S    
C8    C9    1.589195 S    
O23   C44   1.279259 A    
C20   N5    1.464877 S    
C59   H23   1.111624 S    
C4    C22   1.445312 S    
O3    C2    1.279320 A    
C21   C22   1.392819 A    
N13   H39   1.045043 S    
C49   C50   1.384553 A    
C6    C10   1.567060 S    
O19   C42   1.284213 A    
N4    H30   1.046634 S    
O20   C42   1.281716 A    
C32   H15   1.082888 S    
C8    H3    1.107295 S    
N3    O26   1.301967 A    
N6    H32   1.045034 S    
O17   Zn5   2.017074 S    
C29   C30   1.390771 A    
Zn3   O13   2.019013 S    
N11   O33   1.301034 A    
N8    O29   1.300527 A    
N10   O32   1.301064 A    
C27   C28   1.518833 S    
C18   C19   1.507269 S    
O1    Zn1   2.013100 S    
C43   C57   1.433921 S    
Zn2   O6    2.013101 S    
O2    Zn2   2.016608 S    
C25   C26   1.385777 A    
C11   H6    1.112778 S    
O8    C4    1.278916 A    
O18   C41   1.278871 A    
N6    H33   1.042851 S    
O6    C3    1.275155 A    
N5    O28   1.300486 A    
O4    Zn2   2.025874 S    
N7    H35   1.046134 S    
C17   C42   1.431013 S    
C36   N9    1.463483 S    
N7    H34   1.042275 S    
C51   N12   1.467972 S    
O19   Zn5   2.012518 S    
C55   H21   1.084032 S    
C52   N13   1.466999 S    
C50   C51   1.508670 S    
C53   C58   1.371275 A    
C25   C40   1.426232 S    
C7    C11   1.538452 S    
C12   H4    1.115616 S    
N12   O35   1.301621 A    
C36   H18   1.112970 S    
Zn3   O15   2.028866 S    
O4    C2    1.279732 A    
O11   Zn3   2.023753 S    
N17   H45   1.046025 S    
C51   C52   1.539173 S    
C16   C17   1.403842 A    
N1    H27   1.042102 S    
O2    C1    1.272940 A    
C60   H24   1.112299 S    
C10   C12   1.568430 S    
C46   C47   1.426663 A    
O15   C40   1.273144 A    
C59   H22   1.109818 S    
C10   C11   1.559608 S    
C19   N3    1.470060 S    
C27   H10   1.111681 S    
Zn1   O5    2.016611 S    
C5    C9    1.607402 S    
O20   Zn6   2.017779 S    
N13   H38   1.047034 S    
O11   C38   1.273797 A    
N2    H28   1.043919 S    
C23   C24   1.412804 A    
N14   O37   1.300178 A    
N4    H31   1.045350 S    
O13   C39   1.277735 A    
C5    N1    1.480990 S    
C39   C54   1.421819 S    
C60   H25   1.109105 S    
N3    O25   1.301484 A    
C58   C59   1.493814 S    
C33   C44   1.425085 S    
C56   N14   1.440128 S    
N10   O31   1.299959 A    
