data_mof_unit_22363.cif
_audit_creation_date              2012-10-26T20:13:54-0400
_audit_creation_method            fapswitch 2.2
_symmetry_space_group_name_H-M    P1
_symmetry_Int_Tables_number       1
_space_group_crystal_system       triclinic
_cell_length_a                    8.753235
_cell_length_b                    10.854745
_cell_length_c                    9.558786
_cell_angle_alpha                 91.198976
_cell_angle_beta                  97.06339
_cell_angle_gamma                 91.056807
_cell_volume                      900.927509649

loop_
_atom_site_label
_atom_site_type_symbol
_atom_type_description
_atom_site_fract_x
_atom_site_fract_y
_atom_site_fract_z
_atom_type_partial_charge
C1    C     C_R   0.494036 0.262536 0.497882 0.531175
C2    C     C_R   0.632973 0.522579 0.941664 0.163371
C3    C     C_3   0.733700 0.633721 0.942353 0.164432
C4    C     C_R   0.204347 0.493661 0.464765 0.553709
C5    C     C_3   0.720460 0.647076 0.099873 0.171300
C6    C     C_R   0.502034 0.737973 0.501345 0.547253
C7    C     C_R   0.794876 0.492674 0.535361 0.554698
C8    C     C_2   0.039033 0.485659 0.446629 -0.150889
C9    C     C_2   0.958282 0.473560 0.555936 0.216861
C10   C     C_R   0.428055 0.065348 0.603468 0.035045
C11   C     C_R   0.477151 0.129528 0.491536 -0.016218
C12   C     C_R   0.519160 0.934201 0.376459 -0.172295
C13   C     C_R   0.511635 0.062350 0.372618 -0.173840
C14   C     C_3   0.967560 0.701471 0.879664 -0.058519
C15   C     C_3   0.895733 0.746133 0.267657 -0.127958
C16   C     C_3   0.004020 0.319646 0.711333 -0.081945
C17   C     C_3   0.697533 0.952749 0.944324 -0.168082
C18   C     C_3   0.366294 0.140849 0.963380 -0.148985
C19   C     C_R   0.495390 0.871752 0.500110 0.020284
C20   C     C_R   0.444206 0.939576 0.610819 0.012108
C21   C     C_3   0.492805 0.947502 0.767256 0.167278
C22   C     C_3   0.463855 0.086082 0.758383 0.182762
C23   C     C_R   0.631987 0.526926 0.089001 0.181172
C24   C     C_R   0.373422 0.463141 0.059081 -0.038551
C25   C     C_R   0.373594 0.463614 0.910764 -0.025935
Cu1   Cu    Cu3+1 0.499990 0.499980 0.640670 0.982371
Cu2   Cu    Cu3+1 0.500010 0.500020 0.359330 0.938213
H1    H     H_    0.645449 0.723893 0.126758 0.045363
H2    H     H_    0.079106 0.669826 0.849657 0.161464
H3    H     H_    0.993984 0.764228 0.973003 0.115124
H4    H     H_    0.677397 0.705544 0.874418 0.137026
H5    H     H_    0.813596 0.754024 0.347223 0.135729
H6    H     H_    0.892801 0.829893 0.202510 0.083806
H7    H     H_    0.013328 0.740612 0.325239 0.138620
H8    H     H_    0.065377 0.262970 0.638398 0.133598
H9    H     H_    0.879636 0.292839 0.699727 0.121792
H10   H     H_    0.052219 0.298346 0.820709 0.146804
H11   H     H_    0.620233 0.909830 0.014279 0.080782
H12   H     H_    0.541603 0.108567 0.280093 0.125175
H13   H     H_    0.704966 0.053888 0.964082 0.111800
H14   H     H_    0.814721 0.918158 0.973648 0.128473
H15   H     H_    0.462888 0.208827 0.989292 0.118413
H16   H     H_    0.393754 0.052640 0.016853 0.105436
H17   H     H_    0.264031 0.178685 0.005805 0.134827
H18   H     H_    0.550637 0.885095 0.284866 0.116334
H19   H     H_    0.414542 0.893142 0.827216 0.118030
H20   H     H_    0.566005 0.148642 0.785468 0.137774
H21   H     H_    0.270143 0.433672 0.101305 0.146439
H22   H     H_    0.982018 0.492462 0.340464 0.161787
H23   H     H_    0.271583 0.434503 0.843886 0.196170
H24   H     H_    0.908444 0.750861 0.788170 0.133746
N1    N     N_R   0.500980 0.500930 0.148050 -0.267143
N2    N     N_R   0.500990 0.500890 0.852140 -0.283589
O1    O     O_R   0.500000 0.319640 0.618810 -0.504078
O2    O     O_3   0.864247 0.638289 0.183435 -0.541450
O3    O     O_3   0.027047 0.446676 0.689783 -0.548803
O4    O     O_3   0.651033 0.923173 0.800454 -0.598935
O5    O     O_3   0.330144 0.121425 0.816637 -0.593865
O6    O     O_R   0.500020 0.319680 0.381230 -0.515100
O7    O     O_R   0.274830 0.499980 0.591380 -0.456992
O8    O     O_R   0.274850 0.500020 0.353800 -0.511259
O9    O     O_R   0.499980 0.680320 0.618770 -0.499460
O10   O     O_R   0.500000 0.680360 0.381190 -0.513637
O11   O     O_R   0.725150 0.499980 0.646200 -0.450858
O12   O     O_R   0.725170 0.500020 0.408620 -0.513014
O13   O     O_3   0.881158 0.597688 0.912594 -0.495146

loop_
_geom_bond_atom_site_label_1
_geom_bond_atom_site_label_2
_ccdc_geom_bond_type
C6    O10   A    
C24   N1    A    
C18   O5    S    
C1    O1    A    
C16   O3    S    
C24   C25   A    
C22   O5    S    
Cu2   O12   S    
C18   H17   S    
C7    O12   A    
C5    H1    S    
C17   H13   S    
C21   O4    S    
C15   H7    S    
C14   H24   S    
C5    C23   S    
C16   H10   S    
C4    C8    S    
C4    O7    A    
C1    O6    A    
C2    C3    S    
Cu1   O9    S    
C15   H5    S    
C4    O8    A    
C9    O3    S    
Cu2   O6    S    
C18   H16   S    
C16   H9    S    
C3    H4    S    
C6    C19   S    
C11   C13   A    
C6    O9    A    
C23   N1    A    
Cu2   O10   S    
C14   H3    S    
Cu1   O1    S    
C12   C19   A    
C5    O2    S    
C22   H20   S    
C17   H11   S    
C18   H15   S    
C16   H8    S    
Cu1   Cu2   S    
Cu2   N1    S    
C17   H14   S    
C7    O11   A    
C13   H12   S    
C3    O13   S    
C10   C11   A    
C14   H2    S    
C24   H21   S    
Cu1   N2    S    
C20   C21   S    
C14   O13   S    
C21   H19   S    
C15   O2    S    
C10   C20   A    
C2    C23   A    
C7    C9    S    
Cu1   O11   S    
C25   H23   S    
C12   H18   S    
Cu2   O8    S    
C12   C13   A    
C21   C22   S    
Cu1   O7    S    
C8    H22   S    
C15   H6    S    
C10   C22   S    
C25   N2    A    
C19   C20   A    
C17   O4    S    
C8    C9    D    
C3    C5    S    
C2    N2    A    
C1    C11   S    
