data_mof_unit_17601.cif
_audit_creation_date              2012-12-10T18:44:23-0500
_audit_creation_method            fapswitch 2.2
_symmetry_space_group_name_H-M    P1
_symmetry_Int_Tables_number       1
_space_group_crystal_system       triclinic
_cell_length_a                    12.877243
_cell_length_b                    10.69676
_cell_length_c                    9.832401
_cell_angle_alpha                 89.625413
_cell_angle_beta                  97.239796
_cell_angle_gamma                 90.095155
_cell_volume                      1343.53492645

loop_
_atom_site_label
_atom_site_type_symbol
_atom_type_description
_atom_site_fract_x
_atom_site_fract_y
_atom_site_fract_z
_atom_type_partial_charge
C1    C     C_R   0.498649 0.260136 0.500220 0.925264
C2    C     C_R   0.501076 0.740111 0.499545 0.944543
C3    C     C_R   0.499928 0.872692 0.497427 -0.211067
C4    C     C_R   0.496685 0.127953 0.500148 -0.210136
C5    C     C_R   0.570688 0.570197 0.083515 -0.332335
C6    C     C_R   0.429720 0.429177 0.916755 -0.288257
C7    C     C_R   0.572380 0.569337 0.938384 0.589041
C8    C     C_R   0.430843 0.426682 0.061759 0.580195
C9    C     C_R   0.298080 0.498586 0.473128 0.862672
C10   C     C_R   0.701950 0.500416 0.526818 0.888618
C11   C     C_R   0.814099 0.498263 0.542727 -0.042825
C12   C     C_R   0.185945 0.497593 0.456731 -0.051478
C13   C     C_R   0.020692 0.535245 0.319807 -0.230048
C14   C     C_R   0.979155 0.457345 0.678831 -0.229535
C15   C     C_R   0.128615 0.527497 0.330152 -0.183780
C16   C     C_R   0.871289 0.466403 0.668774 -0.210660
C17   C     C_R   0.136120 0.471326 0.571716 -0.294750
C18   C     C_R   0.863951 0.522907 0.427359 -0.267897
C19   C     C_R   0.028979 0.479939 0.562738 0.191004
C20   C     C_R   0.970960 0.512951 0.436019 0.185347
C21   C     C_R   0.547660 0.067240 0.402638 -0.377582
C22   C     C_R   0.449187 0.933683 0.595530 -0.348313
C23   C     C_R   0.546590 0.938492 0.396782 0.546575
C24   C     C_R   0.444586 0.062126 0.595159 0.549795
H1    H     H_    0.819556 0.548792 0.330039 0.157300
H2    H     H_    0.180677 0.446029 0.669103 0.157555
H3    H     H_    0.832699 0.446190 0.758121 0.164085
H4    H     H_    0.167134 0.547544 0.240651 0.174915
H5    H     H_    0.976444 0.559920 0.222152 0.135402
H6    H     H_    0.023316 0.432070 0.776330 0.142003
H7    H     H_    0.590238 0.119935 0.333062 0.184220
H8    H     H_    0.411419 0.881852 0.670793 0.191814
H9    H     H_    0.625039 0.626959 0.149225 0.192877
H10   H     H_    0.372443 0.375206 0.851866 0.186630
N1    N     N_R   0.499970 0.499970 0.857200 -0.136178
N2    N     N_R   0.500030 0.500030 0.142800 -0.132950
O1    O     O_R   0.499990 0.316750 0.614620 -0.578238
O2    O     O_R   0.500010 0.683250 0.385380 -0.590082
O3    O     O_R   0.499990 0.316780 0.385290 -0.607415
O4    O     O_R   0.500010 0.683220 0.614710 -0.587857
O5    O     O_R   0.346360 0.499970 0.595710 -0.635635
O6    O     O_R   0.653640 0.500030 0.404290 -0.631841
O7    O     O_R   0.346360 0.499990 0.366380 -0.583235
O8    O     O_R   0.653640 0.500010 0.633620 -0.586828
Zn1   Zn    Zn3+2 0.500000 0.499980 0.653120 1.004199
Zn2   Zn    Zn3+2 0.500000 0.500020 0.346880 0.992152
O9    O     O_3   0.600975 0.876656 0.304280 -0.600343
C25   C     C_3   0.553337 0.901409 0.169390 -0.283662
H11   H     H_    0.563936 0.000378 0.139217 0.150269
H12   H     H_    0.591983 0.843694 0.097311 0.198074
H13   H     H_    0.468733 0.876163 0.156500 0.160184
O10   O     O_3   0.394214 0.122390 0.692263 -0.602021
C26   C     C_3   0.289005 0.142066 0.637116 -0.337909
H14   H     H_    0.282954 0.201823 0.543285 0.156998
H15   H     H_    0.247482 0.051751 0.614626 0.164297
H16   H     H_    0.248779 0.191903 0.714115 0.182412
O11   O     O_3   0.640257 0.644043 0.874373 -0.567632
C27   C     C_3   0.743006 0.640215 0.944122 -0.357199
H17   H     H_    0.797896 0.670330 0.871890 0.206023
H18   H     H_    0.766705 0.544252 0.980328 0.142712
H19   H     H_    0.751673 0.707178 0.030646 0.166030
O12   O     O_3   0.358441 0.357170 0.122699 -0.586981
C28   C     C_3   0.370379 0.229087 0.094862 -0.300387
H20   H     H_    0.328617 0.173775 0.166920 0.185730
H21   H     H_    0.453932 0.199343 0.111047 0.155010
H22   H     H_    0.334437 0.206278 0.989271 0.171110

loop_
_geom_bond_atom_site_label_1
_geom_bond_atom_site_label_2
_ccdc_geom_bond_type
C12   C17   A    
C24   O10   S    
C28   H21   S    
C11   C18   A    
N2    Zn2   S    
O12   C28   S    
C14   C16   A    
C10   O6    A    
C11   C16   A    
C2    O2    A    
C9    O5    A    
O9    C25   S    
C12   C15   A    
C1    O1    A    
C1    C4    S    
C27   H19   S    
C25   H12   S    
C2    C3    S    
C15   H4    S    
C28   H22   S    
C26   H14   S    
C6    N1    A    
C4    C21   A    
C21   H7    S    
O11   C27   S    
C18   H1    S    
C22   H8    S    
C14   H6    S    
O3    Zn2   S    
C17   H2    S    
C14   C19   A    
C16   H3    S    
C25   H11   S    
C17   C19   A    
C27   H18   S    
C18   C20   A    
C26   H15   S    
C13   C15   A    
C8    N2    A    
O4    Zn1   S    
C4    C24   A    
O7    Zn2   S    
C22   C24   A    
C9    O7    A    
O2    Zn2   S    
C10   C11   S    
C1    O3    A    
C10   O8    A    
C28   H20   S    
N1    Zn1   S    
C5    N2    A    
C2    O4    A    
C23   O9    S    
O10   C26   S    
C19   C20   A    
C5    C7    A    
O6    Zn2   S    
C26   H16   S    
C13   H5    S    
O1    Zn1   S    
O5    Zn1   S    
C3    C22   A    
C6    C8    A    
C13   C20   A    
C3    C23   A    
C9    C12   S    
C27   H17   S    
C7    N1    A    
C21   C23   A    
C7    O11   S    
C25   H13   S    
O8    Zn1   S    
C6    H10   S    
C8    O12   S    
C5    H9    S    
