data_mof_unit_19732.cif
_audit_creation_date              2012-12-10T17:31:15-0500
_audit_creation_method            fapswitch 2.2
_symmetry_space_group_name_H-M    P1
_symmetry_Int_Tables_number       1
_space_group_crystal_system       triclinic
_cell_length_a                    11.993771
_cell_length_b                    12.885266
_cell_length_c                    15.395816
_cell_angle_alpha                 87.076255
_cell_angle_beta                  116.15384
_cell_angle_gamma                 93.532441
_cell_volume                      2130.89242225

loop_
_atom_site_label
_atom_site_type_symbol
_atom_type_description
_atom_site_fract_x
_atom_site_fract_y
_atom_site_fract_z
_atom_type_partial_charge
C1    C     C_R   0.477614 0.299389 0.499426 0.886927
C2    C     C_R   0.664777 0.969370 0.536323 -0.223219
C3    C     C_R   0.346963 0.137742 0.470996 -0.207434
C4    C     C_R   0.653300 0.862183 0.529675 -0.205894
C5    C     C_R   0.569817 0.131829 0.522078 -0.281787
C6    C     C_R   0.430431 0.868144 0.478493 -0.282640
C7    C     C_R   0.559215 0.025434 0.515061 0.188236
C8    C     C_R   0.441087 0.974510 0.485683 0.188036
C9    C     C_R   0.997851 0.591649 0.402943 -0.339060
C10   C     C_R   0.001947 0.408052 0.596755 -0.334449
C11   C     C_R   0.119838 0.583909 0.413558 0.014277
C12   C     C_R   0.522436 0.700604 0.500673 0.887414
C13   C     C_R   0.880099 0.415995 0.586345 0.014120
C14   C     C_R   0.163872 0.461476 0.543368 -0.052624
C15   C     C_R   0.835978 0.538328 0.456431 -0.056639
C16   C     C_R   0.577360 0.495644 0.680936 0.884528
C17   C     C_R   0.423212 0.506873 0.319107 0.890145
C18   C     C_R   0.041941 0.466860 0.535492 0.092774
C19   C     C_R   0.957865 0.532886 0.464233 0.089791
C20   C     C_R   0.628873 0.497704 0.786167 -0.102212
C21   C     C_R   0.379546 0.530561 0.216008 -0.099892
C22   C     C_R   0.786677 0.450654 0.947191 0.105556
C23   C     C_R   0.657644 0.500253 0.120853 -0.229873
C24   C     C_R   0.261380 0.638645 0.074120 0.117565
C25   C     C_R   0.744109 0.456902 0.846021 -0.214315
C26   C     C_R   0.280975 0.595831 0.165331 -0.251566
C27   C     C_R   0.558243 0.538952 0.825796 -0.273390
C28   C     C_R   0.456041 0.504860 0.175190 -0.269411
C29   C     C_R   0.596517 0.536208 0.925348 0.075557
C30   C     C_R   0.448727 0.554404 0.090569 0.067952
C31   C     C_R   0.709885 0.488410 0.986723 0.123558
C32   C     C_R   0.346220 0.617449 0.035965 0.138875
C33   C     C_R   0.517932 0.571253 0.963770 0.082928
C34   C     C_R   0.416051 0.634342 0.909886 -0.235321
C35   C     C_R   0.541237 0.540872 0.059076 0.082400
C36   C     C_3   0.908849 0.400066 0.013087 -0.444731
C37   C     C_3   0.984946 0.362024 0.963325 -0.363813
C38   C     C_3   0.108427 0.320391 0.037565 -0.857031
C39   C     C_3   0.156156 0.712337 0.024007 -0.443285
C40   C     C_3   0.043638 0.658518 0.942870 -0.346499
C41   C     C_3   0.942411 0.734746 0.886095 -0.864016
C42   C     C_R   0.741343 0.476854 0.085758 -0.255305
C43   C     C_R   0.333608 0.658703 0.946222 -0.252383
C44   C     C_R   0.536282 0.811931 0.501830 -0.054505
C45   C     C_R   0.463915 0.188038 0.498602 -0.055587
C46   C     C_R   0.335535 0.030549 0.464483 -0.224408
H1    H     H_    0.828309 0.445329 0.136944 0.148356
H2    H     H_    0.796859 0.426423 0.812228 0.146169
H3    H     H_    0.687841 0.488486 0.197772 0.150663
H4    H     H_    0.400659 0.669629 0.840641 0.149614
H5    H     H_    0.339483 0.829214 0.455717 0.156585
H6    H     H_    0.660732 0.170789 0.544751 0.156614
H7    H     H_    0.735580 0.818746 0.547942 0.162096
H8    H     H_    0.264672 0.181154 0.452745 0.161768
H9    H     H_    0.244734 0.991729 0.442246 0.137880
H10   H     H_    0.755599 0.008171 0.558640 0.137580
H11   H     H_    0.770718 0.589336 0.402259 0.129372
H12   H     H_    0.258813 0.708388 0.901814 0.158830
H13   H     H_    0.229066 0.410370 0.597457 0.129145
H14   H     H_    0.165358 0.382628 0.087516 0.271767
H15   H     H_    0.161042 0.293113 0.999746 0.248205
H16   H     H_    0.091995 0.254088 0.080113 0.258317
H17   H     H_    0.931435 0.298668 0.913261 0.221235
H18   H     H_    0.005428 0.426780 0.921399 0.217644
H19   H     H_    0.968308 0.457146 0.068264 0.199311
H20   H     H_    0.887425 0.331953 0.051357 0.206565
H21   H     H_    0.861659 0.692714 0.829232 0.257497
H22   H     H_    0.910741 0.770650 0.934981 0.262123
H23   H     H_    0.850323 0.370903 0.634199 0.118862
H24   H     H_    0.977912 0.796747 0.850746 0.256225
H25   H     H_    0.071463 0.621866 0.892058 0.221375
H26   H     H_    0.004469 0.596897 0.975498 0.236814
H27   H     H_    0.189126 0.782849 0.996017 0.199609
H28   H     H_    0.125770 0.740803 0.076865 0.197371
H29   H     H_    0.149652 0.629045 0.365749 0.119953
H30   H     H_    0.935349 0.642995 0.347121 0.146583
H31   H     H_    0.064366 0.356553 0.652450 0.143759
H32   H     H_    0.524869 0.447910 0.213207 0.157883
H33   H     H_    0.468814 0.567373 0.776636 0.163235
H34   H     H_    0.222719 0.616716 0.198561 0.147085
N1    N     N_R   0.799120 0.480200 0.517090 -0.094098
N2    N     N_R   0.200880 0.519800 0.482910 -0.095334
O1    O     O_R   0.580150 0.341050 0.504560 -0.623542
O2    O     O_R   0.419850 0.658950 0.495440 -0.624609
O3    O     O_R   0.388090 0.353760 0.493600 -0.621639
O4    O     O_R   0.611910 0.646240 0.506400 -0.621322
O5    O     O_R   0.650890 0.490020 0.640860 -0.621713
O6    O     O_R   0.349110 0.509980 0.359140 -0.620171
O7    O     O_R   0.458830 0.502730 0.629890 -0.616453
O8    O     O_R   0.541170 0.497270 0.370110 -0.614499
Zn1   Zn    Zn3+2 0.628240 0.491510 0.507320 0.934377
Zn2   Zn    Zn3+2 0.371760 0.508490 0.492680 0.933569

loop_
_geom_bond_atom_site_label_1
_geom_bond_atom_site_label_2
_ccdc_geom_bond_type
C21   C26   A    
C40   H25   S    
O5    Zn1   S    
C4    H7    S    
C27   C29   A    
C17   O6    A    
C14   C18   A    
C2    C7    A    
C7    C8    A    
C41   H21   S    
C15   C19   A    
C14   H13   S    
C23   C42   A    
C30   C35   A    
C36   C37   S    
C31   C42   A    
C24   C26   A    
C27   H33   S    
O4    Zn1   S    
C3    H8    S    
C36   H20   S    
C23   H3    S    
C20   C25   A    
C13   N1    A    
C24   C39   S    
N2    Zn2   S    
C12   O2    A    
C18   C19   A    
C39   H28   S    
C43   H12   S    
O3    Zn2   S    
O6    Zn2   S    
C29   C33   A    
C22   C25   A    
C46   H9    S    
C16   O5    A    
C5    H6    S    
C9    H30   S    
C6    H5    S    
C28   H32   S    
C38   H15   S    
C16   O7    A    
C6    C44   A    
C15   H11   S    
C37   H17   S    
C10   H31   S    
C9    C19   A    
C41   H22   S    
C11   N2    A    
C1    O3    A    
C34   H4    S    
C22   C31   A    
C34   C43   A    
C15   N1    A    
C39   C40   S    
C5    C7    A    
C36   H19   S    
C6    C8    A    
C4    C44   A    
C5    C45   A    
C3    C45   A    
C26   H34   S    
C2    C4    A    
C24   C32   A    
C37   C38   S    
C16   C20   S    
C33   C34   A    
O7    Zn2   S    
C9    C11   A    
C25   H2    S    
C38   H14   S    
C40   C41   S    
C21   C28   A    
C23   C35   A    
C14   N2    A    
C37   H18   S    
C22   C36   S    
C40   H26   S    
C17   O8    A    
C10   C13   A    
C20   C27   A    
C1    O1    A    
O1    Zn1   S    
C3    C46   A    
C12   O4    A    
C28   C30   A    
C12   C44   S    
C11   H29   S    
C30   C32   A    
C1    C45   S    
O8    Zn1   S    
C13   H23   S    
C10   C18   A    
C33   C35   A    
C32   C43   A    
C42   H1    S    
C39   H27   S    
C8    C46   A    
N1    Zn1   S    
C29   C31   A    
C2    H10   S    
O2    Zn2   S    
C41   H24   S    
C38   H16   S    
C17   C21   S    
