data_mof_unit_30638.cif
_audit_creation_date              2013-03-05T15:47:45-0500
_audit_creation_method            fapswitch 2.2
_symmetry_space_group_name_H-M    P1
_symmetry_Int_Tables_number       1
_space_group_crystal_system       triclinic
_cell_length_a                    10.624757
_cell_length_b                    12.992151
_cell_length_c                    11.623421
_cell_angle_alpha                 99.946175
_cell_angle_beta                  93.903886
_cell_angle_gamma                 89.103603
_cell_volume                      1576.68508732

loop_
_atom_site_label
_atom_site_type_symbol
_atom_site_description
_atom_site_fract_x
_atom_site_fract_y
_atom_site_fract_z
_atom_type_partial_charge
O1    O     O_R   0.506570 0.354460 0.582000 -0.562191
O2    O     O_R   0.493430 0.645540 0.418000 -0.566225
O3    O     O_R   0.490940 0.341410 0.386200 -0.561879
O4    O     O_R   0.509060 0.658590 0.613800 -0.562529
C1    C     C_R   0.496031 0.299019 0.478656 0.887543
C2    C     C_R   0.502902 0.701020 0.521359 0.876831
O5    O     O_R   0.327470 0.506520 0.597900 -0.571717
O6    O     O_R   0.672530 0.493480 0.402100 -0.569323
O7    O     O_R   0.311840 0.493460 0.402100 -0.585727
O8    O     O_R   0.688160 0.506540 0.597900 -0.587930
C3    C     C_R   0.261786 0.517351 0.501842 0.863399
C4    C     C_R   0.738436 0.483084 0.498221 0.877991
Cu1   Cu    Cu3+1 0.509250 0.507730 0.615930 1.059373
Cu2   Cu    Cu3+1 0.490750 0.492270 0.384070 1.059341
H1    H     H_    0.060392 0.518018 0.101587 0.196351
H2    H     H_    0.939118 0.486924 0.899379 0.183632
C5    C     C_R   0.112018 0.598505 0.720087 0.462915
C6    C     C_R   0.888973 0.404219 0.280209 0.440128
C7    C     C_R   0.061263 0.580358 0.822486 -0.221827
C8    C     C_R   0.938891 0.423672 0.177935 -0.209658
C9    C     C_R   0.968276 0.506159 0.818184 -0.262067
C10   C     C_R   0.031530 0.498163 0.182611 -0.197905
C11   C     C_R   0.916328 0.454233 0.710914 0.443731
C12   C     C_R   0.083927 0.549347 0.290100 0.446086
C13   C     C_R   0.951349 0.484522 0.605266 -0.109105
C14   C     C_R   0.049042 0.518344 0.395385 -0.104772
C15   C     C_R   0.064031 0.542300 0.609329 -0.104316
C16   C     C_R   0.936634 0.460200 0.391121 -0.106988
C17   C     C_R   0.877315 0.462195 0.497178 -0.026894
C18   C     C_R   0.123304 0.539813 0.503226 -0.021149
H3    H     H_    0.096392 0.622320 0.907067 0.222047
H4    H     H_    0.903699 0.382192 0.093262 0.189310
C19   C     C_R   0.503381 0.814389 0.533801 -0.055015
C20   C     C_R   0.492840 0.185697 0.466306 -0.078406
C21   C     C_R   0.479737 0.015110 0.343674 -0.126693
C22   C     C_R   0.514140 0.984998 0.656513 -0.129998
C23   C     C_R   0.480295 0.123277 0.354826 -0.159285
C24   C     C_R   0.514367 0.876821 0.645331 -0.112031
C25   C     C_R   0.503524 0.139429 0.566708 -0.148571
C26   C     C_R   0.491786 0.860676 0.433437 -0.203199
C27   C     C_R   0.502909 0.031374 0.556293 0.140368
C28   C     C_R   0.491342 0.968738 0.443883 0.134406
H5    H     H_    0.482902 0.812863 0.347065 0.205399
H6    H     H_    0.512964 0.187235 0.653072 0.200482
H7    H     H_    0.523061 0.842159 0.723851 0.197341
H8    H     H_    0.471820 0.157940 0.276305 0.205493
H9    H     H_    0.470649 0.967873 0.257049 0.192478
H10   H     H_    0.522851 0.032234 0.743153 0.187055
N1    N     N_R   0.523180 0.519350 0.790130 -0.188638
N2    N     N_R   0.476820 0.480650 0.209870 -0.198199
C29   C     C_R   0.383756 0.399710 0.021980 0.317506
C30   C     C_R   0.614355 0.601748 0.978223 0.267330
C31   C     C_R   0.395510 0.410625 0.144661 0.081433
C32   C     C_R   0.603201 0.590395 0.855480 0.062347
C33   C     C_R   0.548616 0.543211 0.157882 0.158984
C34   C     C_R   0.451691 0.456534 0.842081 0.165986
C35   C     C_R   0.541405 0.537001 0.034599 -0.107336
C36   C     C_R   0.457998 0.463422 0.965439 -0.122992
H11   H     H_    0.390176 0.401269 0.785959 0.184154
H12   H     H_    0.611224 0.597645 0.213904 0.184857
H13   H     H_    0.657915 0.639068 0.811161 0.146557
H14   H     H_    0.339863 0.362667 0.189062 0.169275
S1    S     S_3+6 0.276669 0.305468 0.943879 -0.004702
O9    O     O_2   0.185285 0.357272 0.867358 -0.292532
O10   O     O_2   0.348871 0.222435 0.868494 -0.285207
O11   O     O_3   0.196067 0.249992 0.036715 -0.530087
H15   H     H_    0.129968 0.207628 0.986585 0.413117
S2    S     S_3+6 0.716920 0.699325 0.056992 0.018611
O12   O     O_2   0.641831 0.776608 0.136766 -0.248656
O13   O     O_2   0.814931 0.650167 0.129916 -0.302563
O14   O     O_3   0.788945 0.763236 0.965864 -0.467492
H16   H     H_    0.856926 0.715572 0.934683 0.354803
S3    S     S_3+6 0.213948 0.707501 0.738833 0.025046
O15   O     O_2   0.331228 0.685420 0.810193 -0.303633
O16   O     O_2   0.248636 0.734091 0.624896 -0.292448
O17   O     O_3   0.139798 0.810750 0.813284 -0.484116
H17   H     H_    0.202837 0.867692 0.827165 0.393125
S4    S     S_3+6 0.789428 0.293697 0.261313 0.024779
O18   O     O_2   0.668449 0.315995 0.195555 -0.294302
O19   O     O_2   0.854729 0.204080 0.188811 -0.254436
O20   O     O_3   0.757628 0.259014 0.388375 -0.522290
H18   H     H_    0.748909 0.182003 0.371209 0.392406
S5    S     S_3+6 0.841338 0.334250 0.714564 0.046135
O21   O     O_2   0.705281 0.352119 0.739028 -0.326320
O22   O     O_2   0.850908 0.260323 0.601327 -0.210659
O23   O     O_3   0.913164 0.278402 0.822039 -0.461456
H19   H     H_    0.858276 0.293801 0.888534 0.356074
S6    S     S_3+6 0.161131 0.668603 0.287350 0.035210
O24   O     O_2   0.295567 0.648091 0.258648 -0.311832
O25   O     O_2   0.096081 0.720467 0.193399 -0.223779
O26   O     O_3   0.154933 0.749903 0.415561 -0.474399
H20   H     H_    0.203006 0.812351 0.406290 0.384043

loop_
_geom_bond_atom_site_label_1
_geom_bond_atom_site_label_2
_geom_bond_distance
_ccdc_geom_bond_type
S1    O10   1.503045 D    
H2    C9    1.082973 S    
C4    C17   1.496608 S    
C20   C23   1.404051 A    
C27   C28   1.413670 A    
C21   H9    1.083937 S    
O20   H18   0.990401 S    
C25   C27   1.388170 A    
O5    C3    1.303292 A    
C11   S5    1.769993 S    
O1    C1    1.288248 A    
C16   C17   1.418375 A    
C21   C23   1.388876 A    
C12   C14   1.426167 A    
S4    O19   1.504183 D    
N1    C32   1.358762 A    
S3    O15   1.501089 D    
O4    Cu1   1.964390 S    
C21   C28   1.398365 A    
C24   H7    1.083280 S    
C26   H5    1.084522 S    
C3    C18   1.496131 S    
S2    O12   1.502826 D    
C30   S2    1.771813 S    
O6    C4    1.303636 A    
C26   C28   1.388106 A    
O11   H15   0.990583 S    
S1    O11   1.682587 S    
C7    H3    1.083655 S    
Cu1   Cu2   2.661605 S    
C15   C18   1.417738 A    
C5    S3    1.770571 S    
S3    O16   1.495829 D    
C22   C27   1.398408 A    
O2    C2    1.288283 A    
C30   C32   1.405740 A    
H1    C10   1.083161 S    
C13   C17   1.424060 A    
C19   C26   1.399345 A    
C20   C25   1.399407 A    
N2    C31   1.358571 A    
C29   S1    1.771088 S    
O17   H17   0.990696 S    
O4    C2    1.287085 A    
O26   H20   0.990662 S    
O23   H19   0.990857 S    
C29   C31   1.405545 A    
C5    C15   1.431106 A    
O7    Cu2   1.926056 S    
C33   C35   1.418133 A    
C12   S6    1.770573 S    
C31   H14   1.080878 S    
S5    O21   1.499030 D    
S6    O26   1.675802 S    
C6    S4    1.770768 S    
C1    C20   1.455086 S    
C6    C16   1.430433 A    
C29   C36   1.420656 A    
O7    C3    1.295269 A    
O3    Cu2   1.964392 S    
O8    C4    1.295301 A    
Cu1   N1    1.999703 S    
S5    O22   1.497899 D    
S6    O25   1.503698 D    
C14   C18   1.422320 A    
C9    C11   1.393467 A    
S3    O17   1.681582 S    
C10   C12   1.393903 A    
O1    Cu1   1.962297 S    
C8    H4    1.082514 S    
O6    Cu2   1.928483 S    
C7    C9    1.383582 A    
S4    O18   1.500464 D    
C19   C24   1.403997 A    
C8    C10   1.383011 A    
O3    C1    1.287153 A    
O8    Cu1   1.926056 S    
C2    C19   1.454979 S    
C25   H6    1.084619 S    
C32   H13   1.080736 S    
C13   C15   1.416758 A    
N1    C34   1.363700 A    
C14   C16   1.416592 A    
N2    C33   1.363640 A    
C34   H11   1.078467 S    
C22   C24   1.388895 A    
O14   H16   0.990283 S    
S4    O20   1.673627 S    
C35   C36   1.417539 A    
Cu2   N2    1.999703 S    
S2    O14   1.682587 S    
C5    C7    1.396900 A    
C34   C36   1.418159 A    
C22   H10   1.083946 S    
C6    C8    1.397205 A    
C11   C13   1.426546 A    
O2    Cu2   1.962295 S    
C30   C35   1.420459 A    
S1    O9    1.501847 D    
O5    Cu1   1.928482 S    
S5    O23   1.683858 S    
S6    O24   1.498248 D    
S2    O13   1.502258 D    
C23   H8    1.083254 S    
C33   H12   1.078574 S    
