data_mof_unit_10562.cif
_audit_creation_date              2012-12-11T14:24:49-0500
_audit_creation_method            fapswitch 2.2
_symmetry_space_group_name_H-M    P1
_symmetry_Int_Tables_number       1
_space_group_crystal_system       triclinic
_cell_length_a                    19.125206
_cell_length_b                    11.054843
_cell_length_c                    18.604019
_cell_angle_alpha                 89.871106
_cell_angle_beta                  90.485903
_cell_angle_gamma                 89.797444
_cell_volume                      3933.19986135

loop_
_atom_site_label
_atom_site_type_symbol
_atom_type_description
_atom_site_fract_x
_atom_site_fract_y
_atom_site_fract_z
_atom_type_partial_charge
C1    C     C_R   0.716789 0.340367 0.138556 0.537016
C2    C     C_R   0.226993 0.845922 0.060585 -0.002739
C3    C     C_R   0.647446 0.550270 0.443658 -0.099465
C4    C     C_R   0.908358 0.089387 0.516727 -0.199964
C5    C     C_R   0.091069 0.089552 0.482839 -0.199946
C6    C     C_R   0.408372 0.589375 0.516781 -0.199971
C7    C     C_R   0.591076 0.589541 0.482910 -0.199934
C8    C     C_R   0.924492 0.036693 0.450721 -0.112740
C9    C     C_R   0.075200 0.036718 0.548972 -0.113450
C10   C     C_R   0.424508 0.536707 0.450767 -0.112968
C11   C     C_R   0.575214 0.536702 0.549042 -0.113256
C12   C     C_R   0.881031 0.949579 0.421773 0.252194
C13   C     C_R   0.273033 0.347587 0.939293 -0.009076
C14   C     C_R   0.119168 0.949897 0.578189 0.251622
C15   C     C_R   0.381037 0.449630 0.421794 0.251725
C16   C     C_R   0.619168 0.449835 0.578232 0.251723
C17   C     C_R   0.757402 0.894406 0.418826 0.024544
C18   C     C_R   0.243019 0.894873 0.581157 0.024843
C19   C     C_R   0.257408 0.394418 0.418827 0.025082
C20   C     C_R   0.743017 0.394835 0.581171 0.024710
C21   C     C_R   0.729888 0.376862 0.356060 0.569020
C22   C     C_R   0.270141 0.376833 0.643917 0.570042
C23   C     C_R   0.229892 0.876872 0.356055 0.569967
C24   C     C_R   0.731591 0.363735 0.062662 -0.004122
C25   C     C_R   0.770140 0.876835 0.643917 0.561535
C26   C     C_R   0.531605 0.158118 0.352826 0.603162
C27   C     C_R   0.468515 0.158024 0.647250 0.602954
C28   C     C_R   0.031586 0.658123 0.352811 0.595025
C29   C     C_R   0.968491 0.658019 0.647229 0.602183
C30   C     C_R   0.743608 0.964140 0.353372 0.587077
C31   C     C_R   0.256506 0.964177 0.646609 0.587681
C32   C     C_R   0.243610 0.464139 0.353371 0.585411
C33   C     C_R   0.756507 0.464173 0.646610 0.585640
C34   C     C_3   0.520778 0.258086 0.965134 -0.119615
C35   C     C_R   0.698191 0.848148 0.967425 0.016067
C36   C     C_3   0.477476 0.257172 0.035052 -0.118483
C37   C     C_3   0.017988 0.736791 0.967453 -0.114333
C38   C     C_3   0.971716 0.774432 0.031575 -0.124334
C39   C     C_3   0.569857 0.159047 0.996391 -0.141318
C40   C     C_3   0.429634 0.157204 0.003675 -0.139512
C41   C     C_3   0.045595 0.626853 0.010362 -0.111579
C42   C     C_3   0.911287 0.695064 0.001676 -0.136332
C43   C     C_3   0.525976 0.158201 0.064878 0.053951
C44   C     C_3   0.473499 0.158137 0.935196 0.052922
C45   C     C_3   0.998955 0.663982 0.073597 0.049200
C46   C     C_R   0.287721 0.802187 0.022862 0.021396
C47   C     C_3   0.958364 0.657575 0.938957 0.046545
C48   C     C_1   0.575660 0.950458 0.632852 0.214503
C49   C     C_1   0.423959 0.952845 0.367724 0.214064
C50   C     C_1   0.075590 0.450420 0.632660 0.213439
C51   C     C_1   0.923889 0.452894 0.367538 0.213045
C52   C     C_R   0.214625 0.298717 0.978342 0.017955
C53   C     C_R   0.794268 0.327365 0.026882 0.019118
C54   C     C_R   0.703312 0.844586 0.043505 0.017405
C55   C     C_R   0.289737 0.817060 0.946899 0.024385
C56   C     C_R   0.212869 0.315217 0.054176 0.021429
C57   C     C_R   0.285772 0.332990 0.861387 0.539146
C58   C     C_R   0.795070 0.331321 0.950825 0.023202
C59   C     C_R   0.806107 0.972893 0.038318 -0.159122
C60   C     C_R   0.177614 0.918507 0.948348 -0.149224
C61   C     C_R   0.321088 0.427435 0.049861 -0.146612
C62   C     C_R   0.680037 0.425330 0.949622 -0.147395
C63   C     C_R   0.803678 0.971558 0.965027 -0.160962
C64   C     C_R   0.171052 0.894306 0.020671 -0.159760
C65   C     C_R   0.327212 0.403583 0.977733 -0.162237
C66   C     C_R   0.674624 0.407067 0.022297 -0.167717
C67   C     C_R   0.640279 0.790962 0.934217 -0.089150
C68   C     C_R   0.214114 0.832504 0.138622 0.554417
C69   C     C_R   0.346831 0.745345 0.055837 -0.097624
C70   C     C_R   0.157575 0.235247 0.946701 -0.091693
C71   C     C_R   0.856821 0.290489 0.062595 -0.104156
C72   C     C_R   0.106000 0.182062 0.988748 -0.147634
C73   C     C_R   0.913276 0.244206 0.024479 -0.155921
C74   C     C_R   0.594772 0.719557 0.974021 -0.136870
C75   C     C_R   0.400521 0.695627 0.014950 -0.151614
C76   C     C_R   0.604651 0.705864 0.047642 -0.120460
C77   C     C_R   0.396516 0.697288 0.940627 -0.118978
C78   C     C_R   0.110272 0.186634 0.062992 -0.115448
C79   C     C_R   0.769414 0.875642 0.853844 0.537064
C80   C     C_R   0.909189 0.232678 0.950399 -0.145426
C81   C     C_R   0.658064 0.768385 0.082423 -0.072389
C82   C     C_R   0.341696 0.757222 0.906703 -0.065108
C83   C     C_R   0.163192 0.252399 0.095653 -0.065298
C84   C     C_R   0.850441 0.274832 0.913724 -0.083333
C85   C     C_R   0.557145 0.151720 0.136730 0.545404
C86   C     C_R   0.442495 0.151636 0.863273 0.541935
C87   C     C_R   0.030533 0.655893 0.145707 0.559929
C88   C     C_R   0.937195 0.650965 0.862705 0.563970
C89   C     C_R   0.754087 0.916843 0.078419 -0.003182
C90   C     C_3   0.478521 0.058358 0.034533 -0.090464
C91   C     C_R   0.239564 0.891805 0.912829 0.007145
C92   C     C_R   0.261073 0.394414 0.086857 0.006854
C93   C     C_R   0.741731 0.396170 0.914182 0.005275
C94   C     C_R   0.499548 0.168352 0.575444 0.028271
C95   C     C_R   0.500877 0.168642 0.424751 0.028444
C96   C     C_R   0.999452 0.668329 0.575387 0.028342
C97   C     C_R   0.000785 0.668668 0.424696 0.030628
C98   C     C_R   0.510698 0.062061 0.536316 0.001571
C99   C     C_R   0.489563 0.062426 0.463977 0.001256
C100  C     C_R   0.010519 0.562037 0.536231 0.001472
C101  C     C_3   0.522166 0.059338 0.965417 -0.093678
C102  C     C_R   0.989385 0.562455 0.463893 0.002224
C103  C     C_R   0.506171 0.277457 0.463075 -0.132564
C104  C     C_R   0.494577 0.277412 0.537021 -0.132595
C105  C     C_R   0.006119 0.777464 0.463039 -0.131732
C106  C     C_R   0.994521 0.777409 0.536983 -0.132829
C107  C     C_R   0.534137 0.953371 0.567366 0.022087
C108  C     C_R   0.465709 0.954448 0.433056 0.021147
C109  C     C_R   0.033999 0.453344 0.567230 0.020635
C110  C     C_R   0.965570 0.454482 0.432922 0.022920
C111  C     C_R   0.018219 0.346286 0.532783 -0.164064
C112  C     C_3   0.939186 0.584976 0.045167 -0.112955
C113  C     C_R   0.981002 0.346877 0.467419 -0.163615
C114  C     C_R   0.518302 0.846290 0.532963 -0.163819
C115  C     C_R   0.481087 0.846869 0.467597 -0.163976
C116  C     C_R   0.755726 0.905090 0.568280 0.004746
C117  C     C_R   0.244352 0.905160 0.431604 0.003374
C118  C     C_R   0.255722 0.405095 0.568281 0.002489
C119  C     C_R   0.744333 0.405115 0.431617 0.003586
C120  C     C_R   0.808710 0.960075 0.528077 -0.000669
C121  C     C_R   0.191282 0.960377 0.471750 -0.001070
C122  C     C_R   0.308699 0.460108 0.528085 -0.001290
C123  C     C_3   0.985675 0.547632 0.981425 -0.092971
C124  C     C_R   0.691256 0.460302 0.471770 -0.001168
C125  C     C_R   0.817826 0.924417 0.456738 0.046518
C126  C     C_R   0.182453 0.924917 0.543246 0.046564
C127  C     C_R   0.317826 0.424461 0.456745 0.046702
C128  C     C_R   0.682441 0.424840 0.543269 0.046756
C129  C     C_R   0.700704 0.845403 0.456379 -0.159958
C130  C     C_R   0.299863 0.845881 0.543626 -0.159630
C131  C     C_R   0.200713 0.345397 0.456375 -0.159264
C132  C     C_R   0.799860 0.345852 0.543633 -0.159878
C133  C     C_R   0.742832 0.966995 0.149957 0.542306
C134  C     C_R   0.751668 0.907902 0.927971 -0.008117
C135  C     C_R   0.256246 0.963391 0.848355 0.541358
C136  C     C_R   0.243886 0.463928 0.151669 0.545123
C137  C     C_R   0.756511 0.463693 0.848321 0.549354
C138  C     C_R   0.702798 0.842198 0.531169 -0.143476
C139  C     C_R   0.297570 0.842318 0.468827 -0.144139
C140  C     C_R   0.202803 0.342187 0.531164 -0.144319
C141  C     C_R   0.797560 0.342289 0.468834 -0.143875
C142  C     C_R   0.852094 0.050094 0.555989 -0.098710
C143  C     C_R   0.147469 0.050324 0.443618 -0.099435
C144  C     C_R   0.352084 0.550113 0.556013 -0.098822
Cl1   Cl    Cl    0.902904 0.882970 0.338321 -0.628102
Cl2   Cl    Cl    0.097553 0.882863 0.661690 -0.621912
Cl3   Cl    Cl    0.402924 0.383036 0.338341 -0.622562
Cl4   Cl    Cl    0.597573 0.382817 0.661745 -0.624889
Cr1   Cr    Cr6+3 0.772820 0.169820 0.252640 1.053254
Cr2   Cr    Cr6+3 0.383280 0.011130 0.749340 1.014531
Cr3   Cr    Cr6+3 0.116720 0.511130 0.250660 1.018003
Cr4   Cr    Cr6+3 0.883280 0.511130 0.749340 1.019697
Cr5   Cr    Cr6+3 0.227180 0.169820 0.747360 1.051316
Cr6   Cr    Cr6+3 0.272820 0.669820 0.252640 1.053845
Cr7   Cr    Cr6+3 0.727180 0.669820 0.747360 1.056124
Cr8   Cr    Cr6+3 0.615040 0.323610 0.249150 1.047150
Cr9   Cr    Cr6+3 0.384960 0.323610 0.750850 1.046153
Cr10  Cr    Cr6+3 0.115040 0.823610 0.249150 1.045954
Cr11  Cr    Cr6+3 0.884960 0.823610 0.750850 1.050947
Cr12  Cr    Cr6+3 0.616720 0.011130 0.250660 1.020291
H1    H     H_    0.627887 0.158530 0.994846 0.117344
H2    H     H_    0.965678 0.265020 0.441111 0.102600
H3    H     H_    0.533297 0.763974 0.559344 0.103193
H4    H     H_    0.465706 0.765019 0.441319 0.102638
H5    H     H_    0.653811 0.816534 0.428460 0.139468
H6    H     H_    0.346920 0.817069 0.571559 0.139256
H7    H     H_    0.153825 0.316516 0.428451 0.139353
H8    H     H_    0.846923 0.317057 0.571562 0.139172
H9    H     H_    0.841345 0.093796 0.606755 0.146748
H10   H     H_    0.157937 0.093942 0.392686 0.147309
H11   H     H_    0.341327 0.593807 0.606779 0.147825
H12   H     H_    0.371641 0.155060 0.005306 0.118193
H13   H     H_    0.657908 0.593896 0.392727 0.147742
H14   H     H_    0.662753 0.793349 0.559627 0.153591
H15   H     H_    0.337671 0.793312 0.440402 0.152727
H16   H     H_    0.162759 0.293320 0.559616 0.153098
H17   H     H_    0.837666 0.293306 0.440401 0.153053
H18   H     H_    0.938899 0.159553 0.539696 0.110870
H19   H     H_    0.060180 0.159655 0.459707 0.111517
H20   H     H_    0.438931 0.659497 0.539779 0.110857
H21   H     H_    0.560204 0.659686 0.459806 0.111675
H22   H     H_    0.968788 0.064629 0.419822 0.132168
H23   H     H_    0.101349 0.599018 0.014859 0.124920
H24   H     H_    0.030675 0.064227 0.579750 0.132080
H25   H     H_    0.468816 0.564640 0.419884 0.132176
H26   H     H_    0.530708 0.564237 0.579840 0.132030
H27   H     H_    0.536257 0.339965 0.934771 0.122636
H28   H     H_    0.461076 0.338231 0.065637 0.124975
H29   H     H_    0.049420 0.798009 0.933454 0.133529
H30   H     H_    0.966152 0.867300 0.053430 0.116739
H31   H     H_    0.461110 0.975846 0.063362 0.147870
H32   H     H_    0.540074 0.978046 0.935938 0.142815
H33   H     H_    0.906875 0.524782 0.078988 0.134470
H34   H     H_    0.855474 0.721595 0.996438 0.125496
H35   H     H_    0.992154 0.454514 0.960309 0.149703
H36   H     H_    0.847702 0.024217 0.063427 0.158073
H37   H     H_    0.135262 0.965114 0.920989 0.141210
H38   H     H_    0.362137 0.478739 0.075804 0.143810
H39   H     H_    0.636979 0.469771 0.921976 0.146217
H40   H     H_    0.627719 0.803266 0.878020 0.149376
H41   H     H_    0.355220 0.736549 0.112490 0.172483
H42   H     H_    0.149365 0.223927 0.890235 0.176397
H43   H     H_    0.866207 0.301625 0.119163 0.161549
H44   H     H_    0.846015 0.015823 0.937456 0.159263
H45   H     H_    0.518281 0.361105 0.436038 0.175998
H46   H     H_    0.122247 0.918750 0.046090 0.139954
H47   H     H_    0.374617 0.433016 0.951568 0.144322
H48   H     H_    0.625272 0.429752 0.047202 0.138873
H49   H     H_    0.063826 0.132572 0.963460 0.093674
H50   H     H_    0.959973 0.215641 0.052908 0.115391
H51   H     H_    0.552249 0.673359 0.947357 0.100658
H52   H     H_    0.444235 0.651142 0.041334 0.097485
H53   H     H_    0.072411 0.139282 0.095438 0.108667
H54   H     H_    0.951747 0.192155 0.920986 0.109418
H55   H     H_    0.570434 0.647612 0.078073 0.106387
H56   H     H_    0.482519 0.361099 0.563958 0.175992
H57   H     H_    0.435887 0.652095 0.908975 0.104838
H58   H     H_    0.664833 0.753848 0.139583 0.137763
H59   H     H_    0.339375 0.753464 0.848648 0.138771
H60   H     H_    0.165895 0.250980 0.153737 0.137547
H61   H     H_    0.848386 0.261201 0.856199 0.136604
H62   H     H_    0.018284 0.861105 0.436019 0.176320
H63   H     H_    0.982515 0.861101 0.563937 0.175963
H64   H     H_    0.033270 0.263977 0.559134 0.103279
N1    N     N_1   0.608251 0.948836 0.685534 -0.275667
N2    N     N_1   0.391133 0.952235 0.315193 -0.261742
N3    N     N_1   0.108246 0.448797 0.685298 -0.257735
N4    N     N_1   0.891129 0.452295 0.314962 -0.275011
O1    O     O_R   0.788190 0.043000 0.172520 -0.509386
O2    O     O_R   0.454170 0.051610 0.669840 -0.511335
O3    O     O_R   0.045830 0.551610 0.330160 -0.514950
O4    O     O_R   0.954170 0.551610 0.669840 -0.512370
O5    O     O_R   0.681920 0.959720 0.327070 -0.519016
O6    O     O_R   0.318080 0.959720 0.672930 -0.519613
O7    O     O_R   0.181920 0.459720 0.327070 -0.519975
O8    O     O_R   0.818080 0.459720 0.672930 -0.521703
O9    O     O_3   0.668190 0.168190 0.250820 -0.297479
O10   O     O_3   0.331810 0.168190 0.749180 -0.300357
O11   O     O_3   0.168190 0.668190 0.250820 -0.287882
O12   O     O_R   0.211810 0.043000 0.827480 -0.522213
O13   O     O_3   0.831810 0.668190 0.749180 -0.289500
O14   O     O_R   0.766240 0.292300 0.176860 -0.509683
O15   O     O_R   0.233760 0.292300 0.823140 -0.506666
O16   O     O_R   0.266240 0.792300 0.176860 -0.510442
O17   O     O_R   0.733760 0.792300 0.823140 -0.506437
O18   O     O_R   0.670310 0.409160 0.168720 -0.522262
O19   O     O_R   0.329690 0.409160 0.831280 -0.516569
O20   O     O_R   0.170310 0.909160 0.168720 -0.514657
O21   O     O_R   0.829690 0.909160 0.831280 -0.533057
O22   O     O_R   0.556160 0.251900 0.173380 -0.497754
O23   O     O_R   0.288190 0.543000 0.172520 -0.520553
O24   O     O_R   0.443840 0.251900 0.826620 -0.499407
O25   O     O_R   0.056160 0.751900 0.173380 -0.510142
O26   O     O_R   0.943840 0.751900 0.826620 -0.484198
O27   O     O_R   0.545410 0.050140 0.168240 -0.504445
O28   O     O_R   0.454590 0.050140 0.831760 -0.507379
O29   O     O_R   0.045410 0.550140 0.168240 -0.511462
O30   O     O_R   0.954590 0.550140 0.831760 -0.505188
O31   O     O_R   0.681530 0.958350 0.176970 -0.527645
O32   O     O_R   0.318470 0.958350 0.823030 -0.530308
O33   O     O_R   0.181530 0.458350 0.176970 -0.518700
O34   O     O_R   0.711810 0.543000 0.827480 -0.501416
O35   O     O_R   0.818470 0.458350 0.823030 -0.533414
O36   O     O_R   0.788610 0.044480 0.334450 -0.467231
O37   O     O_R   0.211390 0.044480 0.665550 -0.467801
O38   O     O_R   0.288610 0.544480 0.334450 -0.468580
O39   O     O_R   0.711390 0.544480 0.665550 -0.468526
O40   O     O_R   0.766630 0.293670 0.326970 -0.483353
O41   O     O_R   0.233370 0.293670 0.673030 -0.482248
O42   O     O_R   0.266630 0.793670 0.326970 -0.483671
O43   O     O_R   0.733370 0.793670 0.673030 -0.487083
O44   O     O_R   0.670730 0.410640 0.330640 -0.522897
O45   O     O_R   0.556550 0.253260 0.323480 -0.465266
O46   O     O_R   0.329270 0.410640 0.669360 -0.522101
O47   O     O_R   0.170730 0.910640 0.330640 -0.523000
O48   O     O_R   0.829270 0.910640 0.669360 -0.526130
O49   O     O_R   0.443450 0.253260 0.676520 -0.465031
O50   O     O_R   0.056550 0.753260 0.323480 -0.469867
O51   O     O_R   0.943450 0.753260 0.676520 -0.465593
O52   O     O_R   0.545830 0.051610 0.330160 -0.511087

loop_
_geom_bond_atom_site_label_1
_geom_bond_atom_site_label_2
_ccdc_geom_bond_type
C52   C70   A    
C57   O19   A    
C26   O52   A    
C114  C115  A    
C27   O49   A    
C135  O32   A    
C45   C87   S    
C71   H43   S    
C84   H61   S    
C4    C142  A    
C95   C99   A    
C5    C143  A    
C105  H62   S    
C10   H25   S    
C5    H19   S    
C38   C45   S    
C131  C140  A    
C23   O47   A    
C38   H30   S    
C46   C55   A    
C138  H14   S    
Cr1   O9    S    
C97   C105  A    
C137  O34   A    
C94   C104  A    
C100  C109  A    
C15   C127  A    
C17   C30   S    
C117  C139  A    
C20   C132  A    
C118  C140  A    
C19   C32   S    
C35   C134  A    
C31   O6    A    
C75   H52   S    
C85   O27   A    
C43   C85   S    
C104  H56   S    
C67   H40   S    
Cr9   O46   S    
C71   C73   A    
C7    H21   S    
C120  C125  A    
Cr2   O6    S    
C36   H28   S    
C37   C38   S    
C47   C123  S    
C53   C58   A    
C120  C142  A    
C111  C113  A    
C67   C74   A    
C33   O8    A    
C20   C33   S    
Cr4   O35   S    
C119  C141  A    
C18   C130  A    
C53   C71   A    
C56   C83   A    
C22   C118  S    
C136  O33   A    
C29   O4    A    
C14   C126  A    
C80   H54   S    
C44   C101  S    
Cr4   O8    S    
Cr8   O9    S    
C29   O51   A    
C59   C63   A    
Cr2   O2    S    
C74   H51   S    
C60   C64   A    
C21   C119  S    
C9    H24   S    
C76   H55   S    
C77   H57   S    
C77   C82   A    
C111  H64   S    
C30   O5    A    
Cr9   O49   S    
C61   C65   A    
Cr9   O10   S    
C98   C99   A    
C62   C93   A    
C51   N4    T    
C41   C45   S    
C18   C31   S    
Cr11  O26   S    
Cr6   O42   S    
C54   C81   A    
C21   O44   A    
C28   C97   S    
C70   H42   S    
C23   O42   A    
Cr11  O51   S    
Cr12  O52   S    
C87   O29   A    
Cr10  O47   S    
C68   O20   A    
C99   C108  A    
C144  H11   S    
C74   C76   A    
C108  C115  A    
C62   H39   S    
C25   O48   A    
C2    C68   S    
C109  C111  A    
C48   C107  S    
C13   C57   S    
C86   O28   A    
C118  C122  A    
C122  C127  A    
C42   C112  S    
C72   C78   A    
Cr3   O3    S    
C82   H59   S    
C72   H49   S    
C37   C47   S    
C131  H7    S    
C95   C103  A    
C49   C108  S    
Cr7   O17   S    
C89   C133  S    
Cr12  O9    S    
C62   C66   A    
C34   C39   S    
Cr11  O21   S    
C25   C116  S    
Cr12  O31   S    
C116  C120  A    
C12   Cl1   S    
C5    C9    A    
C106  H63   S    
C110  C113  A    
C35   C67   A    
C8    C12   A    
Cr3   O7    S    
C75   C77   A    
C25   O43   A    
C22   O41   A    
Cr5   O15   S    
C6    C144  A    
Cr3   O29   S    
C132  C141  A    
C79   C134  S    
C6    H20   S    
C103  H45   S    
C143  H10   S    
C4    H18   S    
C27   C94   S    
C23   C117  S    
C29   C96   S    
C65   H47   S    
C24   C66   A    
Cr1   O1    S    
Cr4   O13   S    
Cr8   O18   S    
C18   C126  A    
C96   C100  A    
C34   C36   S    
C37   C41   S    
C34   H27   S    
C1    O14   A    
C40   C44   S    
C1    C24   S    
Cr4   O4    S    
C31   O37   A    
C11   H26   S    
C80   C84   A    
Cr5   O10   S    
C141  H17   S    
Cr11  O48   S    
C79   O17   A    
C58   C93   A    
C3    C7    A    
Cr8   O22   S    
Cr10  O50   S    
C94   C98   A    
C135  O12   A    
C55   C91   A    
C21   O40   A    
C78   C83   A    
Cr1   O14   S    
C97   C102  A    
C61   C92   A    
C88   O30   A    
Cr10  O11   S    
C124  C128  A    
C35   C54   A    
C123  H35   S    
C50   N3    T    
C92   C136  S    
C130  C139  A    
C78   H53   S    
C86   O24   A    
Cr6   O16   S    
C43   C90   S    
C63   C134  A    
C112  C123  S    
C88   O26   A    
C12   C125  A    
C24   C53   A    
C64   H46   S    
C50   C109  S    
C98   C107  A    
Cr5   O37   S    
C9    C14   A    
C107  C114  A    
C26   O45   A    
C13   C52   A    
C66   H48   S    
C11   C16   A    
C130  H6    S    
C27   O2    A    
Cr9   O19   S    
Cr8   O45   S    
C60   H37   S    
C142  H9    S    
C137  O35   A    
C51   C110  S    
Cr12  O5    S    
C102  C110  A    
C40   H12   S    
C3    C124  A    
Cr12  O27   S    
C8    H22   S    
Cr5   O12   S    
C61   H38   S    
C6    C10   A    
Cr7   O43   S    
C20   C128  A    
Cr8   O44   S    
C59   H36   S    
Cr3   O11   S    
C105  C106  A    
C129  H5    S    
C1    O18   A    
C57   O15   A    
C15   Cl3   S    
C48   N1    T    
C69   C75   A    
C133  O1    A    
Cr3   O33   S    
Cr4   O30   S    
C133  O31   A    
C91   C135  S    
C103  C104  A    
C41   H23   S    
C36   C43   S    
Cr1   O40   S    
C40   C90   S    
Cr11  O13   S    
C22   O46   A    
C32   O7    A    
C37   H29   S    
C69   H41   S    
C121  C143  A    
C139  H15   S    
C122  C144  A    
C4    C8    A    
C101  H32   S    
C45   C112  S    
C13   C65   A    
C119  C124  A    
C2    C46   A    
C7    C11   A    
C33   O39   A    
C38   C42   S    
C10   C15   A    
C59   C89   A    
Cr6   O23   S    
C115  H4    S    
C42   H34   S    
C117  C121  A    
C46   C69   A    
Cr2   O32   S    
C113  H2    S    
Cr7   O34   S    
C3    H13   S    
C129  C138  A    
Cr2   O10   S    
C136  O23   A    
C32   O38   A    
C39   H1    S    
Cr1   O36   S    
C140  H16   S    
C85   O22   A    
C79   O21   A    
Cr10  O20   S    
C44   C86   S    
C2    C64   A    
C39   C101  S    
C116  C138  A    
C90   H31   S    
C19   C131  A    
C63   H44   S    
C17   C129  A    
C73   H50   S    
C36   C40   S    
C34   C44   S    
C54   C89   A    
C87   O25   A    
C39   C43   S    
Cr6   O11   S    
C90   C101  S    
C58   C84   A    
Cr2   O28   S    
C100  C102  A    
C55   C82   A    
C16   C128  A    
C28   O3    A    
Cr9   O24   S    
Cr7   O13   S    
C60   C91   A    
C26   C95   S    
C96   C106  A    
Cr5   O41   S    
C132  H8    S    
Cr6   O38   S    
C76   C81   A    
C28   O50   A    
C14   Cl2   S    
C16   Cl4   S    
C47   C88   S    
C41   C123  S    
Cr10  O25   S    
C121  C126  A    
C83   H60   S    
C17   C125  A    
C114  H3    S    
C68   O16   A    
C81   H58   S    
C19   C127  A    
C73   C80   A    
C30   O36   A    
C42   C47   S    
C112  H33   S    
C93   C137  S    
C56   C92   A    
C70   C72   A    
C49   N2    T    
Cr7   O39   S    
C52   C56   A    
