data_mof_unit_67348.cif
_audit_creation_date              2013-03-05T16:08:11-0500
_audit_creation_method            fapswitch 2.2
_symmetry_space_group_name_H-M    P1
_symmetry_Int_Tables_number       1
_space_group_crystal_system       triclinic
_cell_length_a                    19.936372
_cell_length_b                    22.959587
_cell_length_c                    8.863253
_cell_angle_alpha                 89.95909
_cell_angle_beta                  104.67951
_cell_angle_gamma                 89.91709
_cell_volume                      3924.55162042

loop_
_atom_site_label
_atom_site_type_symbol
_atom_site_description
_atom_site_fract_x
_atom_site_fract_y
_atom_site_fract_z
_atom_type_partial_charge
P1    P     P_3+3 0.853370 0.434890 0.996520 0.481268
P2    P     P_3+3 0.853370 0.565110 0.496520 0.504259
P3    P     P_3+3 0.353370 0.934890 0.996520 0.481358
P4    P     P_3+3 0.353370 0.065110 0.496520 0.485915
O1    O     O_2   0.860260 0.414960 0.826400 -0.375008
O2    O     O_2   0.860260 0.585040 0.326400 -0.349570
O3    O     O_2   0.360260 0.914960 0.826400 -0.377636
O4    O     O_2   0.360260 0.085040 0.326400 -0.372950
O5    O     O_3   0.918600 0.470180 0.098890 -0.418299
O6    O     O_3   0.918600 0.529820 0.598890 -0.423146
O7    O     O_3   0.418600 0.970180 0.098890 -0.415648
O8    O     O_3   0.418600 0.029820 0.598890 -0.415967
O9    O     O_3   0.975750 0.362410 0.628650 -0.337355
O10   O     O_3   0.975750 0.637590 0.128650 -0.324201
O11   O     O_3   0.475750 0.862410 0.628650 -0.336162
O12   O     O_3   0.475750 0.137590 0.128650 -0.329264
O13   O     O_2   0.862415 0.318378 0.664151 -0.354263
O14   O     O_2   0.859650 0.678423 0.160872 -0.305403
O15   O     O_2   0.362505 0.817894 0.663209 -0.355204
O16   O     O_2   0.362824 0.182815 0.169942 -0.355136
O17   O     O_3   0.781339 0.480941 0.948279 -0.511017
O18   O     O_3   0.781419 0.519173 0.449006 -0.521975
O19   O     O_3   0.281032 0.980615 0.948409 -0.512885
O20   O     O_3   0.281340 0.019322 0.448530 -0.510156
O21   O     O_3   0.951479 0.237207 0.635908 -0.595333
O22   O     O_3   0.950989 0.760289 0.155803 -0.549483
O23   O     O_3   0.452316 0.737428 0.635629 -0.589106
O24   O     O_3   0.450999 0.262329 0.131835 -0.597444
C1    C     C_3   0.025998 0.151913 0.642745 -0.106789
C2    C     C_3   0.024825 0.846304 0.170276 -0.123811
C3    C     C_3   0.527221 0.652599 0.642911 -0.104186
C4    C     C_3   0.525662 0.346982 0.131336 -0.109832
P5    P     P_3+3 0.146350 0.434230 0.693140 0.704063
P6    P     P_3+3 0.146350 0.565770 0.193140 0.705137
P7    P     P_3+3 0.646350 0.934230 0.693140 0.703832
P8    P     P_3+3 0.646350 0.065770 0.193140 0.707263
P9    P     P_3+3 0.084599 0.307659 0.124611 0.664764
P10   P     P_3+3 0.085950 0.692040 0.614806 0.668228
P11   P     P_3+3 0.585332 0.808109 0.125287 0.665837
P12   P     P_3+3 0.585012 0.192286 0.623116 0.667247
O25   O     O_2   0.139400 0.414340 0.863230 -0.260928
O26   O     O_2   0.139400 0.585660 0.363230 -0.253177
O27   O     O_2   0.639400 0.914340 0.863230 -0.257848
O28   O     O_2   0.639400 0.085660 0.363230 -0.256964
O29   O     O_3   0.023740 0.362300 0.060930 -0.367971
O30   O     O_3   0.023740 0.637700 0.560930 -0.300409
O31   O     O_3   0.523740 0.862300 0.060930 -0.366907
O32   O     O_3   0.523740 0.137700 0.560930 -0.362849
O33   O     O_2   0.134871 0.314177 0.019045 -0.219535
O34   O     O_2   0.138668 0.675745 0.521774 -0.201820
O35   O     O_2   0.635411 0.815137 0.019365 -0.217514
O36   O     O_2   0.635812 0.183539 0.519592 -0.214318
O37   O     O_3   0.227282 0.469921 0.715507 -0.554137
O38   O     O_3   0.227052 0.528778 0.222231 -0.550343
O39   O     O_3   0.726840 0.971127 0.718302 -0.551331
O40   O     O_3   0.726785 0.028418 0.220825 -0.548906
O41   O     O_3   0.042915 0.241598 0.063661 -0.477430
O42   O     O_3   0.046434 0.753563 0.509907 -0.491164
O43   O     O_3   0.544662 0.741572 0.065439 -0.479565
O44   O     O_3   0.545782 0.258913 0.555541 -0.478445
C5    C     C_3   0.970883 0.249540 0.012913 0.173246
C6    C     C_3   0.010504 0.785012 0.598809 0.142853
C7    C     C_3   0.472569 0.748882 0.013931 0.169200
C8    C     C_3   0.473346 0.255039 0.522106 0.177721
H1    H     H_    0.958115 0.279178 0.910825 0.147274
H2    H     H_    0.991244 0.756337 0.676817 0.168004
H3    H     H_    0.459740 0.776990 0.908827 0.148206
H4    H     H_    0.454027 0.221018 0.432615 0.130243
H5    H     H_    0.949333 0.267919 0.106367 0.106758
H6    H     H_    0.044994 0.819612 0.660520 0.179919
H7    H     H_    0.450729 0.768886 0.105006 0.107241
H8    H     H_    0.455369 0.244872 0.627179 0.127544
C9    C     C_3   0.937672 0.190321 0.964180 0.301891
C10   C     C_3   0.945588 0.815237 0.501339 0.288957
C11   C     C_3   0.439946 0.688948 0.972335 0.305732
C12   C     C_3   0.442374 0.313336 0.455213 0.302128
C13   C     C_3   0.244600 0.471846 0.274508 0.947768
C14   C     C_3   0.247126 0.525146 0.776494 0.952544
C15   C     C_3   0.745121 0.972016 0.276865 0.953991
C16   C     C_3   0.745079 0.027140 0.775876 0.946543
C17   C     C_3   0.323011 0.465052 0.284807 -0.566291
C18   C     C_3   0.325005 0.530778 0.780931 -0.574306
C19   C     C_3   0.822839 0.965053 0.281915 -0.565716
C20   C     C_3   0.823164 0.034225 0.782679 -0.553378
H9    H     H_    0.341390 0.419805 0.311905 0.258134
H10   H     H_    0.345030 0.575298 0.812471 0.264999
H11   H     H_    0.841054 0.919801 0.310328 0.265905
H12   H     H_    0.841091 0.079694 0.806369 0.263012
Ba1   Ba    Ba6+2 0.999900 0.457470 0.844900 1.763777
Ba2   Ba    Ba6+2 0.999900 0.542530 0.344900 1.789450
Ba3   Ba    Ba6+2 0.499900 0.957470 0.844900 1.759585
Ba4   Ba    Ba6+2 0.499900 0.042530 0.344900 1.763052
C21   C     C_3   0.801659 0.537365 0.919732 0.270737
C22   C     C_3   0.801678 0.462794 0.419629 0.259771
C23   C     C_3   0.300877 0.037145 0.919809 0.266395
C24   C     C_3   0.301453 0.962742 0.420827 0.264457
H13   H     H_    0.834812 0.556432 0.028344 0.105892
H14   H     H_    0.834790 0.443395 0.528027 0.109843
H15   H     H_    0.334280 0.056248 0.028094 0.108147
H16   H     H_    0.334255 0.943594 0.529916 0.108791
C25   C     C_3   0.736770 0.575447 0.865136 -0.103113
C26   C     C_3   0.736764 0.424942 0.364184 -0.095856
C27   C     C_3   0.235681 0.074976 0.866477 -0.099468
C28   C     C_3   0.236346 0.925099 0.365600 -0.085296
H17   H     H_    0.716409 0.571044 0.736655 0.137638
H18   H     H_    0.717285 0.428850 0.235348 0.138979
H19   H     H_    0.214928 0.070658 0.738079 0.142148
H20   H     H_    0.217710 0.928025 0.236414 0.137383
O45   O     O_3   0.081330 0.529680 0.090830 -0.328656
O46   O     O_3   0.081330 0.470320 0.590830 -0.326130
O47   O     O_3   0.581330 0.029680 0.090830 -0.324232
O48   O     O_3   0.581330 0.970320 0.590830 -0.324958
P13   P     P_3+3 0.914443 0.692717 0.070544 0.601035
P14   P     P_3+3 0.915228 0.306939 0.566279 0.535054
P15   P     P_3+3 0.414232 0.192634 0.067622 0.539059
P16   P     P_3+3 0.415366 0.806864 0.565133 0.537633
C29   C     C_3   0.016467 0.218732 0.607185 0.758065
C30   C     C_3   0.016464 0.779848 0.131558 0.831830
C31   C     C_3   0.517590 0.719392 0.607551 0.760503
C32   C     C_3   0.515633 0.279826 0.100464 0.758217
C33   C     C_R   0.135647 0.692995 0.830201 0.229218
C34   C     C_R   0.135725 0.307777 0.335649 0.308256
C35   C     C_R   0.636448 0.192258 0.834649 0.313269
C36   C     C_R   0.636947 0.808379 0.336219 0.320998
C37   C     C_R   0.184719 0.737408 0.898766 -0.074270
C38   C     C_R   0.183845 0.262450 0.403510 -0.125637
C39   C     C_R   0.684526 0.237487 0.902533 -0.121936
C40   C     C_R   0.686454 0.763869 0.403234 -0.125832
C41   C     C_R   0.783898 0.325559 0.044437 -0.120028
C42   C     C_R   0.784318 0.674734 0.546728 -0.077423
C43   C     C_R   0.283609 0.825654 0.041850 -0.117038
C44   C     C_R   0.283165 0.174120 0.545641 -0.119412
C45   C     C_R   0.744444 0.330787 0.892303 -0.149972
C46   C     C_R   0.744552 0.669521 0.394750 -0.129386
C47   C     C_R   0.244643 0.830554 0.888623 -0.119688
C48   C     C_R   0.244100 0.169188 0.393264 -0.146282
C49   C     C_R   0.200768 0.786407 0.813996 0.339436
C50   C     C_R   0.198896 0.212606 0.319584 0.414811
C51   C     C_R   0.699499 0.287325 0.818485 0.405104
C52   C     C_R   0.700679 0.713634 0.319954 0.413793
C53   C     C_R   0.837566 0.366615 0.107053 0.198012
C54   C     C_R   0.837784 0.633313 0.609268 0.257152
C55   C     C_R   0.337325 0.866633 0.105517 0.198937
C56   C     C_R   0.337141 0.133176 0.607946 0.198660
H21   H     H_    0.751229 0.367512 0.821992 0.216907
H22   H     H_    0.750633 0.632423 0.325109 0.209493
H23   H     H_    0.252089 0.866889 0.817779 0.216123
H24   H     H_    0.251221 0.132661 0.322769 0.216822
C57   C     C_R   0.877141 0.358097 0.261888 -0.481849
C58   C     C_R   0.878325 0.642435 0.763593 -0.456530
C59   C     C_R   0.376888 0.858117 0.260372 -0.479998
C60   C     C_R   0.376329 0.141477 0.763238 -0.472689
C61   C     C_R   0.161237 0.637545 0.083842 0.275633
C62   C     C_R   0.159699 0.361826 0.587875 0.295741
C63   C     C_R   0.661282 0.137628 0.086830 0.284237
C64   C     C_R   0.661575 0.862654 0.587737 0.300898
C65   C     C_R   0.213147 0.681266 0.148303 -0.101728
C66   C     C_R   0.211398 0.317868 0.652903 -0.085012
C67   C     C_R   0.713125 0.181360 0.151541 -0.087815
C68   C     C_R   0.714853 0.819777 0.651629 -0.115681
C69   C     C_R   0.220488 0.732892 0.060495 0.104597
C70   C     C_R   0.219301 0.266569 0.564937 0.080722
C71   C     C_R   0.720608 0.232911 0.063726 0.081745
C72   C     C_R   0.723429 0.768854 0.563440 0.039327
C73   C     C_R   0.261819 0.674423 0.294492 0.396630
C74   C     C_R   0.259440 0.324558 0.799474 0.400833
C75   C     C_R   0.761535 0.174456 0.297657 0.394969
C76   C     C_R   0.761897 0.825996 0.799674 0.405053
C77   C     C_R   0.803265 0.220204 0.368708 -0.044902
C78   C     C_R   0.803070 0.779868 0.871733 -0.022674
C79   C     C_R   0.303961 0.719950 0.364963 -0.030908
C80   C     C_R   0.299899 0.278178 0.872113 -0.050300
C81   C     C_R   0.811688 0.270508 0.288070 -0.087459
C82   C     C_R   0.812875 0.730249 0.789709 -0.071770
C83   C     C_R   0.311773 0.770450 0.285259 -0.091260
C84   C     C_R   0.309415 0.228316 0.790551 -0.085608
C85   C     C_R   0.771503 0.276738 0.132575 0.078530
C86   C     C_R   0.773383 0.724446 0.633430 0.083825
C87   C     C_R   0.271320 0.776776 0.129739 0.067783
C88   C     C_R   0.269954 0.222490 0.634316 0.096920
C89   C     C_R   0.863943 0.311729 0.355129 0.250506
C90   C     C_R   0.865515 0.689240 0.856789 0.203321
C91   C     C_R   0.363932 0.811663 0.353266 0.248038
C92   C     C_R   0.362273 0.187376 0.857157 0.234004
C93   C     C_R   0.124440 0.645392 0.925408 -0.216821
C94   C     C_R   0.123080 0.354399 0.430345 -0.278477
C95   C     C_R   0.624712 0.145169 0.929257 -0.266529
C96   C     C_R   0.624229 0.854848 0.431046 -0.278652
H25   H     H_    0.917548 0.388941 0.312549 0.167093
H26   H     H_    0.918640 0.611407 0.814359 0.156581
H27   H     H_    0.417208 0.889005 0.311257 0.167283
H28   H     H_    0.417120 0.110802 0.813694 0.169784
H29   H     H_    0.086669 0.612744 0.872920 0.145525
H30   H     H_    0.084987 0.386927 0.377717 0.156035
H31   H     H_    0.586773 0.112626 0.876836 0.157007
H32   H     H_    0.585394 0.886929 0.379213 0.153683
N1    N     N_R   0.075288 0.247394 0.714510 0.190994
O49   O     O_R   0.132651 0.219216 0.773888 -0.426057
O50   O     O_R   0.074862 0.302849 0.735976 -0.362785
N2    N     N_R   0.075613 0.750418 0.235530 0.223721
O51   O     O_R   0.134315 0.777701 0.284444 -0.410856
O52   O     O_R   0.076975 0.694345 0.242363 -0.337565
N3    N     N_R   0.576215 0.748186 0.715375 0.192355
O53   O     O_R   0.634054 0.720352 0.772625 -0.424804
O54   O     O_R   0.575928 0.803761 0.734942 -0.361960
N4    N     N_R   0.574972 0.251703 0.208937 0.194213
O55   O     O_R   0.631962 0.280302 0.267869 -0.426293
O56   O     O_R   0.574924 0.196527 0.235273 -0.352905
H33   H     H_    0.353928 0.492708 0.379879 0.251088
H34   H     H_    0.356325 0.501051 0.870298 0.258758
H35   H     H_    0.854799 0.993270 0.374107 0.258384
H36   H     H_    0.855375 0.007800 0.879086 0.252072
H37   H     H_    0.335116 0.478316 0.174483 0.266884
H38   H     H_    0.334330 0.519137 0.666502 0.256100
H39   H     H_    0.833240 0.977719 0.169304 0.261258
H40   H     H_    0.834340 0.019921 0.672048 0.265866
H41   H     H_    0.830416 0.536673 0.827621 0.033698
H42   H     H_    0.830496 0.463700 0.327643 0.042495
H43   H     H_    0.329170 0.036601 0.826886 0.042319
H44   H     H_    0.330532 0.963159 0.329314 0.041417
H45   H     H_    0.750357 0.621861 0.891064 0.097493
H46   H     H_    0.750047 0.378560 0.392142 0.102452
H47   H     H_    0.249021 0.121401 0.892532 0.102017
H48   H     H_    0.249115 0.878817 0.396486 0.105248
N5    N     N_R   0.683178 0.558565 0.942651 0.322986
O57   O     O_R   0.622388 0.542383 0.860419 -0.262519
O58   O     O_R   0.697519 0.555249 0.094035 -0.307496
N6    N     N_R   0.682379 0.442562 0.438652 0.324206
O59   O     O_R   0.621988 0.458709 0.353807 -0.247196
O60   O     O_R   0.695582 0.446425 0.589803 -0.301335
N7    N     N_R   0.182571 0.057781 0.945036 0.322094
O61   O     O_R   0.121648 0.041532 0.863698 -0.266549
O62   O     O_R   0.197335 0.054673 0.096478 -0.304573
N8    N     N_R   0.181373 0.944102 0.436779 0.320678
O63   O     O_R   0.121751 0.960772 0.349253 -0.271054
O64   O     O_R   0.193347 0.948626 0.587632 -0.311209
N9    N     N_R   0.020163 0.229110 0.445765 0.198569
O65   O     O_R   0.005559 0.279977 0.382801 -0.510073
O66   O     O_R   0.056641 0.194162 0.382370 -0.395333
N10   N     N_R   0.021847 0.771011 0.972758 0.177376
O67   O     O_R   0.062466 0.805824 0.921659 -0.502542
O68   O     O_R   0.014241 0.718700 0.916396 -0.529759
N11   N     N_R   0.521627 0.729969 0.446466 0.200614
O69   O     O_R   0.506466 0.780718 0.383116 -0.508382
O70   O     O_R   0.558427 0.695233 0.383310 -0.398831
N12   N     N_R   0.517871 0.267194 0.939485 0.182090
O71   O     O_R   0.550487 0.302314 0.867529 -0.412564
O72   O     O_R   0.506622 0.214649 0.886125 -0.522572
H49   H     H_    0.073000 0.135188 0.610836 0.169543
H50   H     H_    0.072168 0.864221 0.142713 0.184221
H51   H     H_    0.574033 0.635830 0.610293 0.169397
H52   H     H_    0.571647 0.363003 0.094078 0.170710
H53   H     H_    0.037166 0.143381 0.769739 0.157735
H54   H     H_    0.035007 0.854001 0.296772 0.137827
H55   H     H_    0.538776 0.644161 0.769891 0.153391
H56   H     H_    0.538822 0.356127 0.258256 0.167219
N13   N     N_R   0.956217 0.148738 0.092829 0.294865
O73   O     O_R   0.935588 0.157340 0.218629 -0.277447
O74   O     O_R   0.990219 0.101455 0.079092 -0.241844
N14   N     N_R   0.918093 0.851362 0.606031 0.247334
O75   O     O_R   0.906599 0.827396 0.729711 -0.385107
O76   O     O_R   0.921798 0.907806 0.598184 -0.293011
N15   N     N_R   0.455913 0.650703 0.108381 0.296365
O77   O     O_R   0.431991 0.662859 0.227969 -0.298428
O78   O     O_R   0.490913 0.602886 0.107519 -0.233209
N16   N     N_R   0.469760 0.362670 0.556617 0.282492
O79   O     O_R   0.455726 0.368565 0.690937 -0.223821
O80   O     O_R   0.502760 0.404205 0.506112 -0.263045
N17   N     N_R   0.183616 0.789458 0.648039 0.247809
O81   O     O_R   0.224425 0.762735 0.577658 -0.300433
O82   O     O_R   0.150627 0.835083 0.580226 -0.365847
N18   N     N_R   0.176035 0.205686 0.154997 0.262287
O83   O     O_R   0.135435 0.162015 0.101858 -0.273937
O84   O     O_R   0.217684 0.223292 0.072987 -0.326597
N19   N     N_R   0.677089 0.294021 0.653641 0.262619
O85   O     O_R   0.717805 0.274432 0.571626 -0.316751
O86   O     O_R   0.638031 0.338572 0.599372 -0.273252
N20   N     N_R   0.679129 0.707452 0.154955 0.262296
O87   O     O_R   0.639362 0.663674 0.098367 -0.281714
O88   O     O_R   0.720949 0.726734 0.075343 -0.329739
H57   H     H_    0.836878 0.211370 0.481677 0.225585
H58   H     H_    0.835227 0.787791 0.987173 0.211821
H59   H     H_    0.338052 0.711001 0.477358 0.226547
H60   H     H_    0.332584 0.286534 0.986580 0.222203
N21   N     N_R   0.287261 0.618823 0.349488 0.249530
O89   O     O_R   0.338518 0.597567 0.301561 -0.258969
O90   O     O_R   0.278685 0.600530 0.480878 -0.350763
N22   N     N_R   0.289263 0.379705 0.844801 0.249275
O91   O     O_R   0.340862 0.396038 0.790353 -0.261907
O92   O     O_R   0.281812 0.403634 0.971273 -0.362382
N23   N     N_R   0.787816 0.118736 0.349598 0.250153
O93   O     O_R   0.838714 0.098295 0.298938 -0.259819
O94   O     O_R   0.779086 0.098542 0.479038 -0.356409
N24   N     N_R   0.785847 0.881601 0.857377 0.250803
O95   O     O_R   0.835337 0.905677 0.809130 -0.252996
O96   O     O_R   0.776635 0.898543 0.988766 -0.357903
N25   N     N_R   0.966536 0.117441 0.563558 0.295065
O97   O     O_R   0.911905 0.117480 0.617689 -0.349635
O98   O     O_R   0.974890 0.075593 0.471058 -0.215521
N26   N     N_R   0.965255 0.880074 0.087362 0.286883
O99   O     O_R   0.908150 0.877197 0.131469 -0.353114
O100  O     O_R   0.972861 0.920758 0.990839 -0.217973
N27   N     N_R   0.467537 0.618127 0.564678 0.295240
O101  O     O_R   0.413165 0.618106 0.619833 -0.344104
O102  O     O_R   0.475422 0.576493 0.471113 -0.206104
N28   N     N_R   0.465541 0.381794 0.056685 0.295061
O103  O     O_R   0.411569 0.380322 0.113074 -0.350394
O104  O     O_R   0.473693 0.426190 0.971845 -0.219340
N29   N     N_R   0.862697 0.195773 0.908928 0.201108
O105  O     O_R   0.835274 0.216357 0.770788 -0.334068
O106  O     O_R   0.822976 0.169849 0.982595 -0.357878
N30   N     N_R   0.892961 0.773471 0.424178 0.247812
O107  O     O_R   0.903121 0.717814 0.445159 -0.361474
O108  O     O_R   0.835987 0.791984 0.329642 -0.323147
N31   N     N_R   0.365302 0.693946 0.909452 0.203796
O109  O     O_R   0.340591 0.713061 0.768713 -0.320662
O110  O     O_R   0.323513 0.669221 0.980052 -0.354272
N32   N     N_R   0.367298 0.311341 0.421464 0.207041
O111  O     O_R   0.331392 0.290448 0.289554 -0.340405
O112  O     O_R   0.336649 0.323489 0.529953 -0.370511
H61   H     H_    0.957115 0.173668 0.867749 0.097504
H62   H     H_    0.958299 0.843411 0.412917 0.090167
H63   H     H_    0.461546 0.669530 0.881950 0.094922
H64   H     H_    0.456336 0.320118 0.345904 0.102385
N33   N     N_R   0.233656 0.464852 0.423807 0.167289
O113  O     O_R   0.266408 0.422258 0.507385 -0.397772
O114  O     O_R   0.171560 0.478041 0.430474 -0.409376
N34   N     N_R   0.238394 0.529189 0.928853 0.171610
O115  O     O_R   0.275247 0.567981 0.019356 -0.384302
O116  O     O_R   0.175881 0.518959 0.937262 -0.414549
N35   N     N_R   0.736629 0.966595 0.428610 0.170032
O117  O     O_R   0.769992 0.924262 0.513070 -0.412573
O118  O     O_R   0.674829 0.980002 0.436821 -0.410208
N36   N     N_R   0.735506 0.031596 0.927084 0.168066
O119  O     O_R   0.771073 0.071113 0.017072 -0.389881
O120  O     O_R   0.673354 0.019655 0.935067 -0.410578
N37   N     N_R   0.204443 0.427182 0.175930 0.224856
O121  O     O_R   0.230139 0.374803 0.192113 -0.354898
O122  O     O_R   0.137509 0.431676 0.142461 -0.336439
N38   N     N_R   0.207509 0.572063 0.686631 0.223649
O123  O     O_R   0.140565 0.567467 0.647624 -0.344338
O124  O     O_R   0.233317 0.624051 0.715511 -0.342266
N39   N     N_R   0.704176 0.926287 0.184601 0.224548
O125  O     O_R   0.728450 0.873646 0.211981 -0.374298
O126  O     O_R   0.637396 0.932173 0.145508 -0.336139
N40   N     N_R   0.704528 0.073054 0.682739 0.223426
O127  O     O_R   0.637651 0.068064 0.645623 -0.338905
O128  O     O_R   0.729782 0.125434 0.704954 -0.354231

loop_
_geom_bond_atom_site_label_1
_geom_bond_atom_site_label_2
_geom_bond_distance
_ccdc_geom_bond_type
C44   C56   1.428897 A    
C17   H33   1.109876 S    
O18   C22   1.399551 S    
O8    Ba3   2.887323 S    
N23   O93   1.296678 A    
P6    O26   1.614657 D    
C13   N37   1.450875 S    
N37   O121  1.300010 A    
N27   O102  1.301111 A    
C50   N18   1.422871 S    
N3    O54   1.288015 A    
O40   C15   1.401056 S    
P11   O31   1.738025 S    
C62   C66   1.451957 A    
O20   C24   1.399098 S    
C9    N13   1.460177 S    
P16   C91   1.900865 S    
C6    H6    1.102098 S    
C47   C49   1.392941 A    
P2    Ba2   3.548918 S    
O10   Ba2   2.862206 S    
C1    N25   1.451251 S    
N18   O83   1.300821 A    
P2    O18   1.745337 S    
C23   H43   1.109981 S    
O4    Ba4   2.913799 S    
C1    H53   1.107895 S    
P4    O8    1.602744 S    
O28   Ba4   2.919047 S    
C55   C59   1.412327 A    
C29   N9    1.470422 S    
C25   H17   1.112549 S    
C42   C46   1.384404 A    
N8    O64   1.301533 A    
N6    O59   1.300759 A    
C7    H3    1.107972 S    
O1    Ba1   2.916575 S    
C46   H22   1.076824 S    
C11   N15   1.459281 S    
C52   N20   1.423182 S    
P3    C55   1.909841 S    
N38   O123  1.295566 A    
C21   C25   1.533310 S    
C49   N17   1.424891 S    
N4    O55   1.302600 A    
C9    N29   1.455373 S    
C12   H64   1.084875 S    
C24   H44   1.110136 S    
P11   C36   1.891858 S    
C58   H26   1.081928 S    
C14   C18   1.548708 S    
N27   O101  1.297154 A    
P8    O47   1.611712 S    
N28   O103  1.296673 A    
C3    H51   1.112946 S    
C41   C45   1.383201 A    
N34   O116  1.289126 A    
C7    H7    1.109157 S    
C45   C51   1.390370 A    
N17   O82   1.299186 A    
P8    O28   1.614657 D    
C45   H21   1.077002 S    
P9    O29   1.735535 S    
O12   P15   1.747068 S    
C43   C55   1.431024 A    
N26   O99   1.295781 A    
C26   H46   1.109564 S    
C83   C91   1.423381 A    
C78   C82   1.391827 A    
P6    C61   1.971564 S    
P12   O32   1.740924 S    
C57   H25   1.082052 S    
C20   H12   1.106800 S    
O5    Ba2   2.891810 S    
P4    C56   1.919625 S    
Ba4   O47   3.105786 S    
O41   C5    1.403408 S    
C10   N14   1.451554 S    
P14   C89   1.894594 S    
O43   C7    1.403204 S    
O44   C8    1.401678 S    
O37   C14   1.396583 S    
P5    O25   1.614163 D    
C60   H28   1.082084 S    
C63   C95   1.412536 A    
O21   P14   1.798795 S    
O39   C16   1.398121 S    
C2    N26   1.451129 S    
O17   C21   1.399752 S    
C67   C75   1.414054 A    
C77   H57   1.073312 S    
C68   C76   1.413757 A    
P10   C33   1.915266 S    
P3    O7    1.605300 S    
O11   Ba3   2.865353 S    
C5    H1    1.108356 S    
C22   C26   1.533996 S    
N21   O90   1.289276 A    
C27   H19   1.112534 S    
C11   N31   1.455118 S    
P8    C63   1.959540 S    
C1    H49   1.113074 S    
C73   C79   1.387838 A    
O25   Ba1   2.916236 S    
C74   C80   1.390096 A    
P12   O44   1.751651 S    
C12   N16   1.464042 S    
C30   N2    1.463680 S    
C82   C90   1.421777 A    
P15   C92   1.894382 S    
C16   N36   1.404553 S    
C75   C77   1.389200 A    
C62   C94   1.412652 A    
C14   N34   1.407750 S    
C8    H4    1.111096 S    
C25   N5    1.461732 S    
N23   O94   1.289246 A    
C34   C94   1.421820 A    
C40   C72   1.429231 A    
N30   O107  1.299364 A    
C21   H41   1.110257 S    
N13   O73   1.297641 A    
C73   N21   1.412931 S    
N33   O114  1.289861 A    
N32   O112  1.293620 A    
N40   O128  1.300154 A    
C17   H37   1.107473 S    
O6    Ba1   2.887323 S    
O19   C23   1.399007 S    
C11   H63   1.095807 S    
C69   C87   1.451700 A    
P7    O27   1.614163 D    
C70   C88   1.450371 A    
O38   C13   1.400460 S    
C27   H47   1.109158 S    
C28   N8    1.462503 S    
N9    O65   1.294558 A    
N25   O98   1.301115 A    
C51   N19   1.423570 S    
C32   N12   1.467877 S    
O14   P13   1.544621 D    
C23   C27   1.533634 S    
N29   O106  1.292485 A    
C27   N7    1.461603 S    
C6    H2    1.092512 S    
C63   C67   1.452151 A    
C14   N38   1.447759 S    
C64   C68   1.452344 A    
C10   N30   1.458837 S    
O24   C32   1.442924 S    
C65   C73   1.416748 A    
Ba3   Ba4   4.841584 S    
C36   C96   1.420375 A    
N36   O119  1.295517 A    
C2    C30   1.564021 S    
O2    Ba2   2.913799 S    
Ba1   O46   3.105929 S    
O26   Ba2   2.919047 S    
N22   O92   1.290529 A    
Ba3   O48   3.105929 S    
C33   C37   1.438276 A    
P5    Ba1   3.550416 S    
C35   C39   1.438952 A    
C44   C48   1.382307 A    
C26   N6    1.461725 S    
C3    N27   1.452038 S    
C48   H24   1.076661 S    
N16   O80   1.301190 A    
C44   C88   1.423289 A    
N2    O52   1.288722 A    
C47   H23   1.076626 S    
N39   O126  1.294780 A    
P2    C54   1.924952 S    
C21   H13   1.110938 S    
C72   C86   1.448884 A    
C30   N10   1.452793 S    
N12   O71   1.300264 A    
C94   H30   1.081846 S    
O22   C30   1.447555 S    
N34   O115  1.296428 A    
O16   P15   1.547625 D    
C10   H62   1.094201 S    
C59   C91   1.410504 A    
C3    H55   1.106987 S    
C40   C52   1.435947 A    
C74   N22   1.414174 S    
C56   C60   1.413131 A    
N14   O75   1.297607 A    
C7    C11   1.527812 S    
O15   P16   1.547324 D    
C1    C29   1.567526 S    
C24   H16   1.110813 S    
N10   O67   1.298847 A    
N5    O58   1.301229 A    
C67   C71   1.444639 A    
N1    O49   1.302193 A    
C42   C54   1.429951 A    
P9    O41   1.749344 S    
P10   O30   1.740104 S    
C84   C88   1.415192 A    
N18   O84   1.299086 A    
O32   Ba4   2.866068 S    
C77   C81   1.390377 A    
N20   O87   1.300723 A    
P5    O46   1.609114 S    
Ba2   O45   3.105786 S    
C28   H48   1.110126 S    
C17   H9    1.106842 S    
P7    O48   1.609114 S    
C80   C84   1.392578 A    
C18   H34   1.109260 S    
O42   C6    1.393086 S    
C19   H11   1.107669 S    
P11   O35   1.542569 D    
N19   O85   1.299252 A    
C16   C20   1.551346 S    
N6    O60   1.301323 A    
N15   O77   1.298092 A    
C58   C90   1.417639 A    
C4    N28   1.451823 S    
P1    O1    1.614786 D    
C68   C72   1.440711 A    
C78   H58   1.076621 S    
N38   O124  1.300183 A    
P3    O3    1.614786 D    
N24   O95   1.294990 A    
P4    O20   1.744607 S    
N4    O56   1.288018 A    
C41   C53   1.429688 A    
C22   H14   1.110998 S    
C23   H15   1.111064 S    
C75   N23   1.413530 S    
N11   O69   1.294736 A    
P3    Ba3   3.549871 S    
C42   C86   1.423442 A    
P10   O42   1.761835 S    
C71   C85   1.450676 A    
N28   O104  1.300848 A    
C2    H54   1.102039 S    
O29   Ba1   2.862933 S    
C82   C86   1.415666 A    
O9    P14   1.746669 S    
C36   C40   1.438878 A    
O9    Ba1   2.865353 S    
P8    Ba4   3.551395 S    
C76   C78   1.390741 A    
C81   C89   1.422713 A    
N31   O109  1.295554 A    
N17   O81   1.297605 A    
C57   C89   1.412559 A    
N37   O122  1.295473 A    
N26   O100  1.300942 A    
C64   C96   1.411344 A    
C16   N40   1.450640 S    
C31   N3    1.467453 S    
C84   C92   1.422537 A    
Ba4   O48   2.886003 S    
C5    C9    1.527112 S    
C18   H10   1.107874 S    
C41   C85   1.423078 A    
N35   O117  1.300850 A    
N21   O89   1.296816 A    
P8    O40   1.778605 S    
O24   P15   1.793039 S    
P9    O33   1.542018 D    
C13   C17   1.550270 S    
P11   O43   1.749087 S    
C4    H56   1.108726 S    
N14   O76   1.300941 A    
C15   N39   1.450102 S    
P1    O5    1.605300 S    
N7    O62   1.301143 A    
C3    C31   1.566772 S    
O12   Ba4   2.862206 S    
O23   C31   1.445545 S    
N8    O63   1.300791 A    
C65   C69   1.445340 A    
C28   H20   1.112570 S    
C66   C74   1.413744 A    
C25   H45   1.109684 S    
C39   C71   1.431208 A    
O31   Ba3   2.862933 S    
C37   C69   1.433716 A    
C19   H39   1.108351 S    
C20   H36   1.109348 S    
O30   Ba2   2.866068 S    
O10   P13   1.742596 S    
C76   N24   1.413626 S    
C37   C49   1.433226 A    
C54   C58   1.417266 A    
N1    O50   1.287829 A    
O22   P13   1.798536 S    
C15   C19   1.546728 S    
N39   O125  1.300841 A    
N30   O108  1.299481 A    
C15   N35   1.402958 S    
C61   C65   1.452314 A    
N33   O113  1.297484 A    
P1    C53   1.916248 S    
P9    C34   1.889800 S    
O11   P16   1.747736 S    
C6    C10   1.527331 S    
Ba1   Ba2   4.841584 S    
P4    Ba4   3.548918 S    
N3    O53   1.302448 A    
P1    O17   1.745479 S    
N25   O97   1.296634 A    
P3    O19   1.745585 S    
P4    O4    1.614290 D    
C53   C57   1.412257 A    
N29   O105  1.296344 A    
N19   O86   1.300436 A    
C43   C47   1.387581 A    
C46   C52   1.390283 A    
N36   O120  1.288769 A    
C12   N32   1.450892 S    
Ba1   O45   2.890486 S    
C22   H42   1.110250 S    
Ba3   O47   2.890486 S    
C18   H38   1.109248 S    
O7    Ba4   2.891810 S    
N2    O51   1.302029 A    
N11   O70   1.301816 A    
C60   C92   1.414431 A    
O23   P16   1.799027 S    
C59   H27   1.082060 S    
O3    Ba3   2.916575 S    
P2    O2    1.614290 D    
C39   C51   1.437299 A    
C4    C32   1.570333 S    
C79   H59   1.073635 S    
O13   P14   1.546778 D    
P5    O37   1.776543 S    
N12   O72   1.295102 A    
N31   O110  1.293440 A    
P7    O39   1.779100 S    
P7    C64   1.951919 S    
C48   C50   1.389457 A    
C43   C87   1.422147 A    
P5    C62   1.957434 S    
C83   C87   1.416862 A    
P12   O36   1.542281 D    
C79   C83   1.386629 A    
O27   Ba3   2.916236 S    
C2    H50   1.112477 S    
N13   O74   1.301062 A    
C34   C38   1.438372 A    
P6    Ba2   3.551395 S    
N32   O111  1.298868 A    
P13   C90   1.900273 S    
C81   C85   1.414741 A    
N10   O68   1.295382 A    
N5    O57   1.300785 A    
C8    C12   1.528145 S    
N35   O118  1.289340 A    
N9    O66   1.301711 A    
N20   O88   1.299153 A    
Ba2   O46   2.886003 S    
P2    O6    1.602744 S    
C29   N1    1.466582 S    
C5    H5    1.108645 S    
P12   C35   1.895330 S    
C38   C50   1.437471 A    
P1    Ba1   3.549871 S    
C95   H31   1.081780 S    
C13   N33   1.403777 S    
C93   H29   1.081627 S    
O21   C29   1.445380 S    
P6    O38   1.778167 S    
P10   O34   1.537209 D    
C9    H61   1.093109 S    
C4    H52   1.113137 S    
C32   N4    1.470116 S    
N22   O91   1.297759 A    
C24   C28   1.534017 S    
N15   O78   1.301062 A    
N24   O96   1.284536 A    
N40   O127  1.295083 A    
C61   C93   1.421153 A    
C26   H18   1.112575 S    
C8    H8    1.104239 S    
C35   C95   1.423256 A    
N16   O79   1.297244 A    
C66   C70   1.443248 A    
C33   C93   1.432307 A    
C80   H60   1.075319 S    
C96   H32   1.081957 S    
N7    O61   1.300770 A    
P6    O45   1.611712 S    
C38   C70   1.429505 A    
C31   N11   1.470263 S    
C19   H35   1.109704 S    
C20   H40   1.109041 S    
P7    Ba3   3.550416 S    
