data_mof_unit_55174.cif
_audit_creation_date              2012-12-10T17:33:09-0500
_audit_creation_method            fapswitch 2.2
_symmetry_space_group_name_H-M    P1
_symmetry_Int_Tables_number       1
_space_group_crystal_system       triclinic
_cell_length_a                    12.116114
_cell_length_b                    12.835565
_cell_length_c                    13.61879
_cell_angle_alpha                 93.326074
_cell_angle_beta                  79.699149
_cell_angle_gamma                 94.338507
_cell_volume                      2075.71035592

loop_
_atom_site_label
_atom_site_type_symbol
_atom_type_description
_atom_site_fract_x
_atom_site_fract_y
_atom_site_fract_z
_atom_type_partial_charge
C1    C     C_R   0.523294 0.699933 0.491717 0.840540
C2    C     C_R   0.147831 0.478361 0.444342 0.532403
C3    C     C_R   0.969320 0.523589 0.543909 -0.313294
C4    C     C_R   0.027642 0.469050 0.461558 -0.309739
C5    C     C_R   0.480576 0.502427 0.686737 0.892660
C6    C     C_R   0.519251 0.496450 0.313256 0.887558
C7    C     C_1   0.530655 0.482969 0.208881 -0.202061
C8    C     C_1   0.467214 0.507438 0.791478 -0.174020
C9    C     C_2   0.530509 0.460494 0.017996 -0.164760
C10   C     C_2   0.457336 0.514386 0.983933 -0.156112
C11   C     C_1   0.459249 0.511561 0.879840 0.001179
C12   C     C_R   0.477957 0.299281 0.498895 0.873019
C13   C     C_1   0.534351 0.470702 0.121208 -0.013021
C14   C     C_R   0.466882 0.186833 0.487999 -0.053560
C15   C     C_R   0.538533 0.810107 0.471996 -0.054172
C16   C     C_R   0.655002 0.970499 0.451005 -0.222692
C17   C     C_R   0.353330 0.025442 0.481066 -0.226493
C18   C     C_R   0.645190 0.862743 0.456935 -0.216986
C19   C     C_R   0.361309 0.133448 0.493745 -0.205973
C20   C     C_R   0.443186 0.863593 0.467766 -0.290423
C21   C     C_R   0.565028 0.132532 0.468945 -0.270944
C22   C     C_3   0.227382 0.544819 0.294185 0.165960
C23   C     C_R   0.451033 0.971080 0.467840 0.196995
C24   C     C_3   0.129478 0.565646 0.242620 -0.407552
C25   C     C_3   0.158596 0.657904 0.174792 -0.989937
C26   C     C_3   0.799040 0.702779 0.587158 0.165990
C27   C     C_3   0.880635 0.779299 0.633479 -0.335454
C28   C     C_3   0.866964 0.891991 0.610580 -1.039482
C29   C     C_3   0.188717 0.690615 0.730090 0.125656
C30   C     C_3   0.213523 0.781875 0.659833 -0.378749
C31   C     C_3   0.172616 0.883287 0.713345 -0.963416
C32   C     C_3   0.819582 0.323929 0.254432 0.133315
C33   C     C_3   0.870273 0.414194 0.187530 -0.343667
C34   C     C_R   0.557701 0.025005 0.461267 0.177804
C35   C     C_3   0.954904 0.373737 0.099049 -0.950982
C36   C     C_3   0.993237 0.229460 0.384867 0.082162
C37   C     C_3   0.071642 0.213865 0.458404 -0.317186
C38   C     C_3   0.045996 0.106896 0.503690 -1.023304
C39   C     C_3   0.932998 0.528170 0.777071 0.135035
C40   C     C_3   0.835478 0.570466 0.852866 -0.294797
C41   C     C_3   0.823657 0.522239 0.953757 -1.019669
C42   C     C_R   0.964670 0.404411 0.400087 0.350127
C43   C     C_R   0.028817 0.563113 0.620031 0.313410
C44   C     C_R   0.845670 0.414469 0.409190 0.387658
C45   C     C_R   0.148464 0.562195 0.605281 0.416343
C46   C     C_R   0.852227 0.534945 0.548969 0.530461
H1    H     H_    0.400226 0.563777 0.033023 0.145463
H2    H     H_    0.250631 0.615597 0.339780 0.110668
H3    H     H_    0.109563 0.494759 0.197016 0.267635
H4    H     H_    0.054775 0.583983 0.299160 0.202462
H5    H     H_    0.179366 0.730014 0.218837 0.266721
H6    H     H_    0.085343 0.670935 0.139367 0.270616
H7    H     H_    0.231109 0.641804 0.114960 0.262353
H8    H     H_    0.714096 0.731547 0.612340 0.173168
H9    H     H_    0.820076 0.705586 0.504097 0.091113
H10   H     H_    0.864887 0.772900 0.715868 0.252898
H11   H     H_    0.968344 0.761121 0.602384 0.237698
H12   H     H_    0.588564 0.411840 0.968881 0.164225
H13   H     H_    0.886508 0.901947 0.528698 0.269984
H14   H     H_    0.925873 0.944968 0.647008 0.283279
H15   H     H_    0.779852 0.913985 0.639819 0.277443
H16   H     H_    0.247649 0.703399 0.784141 0.141022
H17   H     H_    0.105537 0.692751 0.778548 0.180530
H18   H     H_    0.305708 0.792048 0.635503 0.235029
H19   H     H_    0.172837 0.766315 0.593160 0.199442
H20   H     H_    0.080165 0.875578 0.738920 0.271634
H21   H     H_    0.192555 0.948389 0.661593 0.267985
H22   H     H_    0.214688 0.902606 0.778807 0.264945
H23   H     H_    0.647545 0.173282 0.463226 0.177826
H24   H     H_    0.748662 0.285914 0.221011 0.137079
H25   H     H_    0.876028 0.259990 0.251572 0.154822
H26   H     H_    0.801996 0.450408 0.159719 0.218721
H27   H     H_    0.912795 0.476515 0.229336 0.208694
H28   H     H_    0.019074 0.330268 0.125464 0.287764
H29   H     H_    0.999909 0.439983 0.056701 0.261464
H30   H     H_    0.911108 0.321028 0.048611 0.258363
H31   H     H_    0.006049 0.166927 0.324795 0.151321
H32   H     H_    0.903667 0.218279 0.422386 0.121239
H33   H     H_    0.159775 0.220846 0.418098 0.246033
H34   H     H_    0.361360 0.822538 0.470023 0.150687
H35   H     H_    0.060853 0.274675 0.520079 0.207739
H36   H     H_    0.956494 0.098596 0.540450 0.275812
H37   H     H_    0.099030 0.098840 0.560972 0.267360
H38   H     H_    0.062967 0.043623 0.444899 0.269982
H39   H     H_    0.003783 0.512758 0.815069 0.149098
H40   H     H_    0.902390 0.453225 0.742088 0.123494
H41   H     H_    0.849602 0.656596 0.864529 0.226964
H42   H     H_    0.755696 0.554847 0.823368 0.242263
H43   H     H_    0.812635 0.435670 0.945784 0.272191
H44   H     H_    0.749934 0.552344 0.004769 0.278662
H45   H     H_    0.285811 0.175212 0.509730 0.169112
H46   H     H_    0.899213 0.546133 0.987012 0.274250
H47   H     H_    0.720353 0.821546 0.450950 0.148749
H48   H     H_    0.737598 0.011282 0.443078 0.135162
H49   H     H_    0.271169 0.984363 0.486055 0.145712
H50   H     H_    0.300925 0.532112 0.234367 0.171574
N1    N     N_R   0.206090 0.519450 0.517820 -0.208912
N2    N     N_R   0.793910 0.480550 0.482180 -0.194587
O1    O     O_R   0.421240 0.658850 0.504760 -0.621123
O2    O     O_3   0.795823 0.600481 0.622347 -0.595719
O3    O     O_3   0.209054 0.591246 0.681482 -0.607229
O4    O     O_3   0.774249 0.355463 0.353928 -0.617193
O5    O     O_3   0.018774 0.327024 0.339066 -0.606696
O6    O     O_3   0.970044 0.605577 0.707189 -0.647859
O7    O     O_R   0.578760 0.341150 0.495240 -0.580718
O8    O     O_R   0.609960 0.646370 0.493320 -0.643408
O9    O     O_R   0.390040 0.353630 0.506680 -0.617193
O10   O     O_R   0.392060 0.507120 0.646890 -0.544938
O11   O     O_R   0.607940 0.492880 0.353110 -0.574441
O12   O     O_R   0.580780 0.494630 0.635450 -0.583078
O13   O     O_R   0.419220 0.505370 0.364550 -0.600847
O14   O     O_3   0.205549 0.452853 0.350066 -0.573696
Zn1   Zn    Zn3+2 0.373990 0.508340 0.507630 0.988849
Zn2   Zn    Zn3+2 0.626010 0.491660 0.492370 0.990508

loop_
_geom_bond_atom_site_label_1
_geom_bond_atom_site_label_2
_ccdc_geom_bond_type
C31   H20   S    
C22   H2    S    
C29   H17   S    
C35   H28   S    
C30   H18   S    
C38   H37   S    
C15   C18   A    
C6    O13   A    
C41   H43   S    
C42   O5    S    
C1    O1    A    
C39   O6    S    
C31   H21   S    
C37   H33   S    
C2    O14   S    
C26   C27   S    
C29   C30   S    
O8    Zn2   S    
C36   O5    S    
C14   C21   A    
C36   C37   S    
C25   H7    S    
C36   H31   S    
C30   C31   S    
N2    Zn2   S    
C5    O12   A    
C9    H12   S    
C9    C13   S    
C43   O6    S    
O9    Zn1   S    
C33   H26   S    
C16   C34   A    
C44   N2    A    
C2    N1    A    
C17   H49   S    
C9    C10   D    
O12   Zn2   S    
C1    O8    A    
C28   H15   S    
C41   H44   S    
C46   N2    A    
C26   H9    S    
C37   H35   S    
C15   C20   A    
C42   C44   A    
C26   H8    S    
C32   H25   S    
C28   H14   S    
C24   H4    S    
C31   H22   S    
C35   H30   S    
C20   H34   S    
O7    Zn2   S    
C24   C25   S    
C27   H11   S    
C39   C40   S    
C44   O4    S    
C27   H10   S    
C17   C19   A    
C32   H24   S    
C21   C34   A    
C21   H23   S    
O10   Zn1   S    
C2    C4    A    
C25   H5    S    
C37   C38   S    
C5    C8    S    
C20   C23   A    
C23   C34   A    
C3    C43   A    
C29   O3    S    
O13   Zn1   S    
C17   C23   A    
C43   C45   A    
C45   O3    S    
O11   Zn2   S    
C1    C15   S    
C33   H27   S    
C40   C41   S    
C12   C14   S    
C22   O14   S    
C6    O11   A    
C32   O4    S    
C39   H39   S    
N1    Zn1   S    
C3    C4    A    
C27   C28   S    
C40   H41   S    
C28   H13   S    
C24   H3    S    
C46   O2    S    
C29   H16   S    
C38   H38   S    
C22   H50   S    
C14   C19   A    
C35   H29   S    
O1    Zn1   S    
C12   O9    A    
C6    C7    S    
C3    C46   A    
C16   H48   S    
C32   C33   S    
C40   H42   S    
C25   H6    S    
C45   N1    A    
C12   O7    A    
C4    C42   A    
C8    C11   T    
C33   C35   S    
C22   C24   S    
C30   H19   S    
C19   H45   S    
C10   C11   S    
C7    C13   T    
C41   H46   S    
C16   C18   A    
C10   H1    S    
C18   H47   S    
C36   H32   S    
C39   H40   S    
C38   H36   S    
C26   O2    S    
C5    O10   A    
