data_mof_unit_47991.cif
_audit_creation_date              2012-10-26T20:03:00-0400
_audit_creation_method            fapswitch 2.2
_symmetry_space_group_name_H-M    P1
_symmetry_Int_Tables_number       1
_space_group_crystal_system       triclinic
_cell_length_a                    10.712908
_cell_length_b                    12.317888
_cell_length_c                    13.169479
_cell_angle_alpha                 116.669765
_cell_angle_beta                  77.430252
_cell_angle_gamma                 101.358094
_cell_volume                      1505.88811888

loop_
_atom_site_label
_atom_site_type_symbol
_atom_type_description
_atom_site_fract_x
_atom_site_fract_y
_atom_site_fract_z
_atom_type_partial_charge
C1    C     C_R   0.510781 0.854875 0.286522 0.525901
C2    C     C_R   0.493849 0.566297 0.009473 0.036980
C3    C     C_R   0.457434 0.650216 0.124240 0.025497
C4    C     C_R   0.739832 0.999617 0.500034 0.568603
C5    C     C_R   0.453349 0.439483 0.977102 0.011070
C6    C     C_R   0.366579 0.399466 0.055442 0.062614
C7    C     C_R   0.318921 0.486500 0.162817 -0.117987
C8    C     C_R   0.362088 0.609574 0.195974 -0.129350
C9    C     C_R   0.498547 0.351070 0.869234 -0.126128
C10   C     C_R   0.369935 0.188596 0.912846 -0.099316
C11   C     C_R   0.516108 0.773008 0.163367 -0.002980
C12   C     C_3   0.121848 0.999915 0.500477 0.022797
C13   C     C_R   0.706329 0.347326 0.328968 -0.133938
C14   C     C_R   0.325093 0.759208 0.645260 0.052086
C15   C     C_R   0.287130 0.662466 0.676813 -0.153217
C16   C     C_R   0.480354 0.145119 0.713564 0.572715
C17   C     C_R   0.352815 0.559125 0.622027 -0.132473
C18   C     C_R   0.458087 0.551264 0.534420 -0.001804
C19   C     C_R   0.493602 0.653016 0.505146 0.182734
C20   C     C_R   0.529533 0.446992 0.475083 -0.006459
C21   C     C_R   0.634390 0.447116 0.388319 0.038879
C22   C     C_R   0.667315 0.546867 0.361241 -0.172426
C23   C     C_3   0.075593 0.122605 0.593601 -0.215026
C24   C     C_R   0.598747 0.647324 0.418338 -0.100701
C25   C     C_R   0.502253 0.341809 0.497627 0.048675
C26   C     C_R   0.674716 0.247245 0.355461 0.053172
C27   C     C_R   0.260056 0.000067 0.500010 0.536383
C28   C     C_3   0.955262 0.982558 0.382031 -0.259063
C29   C     C_3   0.099447 0.982625 0.381524 -0.236156
C30   C     C_3   0.931414 0.123589 0.593883 -0.036383
C31   C     C_3   0.897550 0.892740 0.526104 -0.221969
C32   C     C_3   0.877563 0.999779 0.501449 0.047640
C33   C     C_3   0.040237 0.894057 0.527353 -0.230265
C34   C     C_R   0.327517 0.273211 0.023239 0.090536
C35   C     C_R   0.452828 0.227869 0.835056 -0.008542
C36   C     C_R   0.591488 0.815127 0.084011 -0.124626
C37   C     C_R   0.614150 0.736165 0.968567 -0.131063
C38   C     C_R   0.568276 0.612854 0.931420 -0.114203
Cu1   Cu    Cu3+1 0.529690 0.098270 0.475420 0.939072
Cu2   Cu    Cu3+1 0.470310 0.901730 0.524580 0.921485
H1    H     H_    0.943416 0.057375 0.360648 0.141616
H2    H     H_    0.918605 0.894823 0.314164 0.114944
H3    H     H_    0.316647 0.672390 0.277705 0.147035
H4    H     H_    0.729833 0.169893 0.309995 0.126777
H5    H     H_    0.747567 0.547602 0.295074 0.114452
H6    H     H_    0.786637 0.346834 0.262552 0.117735
H7    H     H_    0.424233 0.333648 0.561856 0.115344
H8    H     H_    0.273588 0.839045 0.688316 0.126464
H9    H     H_    0.319302 0.487086 0.649984 0.100787
H10   H     H_    0.206496 0.667613 0.744019 0.113256
H11   H     H_    0.632387 0.718809 0.391361 0.179169
H12   H     H_    0.053154 0.905068 0.613262 0.138242
H13   H     H_    0.132512 0.894825 0.313656 0.121140
H14   H     H_    0.156261 0.057531 0.360100 0.162328
H15   H     H_    0.922176 0.199097 0.572413 0.145048
H16   H     H_    0.132522 0.200338 0.576770 0.117625
H17   H     H_    0.841466 0.899105 0.609891 0.170910
H18   H     H_    0.862671 0.803733 0.458639 0.112351
H19   H     H_    0.072315 0.804452 0.462560 0.128471
H20   H     H_    0.092516 0.135967 0.679035 0.148932
H21   H     H_    0.334604 0.092676 0.886748 0.148744
H22   H     H_    0.247775 0.460891 0.222640 0.153510
H23   H     H_    0.569417 0.375439 0.808929 0.138204
H24   H     H_    0.635444 0.908988 0.111495 0.139272
H25   H     H_    0.590181 0.557334 0.840580 0.106042
H26   H     H_    0.671099 0.769986 0.907803 0.130243
I1    I     I_    0.825225 0.168969 0.764661 -0.429712
I2    I     I_    0.202353 0.201421 0.133695 -0.469632
N1    N     N_R   0.574690 0.246280 0.438200 -0.233895
N2    N     N_R   0.426100 0.754320 0.561190 -0.236350
O1    O     O_R   0.537340 0.972510 0.318130 -0.499573
O2    O     O_R   0.487200 0.806530 0.359650 -0.529338
O3    O     O_R   0.707380 0.082980 0.479220 -0.503429
O4    O     O_R   0.657240 0.917000 0.520740 -0.514455
O5    O     O_R   0.512800 0.193470 0.640350 -0.505338
O6    O     O_R   0.462660 0.027490 0.681870 -0.491641
O7    O     O_R   0.342760 0.083000 0.479260 -0.505494
O8    O     O_R   0.292620 0.917020 0.520780 -0.522547

loop_
_geom_bond_atom_site_label_1
_geom_bond_atom_site_label_2
_ccdc_geom_bond_type
C12   C29   S    
C16   O5    A    
C1    C11   S    
C8    H3    S    
C27   O8    A    
C26   H4    S    
C7    C8    A    
C33   H12   S    
C12   C23   S    
C1    O1    A    
Cu2   N2    S    
Cu1   O7    S    
C31   H18   S    
C36   C37   A    
C16   C35   S    
C5    C6    A    
C20   C25   A    
C28   H1    S    
C18   C20   A    
C18   C19   A    
C15   H10   S    
C31   C33   S    
C10   C35   A    
Cu1   O5    S    
C25   H7    S    
C4    O4    A    
C30   I1    S    
C24   H11   S    
C33   H19   S    
C16   O6    A    
C21   C22   A    
C14   N2    A    
C23   H20   S    
C1    O2    A    
C12   C27   S    
C23   C30   S    
C28   C32   S    
C3    C8    A    
C34   I2    S    
Cu1   Cu2   S    
C14   H8    S    
C6    C34   A    
C11   C36   A    
C7    H22   S    
C5    C9    A    
C37   C38   A    
C2    C38   A    
C31   C32   S    
C38   H25   S    
C37   H26   S    
C17   C18   A    
Cu1   N1    S    
C13   C21   A    
C10   C34   A    
C23   H16   S    
C4    O3    A    
C4    C32   S    
Cu2   O8    S    
C13   C26   A    
C10   H21   S    
C25   N1    A    
C17   H9    S    
C15   C17   A    
C28   C29   S    
Cu2   O2    S    
C9    H23   S    
C27   O7    A    
C6    C7    A    
C30   H15   S    
C31   H17   S    
C2    C3    A    
C30   C32   S    
C13   H6    S    
C29   H13   S    
C28   H2    S    
Cu2   O4    S    
C19   C24   A    
C22   C24   A    
Cu1   O3    S    
C3    C11   A    
C2    C5    A    
Cu2   O6    S    
C22   H5    S    
C20   C21   A    
C29   H14   S    
C9    C35   A    
C26   N1    A    
Cu1   O1    S    
C14   C15   A    
C19   N2    A    
C12   C33   S    
C36   H24   S    
