data_mof_unit_10564.cif
_audit_creation_date              2012-12-10T17:27:57-0500
_audit_creation_method            fapswitch 2.2
_symmetry_space_group_name_H-M    P1
_symmetry_Int_Tables_number       1
_space_group_crystal_system       triclinic
_cell_length_a                    10.648072
_cell_length_b                    12.055117
_cell_length_c                    12.855361
_cell_angle_alpha                 93.848881
_cell_angle_beta                  91.609507
_cell_angle_gamma                 87.062873
_cell_volume                      1643.77460816

loop_
_atom_site_label
_atom_site_type_symbol
_atom_type_description
_atom_site_fract_x
_atom_site_fract_y
_atom_site_fract_z
_atom_type_partial_charge
C1    C     C_R   0.494873 0.522355 0.700162 0.964387
C2    C     C_R   0.520948 0.638224 0.863336 -0.264632
C3    C     C_R   0.467514 0.444647 0.866506 -0.248181
C4    C     C_R   0.739360 0.501707 0.507209 0.968872
C5    C     C_R   0.478702 0.451187 0.973459 0.127316
C6    C     C_R   0.511313 0.552650 0.026520 0.044646
C7    C     C_R   0.524501 0.557473 0.133597 -0.243021
C8    C     C_R   0.471367 0.363631 0.135553 -0.193989
C9    C     C_R   0.459788 0.357003 0.027863 -0.154135
C10   C     C_R   0.395897 0.949521 0.390580 -0.277520
C11   C     C_R   0.405646 0.834709 0.402104 -0.041545
C12   C     C_R   0.942027 0.463456 0.603687 0.048382
C13   C     C_R   0.542069 0.861596 0.550160 0.555786
C14   C     C_R   0.535838 0.978546 0.541290 -0.095514
C15   C     C_R   0.459274 0.023576 0.461204 -0.163363
C16   C     C_R   0.502489 0.477759 0.299669 0.878273
C17   C     C_R   0.451916 0.141465 0.453523 0.550297
C18   C     C_R   0.597772 0.165891 0.595573 -0.229762
C19   C     C_R   0.607352 0.051318 0.608248 0.458838
C20   C     C_R   0.260668 0.499497 0.501648 0.854132
C21   C     C_R   0.886313 0.428607 0.694979 0.393762
C22   C     C_R   0.963091 0.387503 0.776144 -0.365198
C23   C     C_R   0.872128 0.504889 0.517172 -0.071028
C24   C     C_R   0.094025 0.383973 0.770539 0.472839
C25   C     C_R   0.148413 0.421520 0.683305 -0.200058
C26   C     C_R   0.074088 0.460298 0.598995 -0.068347
C27   C     C_3   0.808856 0.015480 0.664416 -0.220962
C28   C     C_3   0.456149 0.819180 0.031642 -0.307594
C29   C     C_R   0.929657 0.547373 0.433560 -0.234605
C30   C     C_R   0.057685 0.545023 0.430440 -0.189009
C31   C     C_R   0.128757 0.499694 0.510676 -0.032893
C32   C     C_R   0.501950 0.464430 0.187976 -0.076156
C33   C     C_R   0.491921 0.536678 0.811615 -0.148983
C34   C     C_R   0.528772 0.647501 0.971559 0.511418
H1    H     H_    0.874927 0.579580 0.368739 0.156429
H2    H     H_    0.101791 0.576520 0.364062 0.146687
H3    H     H_    0.550180 0.634607 0.175111 0.205861
H4    H     H_    0.453479 0.291410 0.177673 0.190145
H5    H     H_    0.298351 0.149949 0.369150 0.310935
H6    H     H_    0.838280 0.102597 0.663376 0.134938
H7    H     H_    0.828964 0.968719 0.588503 0.156499
H8    H     H_    0.866819 0.974763 0.725425 0.197646
H9    H     H_    0.633926 0.740325 0.612665 0.375573
H10   H     H_    0.735839 0.410408 0.773765 0.332113
H11   H     H_    0.118919 0.323200 0.906274 0.333655
H12   H     H_    0.435083 0.279077 0.987316 0.158946
H13   H     H_    0.381219 0.782725 0.075429 0.150025
H14   H     H_    0.419342 0.842244 0.953713 0.177509
H15   H     H_    0.482868 0.896811 0.076174 0.201481
H16   H     H_    0.540992 0.709229 0.820250 0.215126
H17   H     H_    0.443149 0.366558 0.825853 0.196178
H18   H     H_    0.649302 0.222293 0.647805 0.193545
H19   H     H_    0.340728 0.978118 0.324888 0.154052
H20   H     H_    0.356606 0.779052 0.347330 0.149239
H21   H     H_    0.920602 0.360367 0.845081 0.139300
H22   H     H_    0.249785 0.421055 0.683631 0.169175
N1    N     N_R   0.523130 0.207800 0.519340 -0.131683
N2    N     N_R   0.476870 0.792180 0.480660 -0.163196
O1    O     O_R   0.506170 0.421690 0.658830 -0.613014
O2    O     O_3   0.681044 0.012300 0.689679 -0.544485
O3    O     O_3   0.614634 0.819486 0.629921 -0.733471
O4    O     O_3   0.758121 0.439322 0.706590 -0.782861
O5    O     O_3   0.171550 0.346276 0.849850 -0.781468
O6    O     O_3   0.563637 0.746223 0.022711 -0.604947
O7    O     O_R   0.491330 0.609320 0.646410 -0.635753
O8    O     O_R   0.690660 0.406170 0.506210 -0.586655
O9    O     O_R   0.675810 0.593790 0.493790 -0.659738
O10   O     O_R   0.508670 0.390680 0.353590 -0.569409
O11   O     O_R   0.493830 0.578310 0.341170 -0.642070
O12   O     O_R   0.324190 0.406210 0.506210 -0.585637
O13   O     O_R   0.309340 0.593830 0.493790 -0.623524
O14   O     O_3   0.374472 0.193003 0.381724 -0.746800
Zn1   Zn    Zn3+2 0.509910 0.374720 0.508290 1.008578
Zn2   Zn    Zn3+2 0.490090 0.625280 0.491710 0.948622

loop_
_geom_bond_atom_site_label_1
_geom_bond_atom_site_label_2
_ccdc_geom_bond_type
C4    O9    A    
C1    O7    A    
H5    O14   S    
C20   O13   A    
C5    C9    A    
C6    C7    A    
C16   O10   A    
C13   C14   A    
C19   O2    S    
C16   C32   S    
C11   N2    A    
C28   H15   S    
O1    Zn1   S    
C18   N1    A    
C27   H8    S    
C25   H22   S    
C30   H2    S    
C27   H6    S    
C27   O2    S    
C2    C34   A    
O12   Zn1   S    
C34   O6    S    
C12   C21   A    
C7    H3    S    
C22   H21   S    
C18   H18   S    
C9    H12   S    
C28   H13   S    
O9    Zn2   S    
C21   C22   A    
C4    O8    A    
O8    Zn1   S    
C12   C23   A    
C20   O12   A    
C21   O4    S    
C29   C30   A    
C11   H20   S    
C8    H4    S    
C28   O6    S    
C2    C33   A    
C12   C26   A    
C4    C23   S    
C24   O5    S    
C10   C15   A    
C1    O1    A    
O10   Zn1   S    
C13   N2    A    
C5    C6    A    
C22   C24   A    
C10   C11   A    
C3    C33   A    
C1    C33   S    
C8    C32   A    
C23   C29   A    
O11   Zn2   S    
C13   O3    S    
C24   C25   A    
N2    Zn2   S    
C17   O14   S    
C18   C19   A    
C16   O11   A    
N1    Zn1   S    
C15   C17   A    
C10   H19   S    
C27   H7    S    
C30   C31   A    
C28   H14   S    
C3    H17   S    
C7    C32   A    
C2    H16   S    
O13   Zn2   S    
H10   O4    S    
C25   C26   A    
C14   C15   A    
C29   H1    S    
C26   C31   A    
C14   C19   A    
H11   O5    S    
H9    O3    S    
O7    Zn2   S    
C6    C34   A    
C17   N1    A    
C8    C9    A    
C3    C5    A    
C20   C31   S    
