data_mof_unit_38868.cif
_audit_creation_date              2012-12-10T17:50:32-0500
_audit_creation_method            fapswitch 2.2
_symmetry_space_group_name_H-M    P1
_symmetry_Int_Tables_number       1
_space_group_crystal_system       triclinic
_cell_length_a                    15.693011
_cell_length_b                    10.626107
_cell_length_c                    9.951137
_cell_angle_alpha                 89.394838
_cell_angle_beta                  89.641935
_cell_angle_gamma                 91.705106
_cell_volume                      1658.54491479

loop_
_atom_site_label
_atom_site_type_symbol
_atom_type_description
_atom_site_fract_x
_atom_site_fract_y
_atom_site_fract_z
_atom_type_partial_charge
C1    C     C_R   0.501771 0.261059 0.500638 0.855671
C2    C     C_3   0.082656 0.487940 0.501881 0.155773
C3    C     C_3   0.969026 0.431049 0.612471 -0.185901
C4    C     C_3   0.917202 0.491131 0.500041 0.159983
C5    C     C_3   0.028895 0.549556 0.610558 -0.195337
C6    C     C_3   0.975250 0.609585 0.498298 -0.144867
C7    C     C_1   0.173639 0.489221 0.502224 -0.037288
C8    C     C_1   0.826290 0.494362 0.499192 -0.045723
C9    C     C_R   0.651727 0.133702 0.589620 -0.161632
C10   C     C_R   0.723446 0.069079 0.629719 -0.117704
C11   C     C_R   0.722741 0.938216 0.626148 -0.119111
C12   C     C_R   0.338095 0.498356 0.500421 0.875365
C13   C     C_R   0.650253 0.871653 0.582799 -0.148715
C14   C     C_R   0.576487 0.935744 0.542688 0.071921
C15   C     C_R   0.577641 0.067445 0.545743 0.092756
C16   C     C_R   0.504851 0.129078 0.501554 -0.107251
C17   C     C_R   0.433243 0.065493 0.453153 -0.240506
C18   C     C_R   0.430399 0.936148 0.450004 0.094869
C19   C     C_R   0.501887 0.872038 0.497000 -0.110670
C20   C     C_R   0.388690 0.334010 0.142346 -0.123134
C21   C     C_R   0.334308 0.251823 0.073585 -0.187824
C22   C     C_R   0.334471 0.251843 0.934446 -0.182679
C23   C     C_R   0.498539 0.739193 0.499191 0.872183
C24   C     C_R   0.389046 0.334020 0.863134 -0.127045
C25   C     C_R   0.445363 0.418175 0.929254 0.151191
C26   C     C_R   0.445288 0.418206 0.073638 0.121646
C27   C     C_R   0.552431 0.578662 0.068466 0.205225
C28   C     C_R   0.552091 0.578137 0.926097 -0.137080
C29   C     C_R   0.661940 0.500160 0.499652 0.886742
C30   C     C_3   0.970787 0.429398 0.391200 -0.173283
C31   C     C_3   0.030634 0.547895 0.389630 -0.192955
C32   C     C_1   0.249071 0.492983 0.501587 -0.164246
C33   C     C_1   0.750942 0.497375 0.499017 -0.169429
C34   C     C_3   0.024426 0.370157 0.503605 0.203072
H1    H     H_    0.057969 0.595725 0.298752 0.151887
H2    H     H_    0.778675 0.888084 0.656305 0.143461
H3    H     H_    0.653146 0.770216 0.579671 0.139296
H4    H     H_    0.384280 0.328830 0.248989 0.198267
H5    H     H_    0.291620 0.187894 0.128826 0.153870
H6    H     H_    0.291897 0.187964 0.881231 0.158453
H7    H     H_    0.385227 0.329087 0.756540 0.202191
H8    H     H_    0.594545 0.641916 0.870405 0.169666
H9    H     H_    0.944963 0.380107 0.301760 0.159834
H10   H     H_    0.953031 0.707810 0.496067 0.153579
H11   H     H_    0.054827 0.598718 0.700009 0.151517
H12   H     H_    0.941723 0.383038 0.703263 0.154534
H13   H     H_    0.378642 0.117502 0.419362 0.141135
H14   H     H_    0.655176 0.235392 0.592193 0.140570
H15   H     H_    0.779888 0.120728 0.662727 0.149016
N1    N     N_R   0.499210 0.498800 0.142780 -0.140803
N2    N     N_R   0.499180 0.498720 0.857170 -0.134069
O1    O     O_R   0.500000 0.316780 0.614690 -0.638032
O2    O     O_R   0.499990 0.316750 0.385360 -0.628413
O3    O     O_R   0.376780 0.500000 0.614650 -0.630506
O4    O     O_R   0.376770 0.499980 0.385310 -0.639761
O5    O     O_R   0.500010 0.683250 0.614640 -0.620182
O6    O     O_R   0.500000 0.683220 0.385310 -0.592364
O7    O     O_R   0.623230 0.500020 0.614690 -0.624354
O8    O     O_R   0.623220 0.500000 0.385350 -0.573542
Zn1   Zn    Zn3+2 0.500010 0.500020 0.653130 0.937235
Zn2   Zn    Zn3+2 0.499990 0.499980 0.346870 0.967059
C35   C     C_3   0.349025 0.871745 0.400280 -0.424019
C36   C     C_3   0.283001 0.856740 0.514012 -0.353642
C37   C     C_3   0.195152 0.820217 0.459190 -0.833068
H16   H     H_    0.169779 0.899254 0.399098 0.277383
H17   H     H_    0.198892 0.736284 0.394273 0.256854
H18   H     H_    0.150472 0.798436 0.543805 0.257568
H19   H     H_    0.303526 0.782813 0.585712 0.224436
H20   H     H_    0.277902 0.946538 0.569513 0.241073
H21   H     H_    0.322453 0.929212 0.317186 0.210516
H22   H     H_    0.360787 0.778452 0.356286 0.219206
I1    I     I_    0.638910 0.708739 0.157915 -0.337404
I2    I     I_    0.065834 0.180424 0.507892 -0.462467

loop_
_geom_bond_atom_site_label_1
_geom_bond_atom_site_label_2
_ccdc_geom_bond_type
C2    C7    S    
C4    C8    S    
C23   O5    A    
O3    Zn1   S    
C11   H2    S    
C26   N1    A    
C5    C6    S    
C28   N2    A    
O7    Zn1   S    
C15   C16   A    
C29   C33   S    
C35   H21   S    
C18   C19   A    
C1    O2    A    
O1    Zn1   S    
O2    Zn2   S    
C36   H20   S    
C16   C17   A    
C9    C10   A    
C13   H3    S    
C27   N1    A    
C2    C34   S    
C6    C31   S    
C6    H10   S    
C21   C22   A    
C12   C32   S    
C24   H7    S    
O8    Zn2   S    
C30   C34   S    
C37   H18   S    
C29   O8    A    
C24   C25   A    
C4    C6    S    
C18   C35   S    
C3    C34   S    
C25   C26   A    
C5    H11   S    
O5    Zn1   S    
C2    C31   S    
C37   H17   S    
C19   C23   S    
C25   N2    A    
C35   C36   S    
C20   H4    S    
C21   H5    S    
C22   H6    S    
C17   C18   A    
C1    C16   S    
C29   O7    A    
C22   C24   A    
C30   H9    S    
C2    C5    S    
C3    C4    S    
C23   O6    A    
C36   H19   S    
C7    C32   T    
C14   C19   A    
C17   H13   S    
C3    C5    S    
O6    Zn2   S    
C3    H12   S    
C37   H16   S    
C9    C15   A    
C11   C13   A    
C30   C31   S    
C20   C26   A    
O4    Zn2   S    
C28   H8    S    
C35   H22   S    
C31   H1    S    
C8    C33   T    
C1    O1    A    
C12   O3    A    
C12   O4    A    
C10   C11   A    
C34   I2    S    
C36   C37   S    
C20   C21   A    
C9    H14   S    
C27   C28   A    
N1    Zn2   S    
C14   C15   A    
N2    Zn1   S    
C13   C14   A    
C10   H15   S    
C4    C30   S    
C27   I1    S    
