data_mof_unit_13709.cif
_audit_creation_date              2013-03-05T15:47:59-0500
_audit_creation_method            fapswitch 2.2
_symmetry_space_group_name_H-M    P1
_symmetry_Int_Tables_number       1
_space_group_crystal_system       triclinic
_cell_length_a                    26.986747
_cell_length_b                    7.087651
_cell_length_c                    11.998543
_cell_angle_alpha                 90.21362
_cell_angle_beta                  103.922805
_cell_angle_gamma                 88.678163
_cell_volume                      2226.97125724

loop_
_atom_site_label
_atom_site_type_symbol
_atom_site_description
_atom_site_fract_x
_atom_site_fract_y
_atom_site_fract_z
_atom_type_partial_charge
O1    O     O_R   0.437360 0.505910 0.042120 -0.592815
O2    O     O_R   0.562640 0.005910 0.957880 -0.593525
O3    O     O_R   0.542480 0.176660 0.157100 -0.594391
O4    O     O_R   0.457520 0.676660 0.842900 -0.593563
C1    C     C_R   0.556900 0.343433 0.197698 0.919808
C2    C     C_R   0.443225 0.845321 0.802203 0.920539
O5    O     O_R   0.436520 0.176250 0.054800 -0.595946
O6    O     O_R   0.563480 0.676250 0.945200 -0.596448
O7    O     O_R   0.455920 0.005040 0.854840 -0.591932
O8    O     O_R   0.544080 0.505040 0.145160 -0.590706
C3    C     C_R   0.417666 0.346952 0.062620 0.919699
C4    C     C_R   0.582285 0.842503 0.937009 0.920126
O9    O     O_3   0.506490 0.338900 0.934520 -0.281777
O10   O     O_3   0.493510 0.838900 0.065480 -0.281272
V1    V     V_3+5 0.498800 0.064400 0.012150 1.164662
V2    V     V_3+5 0.501200 0.564400 0.987850 1.166608
C5    C     C_R   0.677394 0.785473 0.758084 -0.129484
C6    C     C_R   0.322451 0.436409 0.238639 -0.130274
H1    H     H_    0.595796 0.784520 0.724770 0.106491
H2    H     H_    0.404133 0.426636 0.272799 0.106006
H3    H     H_    0.767919 0.780075 0.715470 0.182151
H4    H     H_    0.231806 0.447458 0.281410 0.180379
H5    H     H_    0.677044 0.758678 0.668868 0.129644
H6    H     H_    0.322867 0.467950 0.327339 0.130625
C7    C     C_R   0.630570 0.841520 0.902853 -0.082271
C8    C     C_R   0.369168 0.364256 0.095588 -0.081391
C9    C     C_R   0.866289 0.879126 0.203183 -0.139196
C10   C     C_R   0.133060 0.322340 0.796883 -0.124099
C11   C     C_R   0.821279 0.874295 0.239158 -0.086213
C12   C     C_R   0.178076 0.317913 0.760504 -0.087270
C13   C     C_R   0.774764 0.859154 0.159676 -0.159884
C14   C     C_R   0.224727 0.339854 0.838840 -0.162227
C15   C     C_R   0.771937 0.848099 0.040464 0.077731
C16   C     C_R   0.227754 0.363355 0.957555 0.077710
C17   C     C_R   0.818512 0.848289 0.002718 -0.062656
C18   C     C_R   0.181279 0.370066 0.995450 -0.061689
C19   C     C_R   0.724069 0.836426 0.957817 0.084514
C20   C     C_R   0.275652 0.377868 0.039843 0.085103
C21   C     C_R   0.723595 0.803644 0.840938 0.124680
C22   C     C_R   0.276158 0.418082 0.156037 0.128170
C23   C     C_R   0.768964 0.796142 0.805998 -0.339490
C24   C     C_R   0.230748 0.429119 0.191032 -0.341486
C25   C     C_R   0.815507 0.828218 0.883037 0.287885
C26   C     C_R   0.184291 0.393115 0.114729 0.285774
C27   C     C_R   0.676357 0.858783 0.986520 -0.240313
C28   C     C_R   0.323319 0.348932 0.011823 -0.239715
C29   C     C_R   0.631163 0.802132 0.789239 -0.193815
C30   C     C_R   0.368690 0.411064 0.208284 -0.194597
C31   C     C_R   0.866028 0.866976 0.086690 -0.177207
C32   C     C_R   0.133603 0.351879 0.912443 -0.172359
H7    H     H_    0.673258 0.889642 0.072654 0.105512
H8    H     H_    0.326326 0.312197 0.926406 0.104791
H9    H     H_    0.901801 0.889188 0.267496 0.184132
H10   H     H_    0.097357 0.304575 0.733812 0.173818
H11   H     H_    0.741730 0.851816 0.194889 0.113094
H12   H     H_    0.257734 0.339959 0.803210 0.114242
H13   H     H_    0.822456 0.881471 0.329941 0.140283
H14   H     H_    0.176805 0.298353 0.670303 0.139743
C33   C     C_R   0.089688 0.857860 0.315158 -0.237970
C34   C     C_R   0.910567 0.364837 0.684585 -0.234237
C35   C     C_R   0.407524 0.855697 0.689185 -0.084026
C36   C     C_R   0.592505 0.347125 0.310999 -0.084727
C37   C     C_R   0.103908 0.851524 0.522028 -0.211805
C38   C     C_R   0.896315 0.364885 0.477685 -0.210977
C39   C     C_R   0.070112 0.866378 0.413666 0.365855
C40   C     C_R   0.930239 0.370191 0.586163 0.363662
C41   C     C_R   0.142457 0.843363 0.326759 -0.081593
C42   C     C_R   0.857772 0.360233 0.672861 -0.080449
C43   C     C_R   0.177396 0.845914 0.435563 0.079181
C44   C     C_R   0.822888 0.353291 0.564080 0.079363
C45   C     C_R   0.157293 0.842170 0.534643 0.029534
C46   C     C_R   0.842962 0.358757 0.464978 0.028202
C47   C     C_R   0.231456 0.853739 0.448352 0.073040
C48   C     C_R   0.768817 0.343854 0.551348 0.074961
C49   C     C_R   0.265055 0.843886 0.560345 0.048111
C50   C     C_R   0.735191 0.351290 0.439285 0.046826
C51   C     C_R   0.243456 0.830736 0.656149 -0.273443
C52   C     C_R   0.756797 0.358889 0.343298 -0.273595
C53   C     C_R   0.190826 0.832178 0.644411 0.029949
C54   C     C_R   0.809409 0.361012 0.355063 0.030845
C55   C     C_R   0.252875 0.879194 0.352918 -0.190998
C56   C     C_R   0.747307 0.323441 0.647088 -0.189475
C57   C     C_R   0.305150 0.891062 0.365835 -0.255007
C58   C     C_R   0.694967 0.316096 0.634455 -0.254028
C59   C     C_R   0.338474 0.877915 0.473954 0.174309
C60   C     C_R   0.661642 0.328389 0.526318 0.174793
C61   C     C_R   0.319192 0.852626 0.572970 0.114641
C62   C     C_R   0.680978 0.347298 0.426884 0.114582
C63   C     C_R   0.391174 0.892413 0.483712 -0.174121
C64   C     C_R   0.608877 0.318836 0.517004 -0.175553
C65   C     C_R   0.425449 0.882614 0.590828 -0.182044
C66   C     C_R   0.574586 0.326109 0.409880 -0.180124
C67   C     C_R   0.355137 0.839324 0.680626 -0.249208
C68   C     C_R   0.644987 0.359613 0.319144 -0.250190
H15   H     H_    0.344110 0.816309 0.759887 0.107509
H16   H     H_    0.656096 0.376530 0.239436 0.107933
H17   H     H_    0.465960 0.895225 0.597039 0.103857
H18   H     H_    0.534066 0.314748 0.403985 0.104212
H19   H     H_    0.319628 0.912114 0.290049 0.152374
H20   H     H_    0.680425 0.299543 0.710541 0.151952
H21   H     H_    0.088070 0.854730 0.596802 0.184402
H22   H     H_    0.912060 0.370656 0.402904 0.186129
H23   H     H_    0.154964 0.828708 0.248367 0.138405
H24   H     H_    0.845196 0.369241 0.751333 0.137258
H25   H     H_    0.266606 0.824263 0.742773 0.138042
H26   H     H_    0.733632 0.360389 0.256618 0.138044
H27   H     H_    0.230228 0.896470 0.266398 0.156094
H28   H     H_    0.769825 0.308070 0.733823 0.152609
H29   H     H_    0.405869 0.912591 0.408195 0.122198
H30   H     H_    0.594150 0.303157 0.592848 0.122312
O11   O     O_R   0.955980 0.206520 0.854760 -0.556557
O12   O     O_R   0.044020 0.706520 0.145240 -0.585991
O13   O     O_R   0.063490 0.536770 0.945200 -0.589300
O14   O     O_R   0.936510 0.036770 0.054800 -0.564823
C69   C     C_R   0.083497 0.366652 0.941321 1.005893
C70   C     C_R   0.916355 0.870335 0.058425 1.013465
O15   O     O_R   0.957530 0.536190 0.842880 -0.543477
O16   O     O_R   0.042470 0.036190 0.157120 -0.521226
O17   O     O_R   0.937350 0.707210 0.042130 -0.610644
O18   O     O_R   0.062650 0.207210 0.957870 -0.580898
C71   C     C_R   0.943955 0.368775 0.801308 1.031391
C72   C     C_R   0.056104 0.866866 0.198657 1.038594
O19   O     O_3   0.993540 0.373870 0.065440 -0.275117
O20   O     O_3   0.006460 0.873870 0.934560 -0.272881
V3    V     V_3+5 0.001200 0.648440 0.987860 1.302121
V4    V     V_3+5 0.998800 0.148440 0.012140 1.327694
N1    N     N_R   0.016364 0.892265 0.405379 0.225739
O21   O     O_R   0.995723 0.818201 0.481959 -0.351659
O22   O     O_R   0.989717 0.013545 0.332758 -0.429241
N2    N     N_R   0.984081 0.386173 0.594343 0.227106
O23   O     O_R   0.004135 0.314761 0.514775 -0.346630
O24   O     O_R   0.011696 0.494966 0.671230 -0.428218
N3    N     N_R   0.857313 0.868137 0.834415 0.221842
O25   O     O_R   0.867574 0.757700 0.755842 -0.417751
O26   O     O_R   0.870965 0.042167 0.836367 -0.443828
N4    N     N_R   0.143496 0.341348 0.163942 0.223068
O27   O     O_R   0.130348 0.449467 0.240161 -0.416382
O28   O     O_R   0.133169 0.163631 0.163067 -0.444467
C73   C     C_1   0.172443 0.824616 0.748199 0.081898
N5    N     N_1   0.157829 0.818852 0.831226 -0.057034
C74   C     C_1   0.827721 0.367836 0.251151 0.081511
N6    N     N_1   0.842268 0.373302 0.168025 -0.057725

loop_
_geom_bond_atom_site_label_1
_geom_bond_atom_site_label_2
_geom_bond_distance
_ccdc_geom_bond_type
C26   N4    1.424222 S    
C53   C73   1.448723 S    
C55   H27   1.076277 S    
C28   H8    1.077866 S    
C9    C11   1.384650 A    
C23   C25   1.391637 A    
O1    C3    1.305716 A    
C37   H21   1.082610 S    
O2    C4    1.310935 A    
C37   C39   1.399752 A    
C2    O7    1.306205 A    
C45   C53   1.408113 A    
C66   H18   1.083534 S    
C21   C23   1.386191 A    
O5    C3    1.313476 A    
C5    H5    1.084323 S    
C48   C50   1.430149 A    
C6    H6    1.084153 S    
C17   C31   1.435999 A    
C39   N1    1.437325 S    
C2    C35   1.463314 S    
C50   C52   1.412214 A    
C40   N2    1.439667 S    
C5    C21   1.403347 A    
O14   V4    2.047602 S    
H1    C29   1.083692 S    
O19   V3    2.195680 S    
O11   C71   1.314258 A    
C27   H7    1.077955 S    
C63   H29   1.084082 S    
C25   N3    1.423338 S    
C32   C69   1.475860 S    
O16   C72   1.311435 A    
C43   C45   1.421125 A    
O15   C71   1.310991 A    
C6    C22   1.403775 A    
C33   C41   1.398530 A    
C12   H14   1.083033 S    
C10   C32   1.398137 A    
C36   C66   1.394407 A    
C44   C48   1.433275 A    
C13   C15   1.415919 A    
C43   C47   1.432134 A    
C56   H28   1.075944 S    
C63   C65   1.392073 A    
C17   C25   1.425442 A    
C7    C29   1.394270 A    
C16   C18   1.433018 A    
C8    C30   1.394101 A    
C33   C72   1.472347 S    
C51   C53   1.392936 A    
C34   C40   1.407400 A    
C67   H15   1.076665 S    
C57   H19   1.084651 S    
C11   C13   1.387827 A    
C47   C49   1.429735 A    
C24   C26   1.391341 A    
C48   C56   1.415447 A    
C47   C55   1.415157 A    
C55   C57   1.386171 A    
C59   C61   1.420487 A    
C62   C68   1.419448 A    
C41   H23   1.076956 S    
C58   H20   1.084684 S    
C42   H24   1.076154 S    
N4    O28   1.295780 A    
C60   C64   1.404482 A    
C59   C63   1.404780 A    
O19   V4    1.734247 S    
C3    C8    1.458015 S    
C15   C19   1.430667 A    
C46   C54   1.408631 A    
C41   C43   1.414883 A    
C38   C40   1.400512 A    
O4    V2    2.006950 S    
N2    O24   1.300534 A    
N1    O22   1.300304 A    
O12   C72   1.311410 A    
C12   C14   1.389636 A    
C64   C66   1.391746 A    
O6    C4    1.306963 A    
O11   V4    2.001087 S    
C52   C54   1.393062 A    
O1    V2    2.034419 S    
C65   H17   1.083510 S    
C68   H16   1.076745 S    
O2    V1    2.017160 S    
C49   C51   1.412634 A    
O12   V3    2.009142 S    
H2    C30   1.083617 S    
O18   V4    2.035114 S    
H3    C23   1.085388 S    
O17   V3    2.017774 S    
C49   C61   1.434877 A    
C57   C59   1.391379 A    
C11   H13   1.083096 S    
C38   H22   1.082529 S    
C54   C74   1.448829 S    
C56   C58   1.386020 A    
C36   C68   1.400878 A    
N3    O25   1.299343 A    
C18   C26   1.422835 A    
O4    C2    1.307171 A    
C64   H30   1.084101 S    
C19   C27   1.416050 A    
N1    O21   1.301350 A    
C7    C27   1.399526 A    
C18   C32   1.433170 A    
O20   V4    2.181026 S    
C50   C62   1.435457 A    
C10   H10   1.082078 S    
C16   C20   1.430886 A    
C5    C29   1.388354 A    
C58   C60   1.391251 A    
N4    O27   1.299174 A    
O3    C1    1.308289 A    
C6    C30   1.389191 A    
O14   C70   1.315541 A    
C73   N5    1.157468 T    
C9    H9    1.079757 S    
C70   O17   1.310495 A    
C4    C7    1.456874 S    
C52   H26   1.076788 S    
C51   H25   1.076677 S    
N2    O23   1.301119 A    
O7    V1    2.011013 S    
C10   C12   1.385874 A    
C19   C21   1.417695 A    
O8    V2    2.002770 S    
C74   N6    1.157508 T    
C33   C39   1.406493 A    
C20   C22   1.418858 A    
H4    C24   1.085284 S    
C61   C67   1.418487 A    
O5    V1    2.016087 S    
C15   C17   1.434920 A    
C1    C36   1.464346 S    
C60   C62   1.420448 A    
C38   C46   1.412595 A    
C34   C71   1.472289 S    
C20   C28   1.416092 A    
C8    C28   1.399942 A    
C9    C31   1.398417 A    
C1    O8    1.308128 A    
C31   C70   1.477613 S    
O13   V3    2.015903 S    
C34   C42   1.398752 A    
O6    V2    2.047830 S    
C69   O18   1.310632 A    
O9    V2    1.734961 S    
N3    O26   1.293959 A    
C42   C44   1.415126 A    
C22   C24   1.388211 A    
O10   V1    1.745392 S    
O3    V1    2.023302 S    
C44   C46   1.421335 A    
O16   V4    2.007084 S    
C13   H11   1.076828 S    
C35   C67   1.400103 A    
O15   V3    2.023428 S    
C37   C45   1.411952 A    
C14   H12   1.076800 S    
C35   C65   1.394210 A    
C14   C16   1.416416 A    
O20   V3    1.744642 S    
O13   C69   1.314962 A    
