data_mof_unit_31852.cif
_audit_creation_date              2012-12-10T17:17:50-0500
_audit_creation_method            fapswitch 2.2
_symmetry_space_group_name_H-M    P1
_symmetry_Int_Tables_number       1
_space_group_crystal_system       triclinic
_cell_length_a                    15.00475
_cell_length_b                    15.71321
_cell_length_c                    9.553189
_cell_angle_alpha                 89.950403
_cell_angle_beta                  90.417213
_cell_angle_gamma                 90.000923
_cell_volume                      2252.32144385

loop_
_atom_site_label
_atom_site_type_symbol
_atom_type_description
_atom_site_fract_x
_atom_site_fract_y
_atom_site_fract_z
_atom_type_partial_charge
C1    C     C_R   0.386322 0.876657 0.500593 0.817100
C2    C     C_R   0.386390 0.123370 0.500461 0.816773
C3    C     C_R   0.886322 0.376658 0.500593 0.817100
C4    C     C_R   0.886390 0.623370 0.500461 0.816773
C5    C     C_R   0.282572 0.219477 0.378405 -0.207805
C6    C     C_R   0.283206 0.780017 0.378479 -0.207688
C7    C     C_R   0.782572 0.719477 0.378405 -0.207805
C8    C     C_R   0.783206 0.280017 0.378479 -0.207688
C9    C     C_R   0.713692 0.777791 0.379746 -0.210887
C10   C     C_R   0.714294 0.221749 0.379562 -0.210966
C11   C     C_R   0.213692 0.277791 0.379746 -0.210887
C12   C     C_R   0.214294 0.721749 0.379562 -0.210966
C13   C     C_R   0.680187 0.807918 0.506884 -0.112489
C14   C     C_R   0.679864 0.192303 0.506599 -0.112292
C15   C     C_R   0.180187 0.307918 0.506884 -0.112489
C16   C     C_R   0.179864 0.692303 0.506599 -0.112292
C17   C     C_R   0.664216 0.000232 0.146119 -0.131440
C18   C     C_R   0.164216 0.500232 0.146119 -0.131440
C19   C     C_R   0.744294 0.000470 0.074361 -0.234907
C20   C     C_R   0.244294 0.500470 0.074361 -0.234907
C21   C     C_R   0.744187 0.000478 0.930198 -0.179331
C22   C     C_R   0.244187 0.500478 0.930198 -0.179331
C23   C     C_R   0.663997 0.000225 0.857025 -0.100856
C24   C     C_R   0.163997 0.500225 0.857025 -0.100856
C25   C     C_R   0.580699 0.000123 0.925867 0.065880
C26   C     C_R   0.080699 0.500123 0.925867 0.065880
C27   C     C_R   0.580717 0.000124 0.075735 0.180026
C28   C     C_R   0.080717 0.500124 0.075735 0.180026
C29   C     C_R   0.423279 0.999892 0.073289 -0.175054
C30   C     C_R   0.923279 0.499892 0.073289 -0.175054
C31   C     C_R   0.615249 0.122355 0.501365 0.766408
C32   C     C_R   0.615381 0.877731 0.501475 0.766796
C33   C     C_R   0.115249 0.622355 0.501365 0.766408
C34   C     C_R   0.115380 0.377731 0.501475 0.766796
C35   C     C_R   0.423211 0.999892 0.925117 0.668991
C36   C     C_R   0.923212 0.499892 0.925117 0.668991
C37   C     C_R   0.350443 0.228221 0.756487 -0.116064
C38   C     C_R   0.348190 0.773176 0.758098 -0.114635
C39   C     C_R   0.850443 0.728221 0.756487 -0.116064
C40   C     C_R   0.848190 0.273176 0.758098 -0.114635
C41   C     C_R   0.313916 0.249848 0.885266 -0.127830
C42   C     C_R   0.310606 0.752191 0.886506 -0.126761
C43   C     C_R   0.813916 0.749848 0.885266 -0.127830
C44   C     C_R   0.810606 0.252191 0.886506 -0.126761
C45   C     C_R   0.726001 0.776848 0.891821 -0.130336
C46   C     C_R   0.722617 0.225293 0.891777 -0.129859
C47   C     C_R   0.226001 0.276848 0.891821 -0.130336
C48   C     C_R   0.222617 0.725293 0.891777 -0.129859
C49   C     C_R   0.677755 0.790575 0.768626 -0.161228
C50   C     C_R   0.675340 0.211029 0.767863 -0.160154
C51   C     C_R   0.177755 0.290575 0.768626 -0.161228
C52   C     C_R   0.175340 0.711029 0.767863 -0.160154
C53   C     C_R   0.717517 0.778140 0.635724 0.091503
C54   C     C_R   0.716192 0.222794 0.635576 0.091175
C55   C     C_R   0.217517 0.278140 0.635724 0.091503
C56   C     C_R   0.216192 0.722793 0.635576 0.091175
C57   C     C_R   0.298979 0.233733 0.631652 0.103857
C58   C     C_R   0.297719 0.767118 0.632309 0.103037
C59   C     C_R   0.798979 0.733733 0.631652 0.103857
C60   C     C_R   0.797719 0.267118 0.632309 0.103037
C61   C     C_R   0.324931 0.195694 0.503391 -0.125944
C62   C     C_R   0.324697 0.804441 0.503814 -0.126068
C63   C     C_R   0.824931 0.695693 0.503391 -0.125944
C64   C     C_R   0.824697 0.304441 0.503814 -0.126068
Cu1   Cu    Cu3+1 0.499990 0.000000 0.640660 0.964456
Cu2   Cu    Cu3+1 0.999990 0.500000 0.640660 0.964456
Cu3   Cu    Cu3+1 0.500010 1.000000 0.359340 0.930419
Cu4   Cu    Cu3+1 0.000010 0.500000 0.359340 0.930419
H1    H     H_    0.302616 0.193014 0.278782 0.164866
H2    H     H_    0.304029 0.805900 0.278735 0.164405
H3    H     H_    0.802616 0.693014 0.278782 0.164866
H4    H     H_    0.804029 0.305900 0.278735 0.164405
H5    H     H_    0.806717 0.000570 0.874300 0.152862
H6    H     H_    0.306717 0.500570 0.874300 0.152862
H7    H     H_    0.671707 0.000018 0.746820 0.204833
H8    H     H_    0.171707 0.500018 0.746820 0.204833
H9    H     H_    0.419604 0.209103 0.756175 0.137607
H10   H     H_    0.417415 0.792075 0.758932 0.138653
H11   H     H_    0.919604 0.709103 0.756175 0.137607
H12   H     H_    0.917415 0.292075 0.758932 0.138653
H13   H     H_    0.353056 0.243241 0.980306 0.127213
H14   H     H_    0.349010 0.759178 0.982218 0.126712
H15   H     H_    0.853056 0.743242 0.980306 0.127213
H16   H     H_    0.849010 0.259178 0.982218 0.126712
H17   H     H_    0.695621 0.788979 0.992314 0.135138
H18   H     H_    0.691437 0.213616 0.991866 0.134551
H19   H     H_    0.195621 0.288979 0.992314 0.135138
H20   H     H_    0.191437 0.713616 0.991866 0.134551
H21   H     H_    0.608684 0.807819 0.780687 0.157642
H22   H     H_    0.606163 0.193805 0.778724 0.156484
H23   H     H_    0.108684 0.307819 0.780687 0.157642
H24   H     H_    0.106163 0.693805 0.778724 0.156484
H25   H     H_    0.685683 0.798244 0.280426 0.163599
H26   H     H_    0.687047 0.200717 0.280080 0.163614
H27   H     H_    0.185683 0.298244 0.280426 0.163599
H28   H     H_    0.187047 0.700717 0.280080 0.163614
H29   H     H_    0.360549 0.999803 0.128393 0.169139
H30   H     H_    0.860549 0.499803 0.128393 0.169139
H31   H     H_    0.672308 0.000111 0.256451 0.203608
H32   H     H_    0.172308 0.500111 0.256451 0.203608
H33   H     H_    0.806943 0.000578 0.131365 0.154054
H34   H     H_    0.306943 0.500578 0.131365 0.154054
N1    N     N_R   0.501200 0.000000 0.147910 -0.230141
N2    N     N_R   0.001200 0.500000 0.147910 -0.230141
N3    N     N_R   0.501270 0.000000 0.852040 -0.262255
N4    N     N_R   0.001270 0.500000 0.852040 -0.262255
O1    O     O_R   0.409820 0.909830 0.618810 -0.536688
O2    O     O_R   0.409820 0.090170 0.618810 -0.536234
O3    O     O_R   0.909820 0.409830 0.618810 -0.536688
O4    O     O_R   0.909820 0.590170 0.618810 -0.536234
O5    O     O_R   0.409840 0.909830 0.381240 -0.582927
O6    O     O_R   0.409840 0.090170 0.381240 -0.582964
O7    O     O_R   0.909840 0.409830 0.381240 -0.582927
O8    O     O_R   0.909840 0.590170 0.381240 -0.582964
O9    O     O_R   0.590170 0.090170 0.618760 -0.622551
O10   O     O_R   0.590170 0.909830 0.618760 -0.622867
O11   O     O_R   0.090170 0.590170 0.618760 -0.622551
O12   O     O_R   0.090170 0.409830 0.618760 -0.622867
O13   O     O_R   0.590190 0.090180 0.381190 -0.598489
O14   O     O_R   0.590190 0.909820 0.381190 -0.598393
O15   O     O_R   0.090190 0.590180 0.381190 -0.598489
O16   O     O_R   0.090190 0.409820 0.381190 -0.598393
F1    F     F_    0.344320 0.999783 0.855200 -0.645295
F2    F     F_    0.844320 0.499783 0.855200 -0.645295

loop_
_geom_bond_atom_site_label_1
_geom_bond_atom_site_label_2
_ccdc_geom_bond_type
C34   O12   A    
Cu2   Cu4   S    
C58   C62   A    
C40   C60   A    
C43   H15   S    
C13   C32   S    
C42   H14   S    
C14   C31   S    
C3    O7    A    
C1    C62   S    
C26   N4    A    
C30   N2    A    
C53   C59   A    
Cu3   N1    S    
C54   C60   A    
C3    C64   S    
C33   O11   A    
C4    C63   S    
C2    O6    A    
C50   C54   A    
C4    O8    A    
C36   F2    S    
C24   C26   A    
C38   C42   A    
C20   C22   A    
C6    C12   A    
C20   H34   S    
C10   H26   S    
C21   H5    S    
C29   N1    A    
C6    H2    S    
C31   O9    A    
C9    C13   A    
C5    H1    S    
C51   H23   S    
C38   C58   A    
C11   C15   A    
C50   H22   S    
C12   C16   A    
Cu1   Cu3   S    
Cu2   O11   S    
C48   H20   S    
Cu3   O14   S    
C15   C34   S    
C18   C20   A    
C2    C61   S    
Cu4   O7    S    
C39   C59   A    
C34   O16   A    
C33   O15   A    
Cu1   O9    S    
C18   H32   S    
Cu2   N4    S    
Cu1   N3    S    
C2    O2    A    
C44   C46   A    
C46   C50   A    
C13   C53   A    
C8    H4    S    
C25   N3    A    
C17   C27   A    
C18   C28   A    
C7    C63   A    
Cu4   O16   S    
C24   H8    S    
C39   C43   A    
C38   H10   S    
C36   N4    A    
C32   O10   A    
C47   H19   S    
C45   H17   S    
C16   C56   A    
C35   N3    A    
C16   C33   S    
C43   C45   A    
C28   N2    A    
C45   C49   A    
C41   H13   S    
C40   H12   S    
C41   C47   A    
C5    C61   A    
C42   C48   A    
Cu2   O4    S    
C57   C61   A    
C17   H31   S    
C31   O13   A    
C39   H11   S    
C8    C64   A    
Cu3   O5    S    
C14   C54   A    
C1    O1    A    
C55   C57   A    
C10   C14   A    
Cu1   O10   S    
C22   C24   A    
C52   H24   S    
C22   H6    S    
C40   C44   A    
C9    H25   S    
C11   H27   S    
C7    C9    A    
C4    O4    A    
C49   H21   S    
Cu1   O2    S    
C19   C21   A    
C59   C63   A    
Cu4   N2    S    
C23   H7    S    
C44   H16   S    
Cu4   O15   S    
C47   C51   A    
C5    C11   A    
C29   H29   S    
C25   C27   A    
C29   C35   A    
C30   H30   S    
C26   C28   A    
C30   C36   A    
C60   C64   A    
C6    C62   A    
C21   C23   A    
C1    O5    A    
C7    H3    S    
C19   H33   S    
C37   H9    S    
C3    O3    A    
C49   C53   A    
C35   F1    S    
C17   C19   A    
C56   C58   A    
C51   C55   A    
C23   C25   A    
Cu2   O3    S    
C37   C41   A    
Cu3   O6    S    
C48   C52   A    
C8    C10   A    
Cu2   O12   S    
Cu4   O8    S    
C12   H28   S    
C32   O14   A    
Cu3   O13   S    
C27   N1    A    
Cu1   O1    S    
C37   C57   A    
C52   C56   A    
C15   C55   A    
C46   H18   S    
