data_mof_unit_35562.cif
_audit_creation_date              2012-12-11T15:11:49-0500
_audit_creation_method            fapswitch 2.2
_symmetry_space_group_name_H-M    P1
_symmetry_Int_Tables_number       1
_space_group_crystal_system       triclinic
_cell_length_a                    20.171891
_cell_length_b                    7.127943
_cell_length_c                    13.886321
_cell_angle_alpha                 90.00116
_cell_angle_beta                  103.171247
_cell_angle_gamma                 89.999519
_cell_volume                      1944.1073671

loop_
_atom_site_label
_atom_site_type_symbol
_atom_type_description
_atom_site_fract_x
_atom_site_fract_y
_atom_site_fract_z
_atom_type_partial_charge
O1    O     O_R   0.449830 0.506740 0.599960 -0.539032
O2    O     O_R   0.550170 0.006740 0.400040 -0.539099
O3    O     O_R   0.588980 0.179860 0.596720 -0.536084
O4    O     O_R   0.411020 0.679860 0.403280 -0.536039
C1    C     C_R   0.616017 0.346170 0.618634 0.833971
C2    C     C_R   0.383974 0.846166 0.381393 0.833837
O5    O     O_R   0.452740 0.177340 0.612040 -0.536642
O6    O     O_R   0.547260 0.677340 0.387960 -0.536619
O7    O     O_R   0.412960 0.002070 0.415460 -0.502006
O8    O     O_R   0.587040 0.502070 0.584540 -0.501921
C3    C     C_R   0.435963 0.345925 0.636523 0.741449
C4    C     C_R   0.564035 0.845923 0.363475 0.741371
O9    O     O_3   0.487110 0.337570 0.435490 -0.357589
O10   O     O_3   0.512890 0.837570 0.564510 -0.357549
V1    V     V_3+5 0.502390 0.064650 0.511970 1.702247
V2    V     V_3+5 0.497610 0.564650 0.488030 1.702386
C5    C     C_R   0.611315 0.983432 0.130333 -0.137555
C6    C     C_R   0.388693 0.483252 0.869705 -0.137559
H1    H     H_    0.517859 0.965413 0.177879 0.147933
H2    H     H_    0.482147 0.465249 0.822149 0.148027
H3    H     H_    0.694916 0.087491 0.023315 0.194221
H4    H     H_    0.305101 0.587215 0.976769 0.194216
H5    H     H_    0.586449 0.042354 0.059284 0.158368
H6    H     H_    0.413564 0.542083 0.940774 0.158364
C7    C     C_R   0.603003 0.860062 0.287981 -0.058480
C8    C     C_R   0.396992 0.360058 0.712013 -0.058516
C9    C     C_R   0.926664 0.768766 0.309979 -0.121423
C10   C     C_R   0.073341 0.268764 0.690022 -0.121494
C11   C     C_R   0.893455 0.778609 0.387698 -0.196626
C12   C     C_R   0.106545 0.278664 0.612299 -0.196624
C13   C     C_R   0.826529 0.839358 0.372904 0.456790
C14   C     C_R   0.173466 0.339441 0.627098 0.456800
C15   C     C_R   0.788324 0.876364 0.275978 -0.019738
C16   C     C_R   0.211675 0.376382 0.724029 -0.019751
C17   C     C_R   0.825600 0.911070 0.201538 -0.033601
C18   C     C_R   0.174403 0.411040 0.798477 -0.033570
C19   C     C_R   0.715312 0.889520 0.250716 0.089580
C20   C     C_R   0.284688 0.389506 0.749292 0.089577
C21   C     C_R   0.682218 0.961437 0.156935 0.108956
C22   C     C_R   0.317788 0.461308 0.843099 0.108914
C23   C     C_R   0.720087 0.019857 0.091549 -0.191358
C24   C     C_R   0.279925 0.519670 0.908506 -0.191219
C25   C     C_R   0.790211 0.001651 0.114164 -0.016512
C26   C     C_R   0.209798 0.501539 0.885874 -0.016343
C27   C     C_R   0.673356 0.827466 0.313033 -0.123375
C28   C     C_R   0.326637 0.327514 0.686951 -0.123314
C29   C     C_R   0.572112 0.937556 0.196762 -0.142070
C30   C     C_R   0.427891 0.437440 0.803258 -0.142050
C31   C     C_R   0.895945 0.853587 0.217590 -0.077089
C32   C     C_R   0.104057 0.353575 0.782415 -0.077081
H7    H     H_    0.693839 0.755193 0.381386 0.216693
H8    H     H_    0.306146 0.255318 0.618575 0.216674
H9    H     H_    0.920169 0.739046 0.461834 0.181157
H10   H     H_    0.079828 0.239130 0.538159 0.181165
C33   C     C_3   0.206893 0.669734 0.232340 -0.323888
C34   C     C_3   0.793091 0.169698 0.767700 -0.323757
H11   H     H_    0.168142 0.611096 0.269114 0.284745
H12   H     H_    0.831850 0.110921 0.730974 0.284723
H13   H     H_    0.208783 0.574829 0.170629 0.237102
H14   H     H_    0.791176 0.074854 0.829419 0.237153
C35   C     C_3   0.277223 0.667048 0.304724 -0.284069
C36   C     C_3   0.722777 0.167074 0.695270 -0.284095
H15   H     H_    0.308817 0.557839 0.280103 0.287674
H16   H     H_    0.691170 0.057862 0.719853 0.287723
H17   H     H_    0.271071 0.619879 0.378326 0.266183
H18   H     H_    0.728954 0.120005 0.621660 0.266144
C37   C     C_3   0.189224 0.996963 0.288553 0.646794
C38   C     C_3   0.810786 0.496836 0.711397 0.646751
C39   C     C_3   0.242576 0.934224 0.136805 -0.249179
C40   C     C_3   0.757440 0.434304 0.863192 -0.249304
C41   C     C_3   0.186523 0.870001 0.193164 -0.237139
C42   C     C_3   0.813484 0.369989 0.806829 -0.237010
H19   H     H_    0.240954 0.829545 0.078212 0.161810
H20   H     H_    0.759082 0.329745 0.921849 0.161801
C43   C     C_3   0.313091 0.862854 0.312641 -0.198348
C44   C     C_3   0.686902 0.362863 0.687386 -0.198386
C45   C     C_3   0.264904 0.998635 0.356962 0.572345
C46   C     C_3   0.735075 0.498692 0.643080 0.572355
C47   C     C_3   0.317641 0.921299 0.203414 0.188007
C48   C     C_3   0.682365 0.421279 0.796624 0.188107
O11   O     O_R   0.912980 0.203550 0.915410 -0.539477
O12   O     O_R   0.087020 0.703550 0.084590 -0.539447
O13   O     O_R   0.047270 0.535570 0.887960 -0.526811
O14   O     O_R   0.952730 0.035570 0.112040 -0.526833
C49   C     C_R   0.064726 0.367164 0.861997 0.716906
C50   C     C_R   0.935273 0.867168 0.138003 0.716905
O15   O     O_R   0.911030 0.532970 0.903270 -0.523510
O16   O     O_R   0.088970 0.032970 0.096730 -0.523501
O17   O     O_R   0.949820 0.708150 0.099970 -0.523253
O18   O     O_R   0.050180 0.208150 0.900030 -0.523281
C51   C     C_R   0.884717 0.366191 0.878966 0.790597
C52   C     C_R   0.115288 0.866194 0.121024 0.790644
O19   O     O_3   0.012900 0.375230 0.064480 -0.350811
O20   O     O_3   0.987100 0.875230 0.935520 -0.350826
V3    V     V_3+5 0.997610 0.648190 0.988040 1.689169
V4    V     V_3+5 0.002390 0.148190 0.011960 1.689149
Cl1   Cl    Cl    0.128250 0.910792 0.354185 -0.556215
Cl2   Cl    Cl    0.871661 0.410281 0.645677 -0.556249
Cl3   Cl    Cl    0.267347 0.928929 0.483279 -0.554142
Cl4   Cl    Cl    0.732535 0.429281 0.516687 -0.554269
C53   C     C_2   0.224412 0.114102 0.077685 0.372664
H21   H     H_    0.195667 0.106435 0.001557 0.081339
O21   O     O_2   0.240027 0.268033 0.113899 -0.529571
C54   C     C_2   0.775591 0.614301 0.922201 0.372581
H22   H     H_    0.804236 0.606774 0.998392 0.081129
O22   O     O_2   0.760051 0.768158 0.885836 -0.529466
Cl5   Cl    Cl    0.363436 0.739136 0.155143 -0.766774
Cl6   Cl    Cl    0.636617 0.239050 0.844920 -0.766765
C55   C     C_2   0.360547 0.091739 0.189257 0.560735
H23   H     H_    0.363402 0.128864 0.114406 0.065849
O23   O     O_2   0.393798 0.185030 0.256478 -0.494669
C56   C     C_2   0.639442 0.591666 0.810827 0.560709
H24   H     H_    0.636703 0.628927 0.885740 0.065629
O24   O     O_2   0.606018 0.684685 0.743568 -0.494667
Cl7   Cl    Cl    0.156664 0.229966 0.258839 -0.493572
Cl8   Cl    Cl    0.843480 0.729775 0.740992 -0.493159
Cl9   Cl    Cl    0.298652 0.231680 0.375156 -0.534686
Cl10  Cl    Cl    0.701346 0.731783 0.625141 -0.534772
C57   C     C_2   0.994102 0.674043 0.333213 0.534960
H25   H     H_    0.020622 0.655180 0.409960 0.092140
O25   O     O_2   0.019703 0.607390 0.269444 -0.482937
C58   C     C_2   0.005916 0.173979 0.666791 0.534983
H26   H     H_    0.979399 0.155087 0.590045 0.092172
O26   O     O_2   0.980327 0.107302 0.730562 -0.482915
Cl11  Cl    Cl    0.800682 0.909164 0.480492 -0.505236
Cl12  Cl    Cl    0.199298 0.409386 0.519525 -0.505270
C59   C     C_2   0.824067 0.111310 0.052724 0.352862
H27   H     H_    0.831483 0.049829 0.985480 0.067864
O27   O     O_2   0.844717 0.268662 0.078624 -0.537795
C60   C     C_2   0.175947 0.611226 0.947310 0.352744
H28   H     H_    0.168550 0.549802 0.014572 0.067980
O28   O     O_2   0.155281 0.768549 0.921385 -0.537838

loop_
_geom_bond_atom_site_label_1
_geom_bond_atom_site_label_2
_ccdc_geom_bond_type
C12   C14   A    
O16   V4    S    
O4    V2    S    
C53   H21   S    
O15   C51   A    
C9    C11   A    
O1    C3    A    
O2    C4    A    
C2    O7    A    
C56   O24   D    
O3    V1    S    
C2    C43   S    
C21   C23   A    
C35   C43   S    
O5    C3    A    
C12   H10   S    
C5    H5    S    
C6    H6    S    
C46   Cl10  S    
O14   C50   A    
C33   H13   S    
C55   O23   D    
C5    C21   A    
H1    C29   S    
C27   H7    S    
C26   C60   S    
C28   H8    S    
O12   C52   A    
C35   H15   S    
O14   V4    S    
C14   Cl12  S    
C39   C41   S    
C37   Cl7   S    
C54   H22   S    
C36   H16   S    
C32   C49   S    
C10   C32   A    
C41   C52   S    
O16   C52   A    
C34   C42   S    
O15   V3    S    
C17   C31   A    
C13   C15   A    
C39   H19   S    
C17   C25   A    
C7    C29   A    
C16   C18   A    
C8    C30   A    
O5    V1    S    
O19   V3    S    
C11   C13   A    
C23   C25   A    
C36   C44   S    
C24   C26   A    
C54   O22   D    
C56   H24   S    
C57   O25   D    
C38   C46   S    
C49   O18   A    
C47   C55   S    
C40   C48   S    
C44   C48   S    
O4    C2    A    
C25   C59   S    
C42   C51   S    
C36   H18   S    
C3    C8    S    
C15   C19   A    
C34   H14   S    
C38   C42   S    
C14   C16   A    
O17   V3    S    
C60   O28   D    
C59   O27   D    
C40   H20   S    
C37   C45   S    
O6    C4    A    
O13   V3    S    
C48   C56   S    
C47   Cl5   S    
O1    V2    S    
O20   V4    S    
O2    V1    S    
C43   C45   S    
H2    C30   S    
C38   Cl8   S    
H3    C23   S    
O13   C49   A    
O19   V4    S    
C39   C53   S    
C33   H11   S    
C46   Cl4   S    
C34   C36   S    
C18   C26   A    
C43   C47   S    
C13   Cl11  S    
C19   C27   A    
C59   H27   S    
C7    C27   A    
C18   C32   A    
C53   O21   D    
C10   C58   S    
O11   V4    S    
O12   V3    S    
C16   C20   A    
C40   C54   S    
C31   C50   S    
C5    C29   A    
C44   C46   S    
O3    C1    A    
C50   O17   A    
C6    C30   A    
C57   H25   S    
O18   V4    S    
C9    C57   S    
C48   Cl6   S    
C45   Cl9   S    
C4    C7    S    
C1    C44   S    
C10   C12   A    
C60   H28   S    
O7    V1    S    
C1    O8    A    
C19   C21   A    
O8    V2    S    
C55   H23   S    
C20   C22   A    
H4    C24   S    
C11   H9    S    
C33   C35   S    
C22   C24   A    
C15   C17   A    
C34   H12   S    
C45   Cl3   S    
C37   C41   S    
O20   V3    S    
C38   Cl2   S    
C20   C28   A    
C39   C47   S    
C37   Cl1   S    
O11   C51   A    
C35   H17   S    
C6    C22   A    
O6    V2    S    
O9    V2    S    
O10   V1    S    
C40   C42   S    
C58   H26   S    
C8    C28   A    
C58   O26   D    
C33   C41   S    
C9    C31   A    
