data_mof_unit_68053.cif
_audit_creation_date              2012-12-11T14:39:21-0500
_audit_creation_method            fapswitch 2.2
_symmetry_space_group_name_H-M    P1
_symmetry_Int_Tables_number       1
_space_group_crystal_system       triclinic
_cell_length_a                    7.407039
_cell_length_b                    14.199702
_cell_length_c                    16.469595
_cell_angle_alpha                 89.999968
_cell_angle_beta                  97.494037
_cell_angle_gamma                 89.999692
_cell_volume                      1717.43890032

loop_
_atom_site_label
_atom_site_type_symbol
_atom_type_description
_atom_site_fract_x
_atom_site_fract_y
_atom_site_fract_z
_atom_type_partial_charge
O1    O     O_R   0.525340 0.338340 0.164530 -0.542678
O2    O     O_R   0.474660 0.661660 0.835470 -0.509390
O3    O     O_R   0.974660 0.838340 0.835470 -0.542669
O4    O     O_R   0.025340 0.161660 0.164530 -0.509393
O5    O     O_R   0.253520 0.352000 0.336710 -0.557075
O6    O     O_R   0.746480 0.648000 0.663290 -0.555501
O7    O     O_R   0.246480 0.852000 0.663290 -0.557079
O8    O     O_R   0.753520 0.148000 0.336710 -0.555498
O9    O     O_R   0.083330 0.168380 0.337300 -0.537351
O10   O     O_R   0.916670 0.831620 0.662700 -0.525845
O11   O     O_R   0.416670 0.668380 0.662700 -0.537358
O12   O     O_R   0.583330 0.331620 0.337300 -0.525848
C1    C     C_R   0.433758 0.371541 0.360742 0.619600
C2    C     C_R   0.567480 0.632435 0.634830 0.610231
C3    C     C_R   0.066242 0.871542 0.639259 0.619601
C4    C     C_R   0.932519 0.132436 0.365169 0.610229
O13   O     O_R   0.195840 0.349670 0.165140 -0.531254
O14   O     O_R   0.804160 0.650330 0.834860 -0.541986
O15   O     O_R   0.304160 0.849670 0.834860 -0.531253
O16   O     O_R   0.695840 0.150330 0.165140 -0.541983
C5    C     C_R   0.357315 0.370198 0.137579 0.773391
C6    C     C_R   0.644264 0.634291 0.865664 0.792495
C7    C     C_R   0.142685 0.870198 0.862421 0.773386
C8    C     C_R   0.855736 0.134291 0.134336 0.792472
O17   O     O_3   0.387830 0.193120 0.250910 -0.369222
O18   O     O_3   0.612170 0.806880 0.749090 -0.358362
O19   O     O_3   0.112170 0.693120 0.749090 -0.369235
O20   O     O_3   0.887830 0.306880 0.250910 -0.358369
V1    V     V_3+5 0.113010 0.264540 0.250910 1.499352
V2    V     V_3+5 0.886990 0.735460 0.749090 1.469166
V3    V     V_3+5 0.386990 0.764540 0.749090 1.499347
V4    V     V_3+5 0.613010 0.235460 0.250910 1.469164
C9    C     C_R   0.967740 0.200316 0.543958 0.029855
C10   C     C_R   0.024335 0.794536 0.465541 0.050821
C11   C     C_R   0.532266 0.700313 0.456040 0.029851
C12   C     C_R   0.475670 0.294535 0.534461 0.050819
C13   C     C_R   0.967352 0.225972 0.629098 0.164472
C14   C     C_R   0.023185 0.766329 0.382130 0.096840
C15   C     C_R   0.532657 0.725964 0.370899 0.164487
C16   C     C_R   0.476820 0.266327 0.617872 0.096834
C17   C     C_R   0.984371 0.154200 0.688806 -0.157966
C18   C     C_R   0.041448 0.833949 0.322089 -0.118701
C19   C     C_R   0.515643 0.654189 0.311192 -0.157983
C20   C     C_R   0.458547 0.333947 0.677911 -0.118657
C21   C     C_R   0.957806 0.060695 0.663999 -0.180124
C22   C     C_R   0.026914 0.930340 0.339942 -0.119745
C23   C     C_R   0.542217 0.560687 0.336005 -0.180140
C24   C     C_R   0.473091 0.430338 0.660060 -0.119748
C25   C     C_R   0.978632 0.030655 0.582841 0.038831
C26   C     C_R   0.003343 0.964982 0.420051 -0.036769
C27   C     C_R   0.521378 0.530651 0.417161 0.038862
C28   C     C_R   0.496660 0.464981 0.579951 -0.036778
C29   C     C_R   0.971490 0.099793 0.519679 -0.056426
C30   C     C_R   0.017130 0.896778 0.485354 -0.043403
C31   C     C_R   0.528515 0.599790 0.480322 -0.056435
C32   C     C_R   0.482873 0.396776 0.514648 -0.043408
C33   C     C_R   0.019142 0.933563 0.567245 -0.082536
C34   C     C_R   0.971456 0.065069 0.436158 -0.114505
C35   C     C_R   0.480861 0.433560 0.432757 -0.082532
C36   C     C_R   0.528546 0.565068 0.563843 -0.114503
C37   C     C_2   0.144404 0.945127 0.925933 -0.315954
C38   C     C_2   0.853076 0.061273 0.069129 -0.251835
C39   C     C_2   0.355596 0.445128 0.074067 -0.315962
C40   C     C_2   0.646923 0.561272 0.930871 -0.251848
C41   C     C_2   0.008563 0.957693 0.974470 -0.087628
C42   C     C_2   0.990446 0.048557 0.021486 -0.046765
C43   C     C_2   0.491432 0.457692 0.025528 -0.087662
C44   C     C_2   0.509551 0.548556 0.978512 -0.046782
H1    H     H_    0.743350 0.010791 0.067797 0.107386
H2    H     H_    0.252295 0.996427 0.925662 0.094358
H3    H     H_    0.756651 0.510791 0.932204 0.107384
H4    H     H_    0.247709 0.496430 0.074342 0.094357
C45   C     C_2   0.045419 0.801348 0.235393 0.439812
H5    H     H_    0.137338 0.745883 0.222623 0.058098
O21   O     O_2   0.938668 0.832182 0.178886 -0.500149
C46   C     C_2   0.022879 0.172329 0.779096 0.371973
H6    H     H_    0.117767 0.126308 0.815923 0.026560
O22   O     O_2   0.943919 0.232338 0.814013 -0.488248
C47   C     C_2   0.454599 0.301347 0.764608 0.439864
H7    H     H_    0.362635 0.245915 0.777396 0.058034
O23   O     O_2   0.561458 0.332143 0.821098 -0.500113
C48   C     C_2   0.477124 0.672306 0.220901 0.371952
H8    H     H_    0.382348 0.626239 0.184068 0.026557
O24   O     O_2   0.555954 0.732375 0.185984 -0.488266
C49   C     C_3   0.992155 0.277388 0.480808 -0.318759
C50   C     C_3   0.043672 0.377586 0.505157 -0.748916
H9    H     H_    0.923523 0.420038 0.514226 0.228611
H10   H     H_    0.151181 0.377208 0.557453 0.249059
H11   H     H_    0.100373 0.412764 0.454319 0.234753
H12   H     H_    0.111510 0.255280 0.453894 0.205390
H13   H     H_    0.873515 0.283063 0.433541 0.201813
C51   C     C_3   0.016071 0.717576 0.532096 -0.315346
C52   C     C_3   0.048151 0.611780 0.524262 -0.760650
H14   H     H_    0.924727 0.574004 0.497476 0.228315
H15   H     H_    0.169391 0.596282 0.494949 0.245028
H16   H     H_    0.076618 0.580930 0.586673 0.226494
H17   H     H_    0.126896 0.730200 0.580259 0.206474
H18   H     H_    0.884257 0.723833 0.554126 0.202139
C53   C     C_3   0.507847 0.777386 0.519188 -0.318759
C54   C     C_3   0.456342 0.877586 0.494839 -0.748939
H19   H     H_    0.576498 0.920032 0.485768 0.228604
H20   H     H_    0.348831 0.877211 0.442544 0.249066
H21   H     H_    0.399649 0.912767 0.545678 0.234750
H22   H     H_    0.388489 0.755280 0.546102 0.205387
H23   H     H_    0.626483 0.783059 0.566458 0.201804
C55   C     C_3   0.483932 0.217575 0.467906 -0.315341
C56   C     C_3   0.451845 0.111780 0.475742 -0.760653
H24   H     H_    0.575271 0.074001 0.502522 0.228310
H25   H     H_    0.330614 0.096284 0.505061 0.245030
H26   H     H_    0.423361 0.080930 0.413331 0.226499
H27   H     H_    0.373107 0.230200 0.419743 0.206471
H28   H     H_    0.615745 0.223830 0.445875 0.202137
C57   C     C_3   0.891442 0.320217 0.655273 -0.343409
C58   C     C_3   0.019240 0.390490 0.703607 -0.574318
H29   H     H_    0.122777 0.354600 0.746466 0.246438
H30   H     H_    0.082646 0.439281 0.663971 0.212039
H31   H     H_    0.939249 0.435924 0.740757 0.217351
H32   H     H_    0.805487 0.354839 0.605193 0.182578
H33   H     H_    0.793271 0.304310 0.697199 0.224814
C59   C     C_3   0.955646 0.669450 0.350233 -0.317411
C60   C     C_3   0.106483 0.601458 0.337151 -0.718781
H34   H     H_    0.124257 0.595280 0.271528 0.199439
H35   H     H_    0.230184 0.627567 0.372103 0.232528
H36   H     H_    0.081426 0.530640 0.360590 0.262096
H37   H     H_    0.860254 0.640011 0.388171 0.218591
H38   H     H_    0.867941 0.674663 0.290648 0.192035
C61   C     C_3   0.608575 0.820207 0.344723 -0.343388
C62   C     C_3   0.480777 0.890485 0.296402 -0.574227
H39   H     H_    0.377191 0.854601 0.253564 0.246465
H40   H     H_    0.417423 0.939294 0.336044 0.212008
H41   H     H_    0.560740 0.935908 0.259227 0.217357
H42   H     H_    0.694537 0.854824 0.394803 0.182577
H43   H     H_    0.706731 0.804298 0.302790 0.224792
C63   C     C_3   0.544369 0.169450 0.649769 -0.317396
C64   C     C_3   0.393538 0.101459 0.662860 -0.718792
H44   H     H_    0.375765 0.095296 0.728484 0.199447
H45   H     H_    0.269834 0.127559 0.627905 0.232521
H46   H     H_    0.418605 0.030637 0.639432 0.262101
H47   H     H_    0.639753 0.140008 0.611828 0.218583
H48   H     H_    0.632083 0.174666 0.709350 0.192114
C65   C     C_2   0.850966 0.004995 0.716811 0.430512
H49   H     H_    0.886939 0.003504 0.782626 0.022524
O25   O     O_2   0.710339 0.967143 0.687101 -0.518622
C66   C     C_2   0.022431 0.991052 0.268717 0.495081
H50   H     H_    0.890259 0.012703 0.240087 0.014662
O26   O     O_2   0.160697 0.008999 0.238830 -0.529706
C67   C     C_2   0.649095 0.504988 0.283206 0.430484
H51   H     H_    0.613162 0.503496 0.217389 0.022523
O27   O     O_2   0.789705 0.467133 0.312933 -0.518627
C68   C     C_2   0.477601 0.491047 0.731289 0.495005
H52   H     H_    0.609780 0.512708 0.759904 0.014669
O28   O     O_2   0.339354 0.508980 0.761196 -0.529722
C69   C     C_2   0.123764 0.125796 0.013973 0.504641
H53   H     H_    0.267716 0.110664 0.016034 0.042562
O29   O     O_2   0.072568 0.207318 0.004646 -0.500931
C70   C     C_2   0.878155 0.879632 0.983974 0.577509
H54   H     H_    0.733522 0.893386 0.981072 0.030504
O30   O     O_2   0.932625 0.798952 0.995766 -0.500900
C71   C     C_2   0.376231 0.625795 0.986024 0.504658
H55   H     H_    0.232279 0.610662 0.983962 0.042560
O31   O     O_2   0.427425 0.707316 0.995352 -0.500925
C72   C     C_2   0.621828 0.379626 0.016019 0.577478
H56   H     H_    0.766461 0.393376 0.018916 0.030525
O32   O     O_2   0.567347 0.298949 0.004227 -0.500904

loop_
_geom_bond_atom_site_label_1
_geom_bond_atom_site_label_2
_ccdc_geom_bond_type
C37   H2    S    
C64   H46   S    
C20   C24   A    
O1    C5    A    
C52   H14   S    
C24   C68   S    
O13   V1    S    
C45   H5    S    
O3    C7    A    
C67   H51   S    
O15   V3    S    
C62   H39   S    
C58   H29   S    
C49   H13   S    
C51   H18   S    
C64   H44   S    
C55   H28   S    
C49   C50   S    
C26   C30   A    
C40   C44   D    
C70   H54   S    
C67   O27   D    
O9    C4    A    
C46   O22   D    
C14   C18   A    
C41   C70   S    
O10   C3    A    
C65   O25   D    
C71   H55   S    
C63   H48   S    
C11   C15   A    
O4    C8    A    
O11   C2    A    
C59   H38   S    
C13   C57   S    
C55   C56   S    
C25   C33   A    
C18   C22   A    
C40   H3    S    
C9    C49   S    
C61   H42   S    
C54   H19   S    
C60   H36   S    
C28   C36   A    
C57   H33   S    
O16   C8    A    
O2    C6    A    
C56   H24   S    
C71   O31   D    
O14   V2    S    
C69   O29   D    
C44   C71   S    
C16   C20   A    
O5    V1    S    
O4    V1    S    
O9    V1    S    
C14   C59   S    
O17   V4    S    
O7    C3    A    
C53   H22   S    
O11   V3    S    
O18   V3    S    
C52   H15   S    
C22   C66   S    
C31   C36   A    
O12   V4    S    
O19   V2    S    
C21   C65   S    
C3    C33   S    
C11   C53   S    
C51   H17   S    
C72   O32   D    
C55   H27   S    
C9    C29   A    
C53   H23   S    
C39   C43   D    
C15   C61   S    
C38   C42   D    
C11   C31   A    
C43   C44   S    
C26   C34   A    
C12   C16   A    
O7    V3    S    
C46   H6    S    
C66   O26   D    
C63   H47   S    
C47   O23   D    
C50   H9    S    
C23   C27   A    
C27   C31   A    
C12   C55   S    
C54   H21   S    
O13   C5    A    
C47   H7    S    
C38   H1    S    
O2    V3    S    
O8    V4    S    
O3    V2    S    
O15   C7    A    
C12   C32   A    
O6    C2    A    
O10   V2    S    
C58   H30   S    
C53   C54   S    
C21   C25   A    
C29   C34   A    
C54   H20   S    
C4    C34   S    
O12   C1    A    
C60   H34   S    
O6    V2    S    
C10   C30   A    
C52   H16   S    
C48   O24   D    
C56   H26   S    
C68   O28   D    
C27   C35   A    
C45   O21   D    
C61   C62   S    
C62   H41   S    
C60   H35   S    
C59   C60   S    
C57   C58   S    
O16   V4    S    
C64   H45   S    
O20   V1    S    
C18   C45   S    
C8    C38   S    
C10   C14   A    
O5    C1    A    
C20   C47   S    
C61   H43   S    
C66   H50   S    
C50   H11   S    
C62   H40   S    
C42   C69   S    
C15   C19   A    
C49   H12   S    
C63   C64   S    
C1    C35   S    
C72   H56   S    
C2    C36   S    
C22   C26   A    
C32   C35   A    
O14   C6    A    
C41   C42   S    
C23   C67   S    
C65   H49   S    
C17   C46   S    
C43   C72   S    
C56   H25   S    
C16   C63   S    
C25   C29   A    
C70   O30   D    
C51   C52   S    
C59   H37   S    
C50   H10   S    
O1    V4    S    
C13   C17   A    
C9    C13   A    
C5    C39   S    
C58   H31   S    
C6    C40   S    
C57   H32   S    
C37   C41   D    
C7    C37   S    
C39   H4    S    
O8    C4    A    
C48   H8    S    
C19   C48   S    
C17   C21   A    
C68   H52   S    
C69   H53   S    
C24   C28   A    
C19   C23   A    
C30   C33   A    
C28   C32   A    
C10   C51   S    
