data_mof_unit_56268.cif
_audit_creation_date              2012-12-10T17:48:53-0500
_audit_creation_method            fapswitch 2.2
_symmetry_space_group_name_H-M    P1
_symmetry_Int_Tables_number       1
_space_group_crystal_system       triclinic
_cell_length_a                    10.786993
_cell_length_b                    14.670572
_cell_length_c                    14.609805
_cell_angle_alpha                 65.191773
_cell_angle_beta                  104.070393
_cell_angle_gamma                 102.931805
_cell_volume                      2016.13043228

loop_
_atom_site_label
_atom_site_type_symbol
_atom_type_description
_atom_site_fract_x
_atom_site_fract_y
_atom_site_fract_z
_atom_type_partial_charge
C1    C     C_R   0.474481 0.119412 0.311113 0.859974
C2    C     C_R   0.461485 0.355116 0.067721 -0.018981
C3    C     C_R   0.367328 0.321510 0.998372 0.080552
C4    C     C_R   0.259873 0.001820 0.498013 0.798377
C5    C     C_R   0.494736 0.460977 0.043703 0.061254
C6    C     C_R   0.460468 0.531299 0.942157 0.007169
C7    C     C_R   0.381028 0.494280 0.867619 -0.098922
C8    C     C_R   0.343587 0.388890 0.894356 -0.062399
C9    C     C_R   0.546844 0.498211 0.122097 -0.201267
C10   C     C_R   0.565116 0.600986 0.102054 -0.184816
C11   C     C_R   0.544601 0.670877 0.001718 0.120568
C12   C     C_3   0.877572 0.007211 0.490540 -0.121933
C13   C     C_R   0.503941 0.636587 0.920867 0.076849
C14   C     C_R   0.564925 0.774825 0.981128 -0.148363
C15   C     C_R   0.548610 0.846514 0.879956 -0.021344
C16   C     C_R   0.520181 0.880394 0.688860 0.794556
C17   C     C_R   0.514516 0.708378 0.822084 -0.257364
C18   C     C_R   0.745112 0.304760 0.639775 -0.168751
C19   C     C_R   0.696689 0.212776 0.626951 0.588606
C20   C     C_R   0.510799 0.280627 0.516168 -0.003123
C21   C     C_R   0.556446 0.378609 0.519075 -0.051582
C22   C     C_R   0.678945 0.390447 0.580820 -0.045310
C23   C     C_3   0.945990 0.950460 0.601312 -0.365341
C24   C     C_R   0.483864 0.464124 0.465124 0.014230
C25   C     C_R   0.527930 0.553195 0.487446 0.042056
C26   C     C_R   0.654314 0.564339 0.540069 -0.188114
C27   C     C_R   0.731052 0.487927 0.580885 0.363874
C28   C     C_R   0.739071 0.004297 0.493060 0.856598
C29   C     C_R   0.374203 0.467017 0.386326 -0.025557
C30   C     C_R   0.294474 0.544670 0.350636 -0.035353
C31   C     C_R   0.329144 0.625866 0.385406 -0.037375
C32   C     C_R   0.449707 0.632585 0.450473 -0.011207
C33   C     C_R   0.250413 0.703768 0.354946 0.265723
C34   C     C_3   0.951111 0.119353 0.446321 0.252849
C35   C     C_R   0.298177 0.788263 0.379891 0.036212
C36   C     C_R   0.487154 0.718693 0.478314 0.123737
C37   C     C_3   0.035363 0.968149 0.411984 -0.496430
C38   C     C_3   0.891227 0.955454 0.418979 -0.206934
C39   C     C_3   0.082361 0.935029 0.600065 -0.363519
C40   C     C_3   0.098773 0.116082 0.468431 0.209724
C41   C     C_3   0.122482 0.005517 0.495033 -0.039040
C42   C     C_2   0.288543 0.349302 0.812014 0.515996
C43   C     C_2   0.549540 0.953628 0.863482 0.452291
C44   C     C_2   0.170792 0.194379 0.978170 0.527563
C45   C     C_R   0.444447 0.184453 0.200551 -0.108176
C46   C     C_2   0.257821 0.052864 0.176365 0.317649
C47   C     C_2   0.656104 0.300709 0.201475 0.400224
C48   C     C_2   0.316536 0.564143 0.768449 0.332597
C49   C     C_2   0.184018 0.547195 0.266868 0.594562
C50   C     C_2   0.856897 0.306629 0.721745 0.591213
C51   C     C_2   0.359214 0.402881 0.326367 0.307127
C52   C     C_2   0.835802 0.844324 0.451956 0.481125
C53   C     C_R   0.528574 0.812686 0.798658 -0.147516
C54   C     C_R   0.296284 0.222856 0.036432 -0.032925
C55   C     C_R   0.334410 0.154909 0.137503 -0.096585
C56   C     C_R   0.515792 0.281593 0.160418 -0.094029
Cl1   Cl    Cl    0.914905 0.215427 0.478940 -0.378233
Cl2   Cl    Cl    0.896117 0.526055 0.620019 -0.599081
Cl3   Cl    Cl    0.774601 0.104738 0.704147 -0.510791
Cl4   Cl    Cl    0.087355 0.700352 0.293962 -0.550771
Cl5   Cl    Cl    0.181721 0.160911 0.568858 -0.484739
Cu1   Cu    Cu3+1 0.465900 0.918260 0.475680 0.974835
Cu2   Cu    Cu3+1 0.534100 0.081740 0.524320 1.051743
H1    H     H_    0.060966 0.895791 0.418948 0.234900
H2    H     H_    0.239116 0.847743 0.354469 0.169709
H3    H     H_    0.415173 0.262025 0.479909 0.189858
H4    H     H_    0.838924 0.995739 0.340701 0.191095
H5    H     H_    0.700514 0.635225 0.545510 0.166323
H6    H     H_    0.082933 0.854561 0.613681 0.177987
H7    H     H_    0.889405 0.875639 0.639070 0.149864
H8    H     H_    0.139093 0.168521 0.398171 0.129707
H9    H     H_    0.921610 0.149190 0.361740 0.125922
H10   H     H_    0.216103 0.385754 0.748552 0.175788
H11   H     H_    0.493974 0.003377 0.795793 0.106602
H12   H     H_    0.151737 0.950177 0.663812 0.206101
H13   H     H_    0.147667 0.119919 0.974588 0.115936
H14   H     H_    0.302901 0.985605 0.200501 0.109671
H15   H     H_    0.712990 0.372989 0.165396 0.114807
H16   H     H_    0.266683 0.621137 0.767638 0.109298
H17   H     H_    0.186546 0.607504 0.191703 0.039934
H18   H     H_    0.852264 0.338005 0.775980 0.096194
H19   H     H_    0.444077 0.381854 0.317587 0.065342
H20   H     H_    0.869558 0.790216 0.527305 0.080545
H21   H     H_    0.953383 0.995532 0.648022 0.267607
H22   H     H_    0.514531 0.683079 0.762576 0.190641
H23   H     H_    0.598726 0.625822 0.165200 0.166498
H24   H     H_    0.052442 0.024919 0.335150 0.219984
H25   H     H_    0.567406 0.448101 0.201039 0.138659
H26   H     H_    0.588242 0.799648 0.044330 0.184674
H27   H     H_    0.572111 0.725933 0.532733 0.121315
N1    N     N_R   0.585360 0.204570 0.560800 -0.229461
N2    N     N_R   0.414550 0.795430 0.439160 -0.216224
O1    O     O_R   0.455060 0.022100 0.338110 -0.610389
O2    O     O_2   0.609839 0.987058 0.927747 -0.498955
O3    O     O_2   0.090119 0.252428 0.938066 -0.524310
O4    O     O_2   0.143567 0.043640 0.179767 -0.536954
O5    O     O_2   0.712479 0.234430 0.271273 -0.533953
O6    O     O_2   0.324198 0.562137 0.687287 -0.532261
O7    O     O_2   0.087995 0.484047 0.282668 -0.409548
O8    O     O_2   0.955999 0.276075 0.727400 -0.423076
O9    O     O_2   0.253874 0.368322 0.291226 -0.492580
O10   O     O_2   0.754456 0.814244 0.392764 -0.531280
O11   O     O_R   0.512640 0.160150 0.379180 -0.553316
O12   O     O_R   0.288900 0.930980 0.479450 -0.597431
O13   O     O_R   0.346480 0.069030 0.520520 -0.564308
O14   O     O_R   0.487360 0.839850 0.620820 -0.577041
O15   O     O_R   0.544940 0.977900 0.661890 -0.565912
O16   O     O_R   0.653520 0.930970 0.479480 -0.593237
O17   O     O_R   0.711100 0.069020 0.520550 -0.478936
O18   O     O_2   0.325671 0.275515 0.814217 -0.519749

loop_
_geom_bond_atom_site_label_1
_geom_bond_atom_site_label_2
_ccdc_geom_bond_type
C40   H8    S    
C34   H9    S    
C7    C8    A    
C39   C41   S    
C12   C23   S    
C52   O10   D    
C26   C27   A    
Cu1   Cu2   S    
C12   C28   S    
C34   C40   S    
C32   C36   A    
C48   H16   S    
C20   H3    S    
C37   C38   S    
C8    C42   S    
C9    H25   S    
C30   C31   A    
C3    C54   A    
Cu1   O16   S    
C4    C41   S    
C35   H2    S    
C43   O2    D    
C18   C19   A    
C44   H13   S    
C16   C53   S    
C16   O15   A    
C33   C35   A    
C24   C29   A    
C45   C56   A    
Cu1   N2    S    
C46   C55   S    
C34   Cl1   S    
C31   C33   A    
C39   H12   S    
Cu2   O13   S    
C9    C10   A    
C1    O11   A    
C16   O14   A    
C35   N2    A    
C36   N2    A    
C43   H11   S    
C17   C53   A    
C21   C22   A    
C12   C38   S    
C23   H7    S    
Cu1   O12   S    
C20   N1    A    
C23   H21   S    
C24   C25   A    
Cu2   O11   S    
C3    C8    A    
C19   Cl3   S    
C25   C26   A    
C40   Cl5   S    
Cu2   O17   S    
C52   H20   S    
C14   H26   S    
C5    C9    A    
C29   C30   A    
C49   O7    D    
C31   C32   A    
C39   H6    S    
C46   O4    D    
C38   H4    S    
C51   H19   S    
C40   C41   S    
C30   C49   S    
C33   Cl4   S    
C22   C27   A    
C17   H22   S    
C21   C24   A    
C2    C5    A    
Cu2   O15   S    
C15   C53   A    
C37   H1    S    
C18   C50   S    
C29   C51   S    
C36   H27   S    
C54   C55   A    
C10   H23   S    
C42   H10   S    
C18   C22   A    
C37   H24   S    
C27   Cl2   S    
C46   H14   S    
C6    C7    A    
Cu1   O14   S    
C28   O17   A    
C51   O9    D    
C48   O6    D    
C4    O13   A    
C50   O8    D    
C47   O5    D    
C49   H17   S    
C13   C17   A    
C26   H5    S    
C7    C48   S    
C2    C3    A    
C42   O18   D    
C15   C43   S    
C44   O3    D    
C2    C56   A    
C6    C13   A    
C11   C13   A    
C1    C45   S    
C5    C6    A    
C28   O16   A    
C23   C39   S    
C4    O12   A    
C11   C14   A    
C37   C41   S    
C19   N1    A    
C10   C11   A    
C44   C54   S    
C38   C52   S    
C20   C21   A    
C45   C55   A    
C1    O1    A    
Cu1   O1    S    
Cu2   N1    S    
C14   C15   A    
C47   H15   S    
C12   C34   S    
C50   H18   S    
C47   C56   S    
C25   C32   A    
