data_mof_unit_54203.cif
_audit_creation_date              2012-12-11T16:31:33-0500
_audit_creation_method            fapswitch 2.2
_symmetry_space_group_name_H-M    P1
_symmetry_Int_Tables_number       1
_space_group_crystal_system       triclinic
_cell_length_a                    6.942773
_cell_length_b                    18.192896
_cell_length_c                    20.282326
_cell_angle_alpha                 68.425894
_cell_angle_beta                  90.690279
_cell_angle_gamma                 90.818576
_cell_volume                      2382.06090333

loop_
_atom_site_label
_atom_site_type_symbol
_atom_type_description
_atom_site_fract_x
_atom_site_fract_y
_atom_site_fract_z
_atom_type_partial_charge
O1    O     O_R   0.488990 0.443920 0.942160 -0.535127
O2    O     O_R   0.823840 0.406530 0.087600 -0.541473
O3    O     O_R   0.999650 0.556080 0.057840 -0.548297
C1    C     C_R   0.655176 0.383510 0.115101 0.685270
O4    O     O_R   0.818390 0.434590 0.944530 -0.542677
O5    O     O_R   0.994160 0.584350 0.913750 -0.540679
C2    C     C_R   0.648765 0.420561 0.924005 0.719226
O6    O     O_R   0.494480 0.415650 0.086250 -0.541309
O7    O     O_3   0.662600 0.549100 0.990070 -0.359654
V1    V     V_3+5 0.935320 0.490890 0.001840 1.421691
O8    O     O_R   0.324240 0.593470 0.912400 -0.528101
C3    C     C_R   0.154937 0.618198 0.885897 0.680205
O9    O     O_R   0.329690 0.565410 0.055470 -0.519334
C4    C     C_R   0.162536 0.576063 0.078774 0.736767
V2    V     V_3+5 0.435990 0.509110 0.998160 1.474833
O10   O     O_3   0.158840 0.450900 0.009930 -0.373921
C5    C     C_3   0.928214 0.729948 0.215865 -0.323677
C6    C     C_3   0.208240 0.654424 0.287456 -0.326657
C7    C     C_3   0.203012 0.703582 0.336085 -0.265663
H1    H     H_    0.832704 0.676736 0.234547 0.169557
H2    H     H_    0.357785 0.633920 0.285859 0.162743
H3    H     H_    0.115294 0.600835 0.310294 0.159768
H4    H     H_    0.115712 0.671797 0.383934 0.201273
H5    H     H_    0.351180 0.708951 0.355334 0.166531
C8    C     C_1   0.110098 0.873320 0.379585 -0.154107
C9    C     C_3   0.138320 0.704186 0.211263 0.232027
C10   C     C_3   0.916670 0.778916 0.265122 -0.106145
C11   C     C_3   0.120792 0.787290 0.295375 0.220092
C12   C     C_3   0.254866 0.828600 0.231204 -0.379994
C13   C     C_3   0.266751 0.779624 0.182601 -0.302727
C14   C     C_1   0.115170 0.834542 0.341955 -0.085120
C15   C     C_1   0.148638 0.657836 0.164162 -0.069338
C16   C     C_1   0.155788 0.620423 0.125405 -0.123004
H6    H     H_    0.220354 0.816741 0.127864 0.156583
H7    H     H_    0.419073 0.762842 0.179632 0.151547
H8    H     H_    0.200284 0.888711 0.199824 0.141028
H9    H     H_    0.875727 0.766797 0.161859 0.125739
H10   H     H_    0.867004 0.839285 0.231828 0.061856
H11   H     H_    0.401933 0.836396 0.250192 0.138713
H12   H     H_    0.900899 0.527222 0.704816 0.145114
C17   C     C_R   0.268226 0.785652 0.871285 0.003698
C18   C     C_R   0.353986 0.859590 0.860066 -0.099150
C19   C     C_R   0.358245 0.917916 0.793366 -0.184957
C20   C     C_R   0.275898 0.904015 0.736630 -0.140033
C21   C     C_R   0.201145 0.828524 0.743832 0.078872
C22   C     C_R   0.203572 0.766043 0.812099 -0.013008
C23   C     C_R   0.121171 0.816041 0.684030 -0.164853
C24   C     C_R   0.056788 0.739622 0.690266 0.033065
C25   C     C_R   0.070023 0.675565 0.756568 0.082268
C26   C     C_R   0.142025 0.688051 0.817824 -0.182055
C27   C     C_R   0.986161 0.725036 0.630290 -0.127951
C28   C     C_R   0.928384 0.649138 0.635120 0.025743
C29   C     C_R   0.942915 0.586536 0.700106 -0.163632
C30   C     C_R   0.013646 0.599120 0.759656 -0.125991
H13   H     H_    0.407092 0.874445 0.904140 0.145872
H14   H     H_    0.417801 0.975713 0.786118 0.118544
H15   H     H_    0.272684 0.953995 0.687118 0.122857
H16   H     H_    0.978032 0.772178 0.578860 0.141581
H17   H     H_    0.024980 0.547515 0.807816 0.122994
H18   H     H_    0.951887 0.455496 0.304136 0.116182
C31   C     C_R   0.479459 0.233782 0.126018 -0.133618
C32   C     C_R   0.392585 0.162980 0.129429 -0.123496
C33   C     C_R   0.380531 0.099753 0.193780 -0.128027
C34   C     C_R   0.455292 0.106825 0.255237 -0.143852
C35   C     C_R   0.542480 0.178287 0.253739 0.069310
C36   C     C_R   0.554796 0.243198 0.187659 0.069971
C37   C     C_R   0.620506 0.185082 0.316311 -0.185921
C38   C     C_R   0.710828 0.256999 0.312585 0.069338
C39   C     C_R   0.723231 0.321899 0.246494 0.069681
C40   C     C_R   0.645096 0.315115 0.183933 -0.184982
C41   C     C_R   0.786121 0.266427 0.374224 -0.135873
C42   C     C_R   0.873117 0.337218 0.370798 -0.110589
C43   C     C_R   0.885390 0.400411 0.306426 -0.115443
C44   C     C_R   0.810629 0.393332 0.244969 -0.148270
H19   H     H_    0.488294 0.280545 0.074375 0.101108
H20   H     H_    0.335644 0.156967 0.081718 0.107618
H21   H     H_    0.314208 0.044646 0.196054 0.106387
H22   H     H_    0.445125 0.055323 0.303602 0.109709
H23   H     H_    0.777175 0.219677 0.425872 0.105196
H24   H     H_    0.930024 0.343243 0.418508 0.120677
H25   H     H_    0.820983 0.444795 0.196578 0.109565
O11   O     O_R   0.770890 0.084490 0.414040 -0.538466
O12   O     O_R   0.445980 0.065450 0.555510 -0.541819
O13   O     O_R   0.270670 0.915620 0.586180 -0.536702
C45   C     C_R   0.615426 0.079693 0.576045 0.720760
O14   O     O_R   0.441480 0.093500 0.412450 -0.539373
O15   O     O_R   0.266140 0.943870 0.442100 -0.538638
C46   C     C_R   0.610271 0.116666 0.385132 0.689684
O16   O     O_R   0.775410 0.056240 0.558120 -0.537656
O17   O     O_3   0.602660 0.950990 0.510100 -0.361758
V3    V     V_3+5 0.329740 0.009100 0.498130 1.428446
O18   O     O_R   0.936120 0.934420 0.444240 -0.535131
C47   C     C_R   0.103798 0.920017 0.424165 0.728658
O19   O     O_R   0.940610 0.906370 0.587310 -0.538102
C48   C     C_R   0.109763 0.883201 0.614586 0.686703
V4    V     V_3+5 0.829110 0.990690 0.501470 1.443847
O20   O     O_3   0.106080 0.049010 0.489880 -0.370347
C49   C     C_3   0.674975 0.298885 0.663673 -0.336364
C50   C     C_3   0.431829 0.204624 0.742349 -0.331269
C51   C     C_3   0.432918 0.252297 0.792231 -0.308375
H26   H     H_    0.565098 0.322581 0.620926 0.190390
H27   H     H_    0.395198 0.141656 0.773433 0.136809
H28   H     H_    0.317610 0.227801 0.701166 0.151610
H29   H     H_    0.316883 0.297095 0.775794 0.184878
H30   H     H_    0.399583 0.211709 0.847227 0.128674
C52   C     C_1   0.638674 0.375364 0.878195 -0.169172
C53   C     C_3   0.630626 0.210321 0.706462 0.230182
C54   C     C_3   0.679094 0.347396 0.713175 0.268783
C55   C     C_3   0.631915 0.292922 0.791034 0.219350
C56   C     C_3   0.785959 0.227016 0.815206 -0.420177
C57   C     C_3   0.785699 0.178994 0.765602 -0.336447
C58   C     C_1   0.634258 0.338121 0.839248 -0.028300
C59   C     C_1   0.629074 0.163844 0.659389 -0.080147
C60   C     C_1   0.625098 0.125671 0.621216 -0.191124
H31   H     H_    0.930563 0.183219 0.741468 0.144764
H32   H     H_    0.757376 0.115468 0.797391 0.151708
H33   H     H_    0.931407 0.253633 0.815056 0.143650
H34   H     H_    0.816939 0.304886 0.637167 0.122344
H35   H     H_    0.826316 0.372896 0.711977 0.089683
H36   H     H_    0.757058 0.186364 0.870574 0.160005
C61   C     C_2   0.767985 0.745719 0.322853 0.379900
H37   H     H_    0.680500 0.785987 0.337780 0.049419
O21   O     O_2   0.749409 0.674612 0.354956 -0.521637
C62   C     C_2   0.226222 0.737251 0.945784 0.347864
H38   H     H_    0.093301 0.703477 0.959259 0.029660
O22   O     O_2   0.335248 0.738235 0.993191 -0.543738
C63   C     C_2   0.855031 0.634016 0.572417 0.410193
H39   H     H_    0.811664 0.574612 0.577491 0.101260
O23   O     O_2   0.842140 0.687366 0.514486 -0.525912
Cl1   Cl    Cl    0.518916 0.429827 0.680131 -0.710664

loop_
_geom_bond_atom_site_label_1
_geom_bond_atom_site_label_2
_ccdc_geom_bond_type
C8    C14   T    
C50   H28   S    
C9    C15   S    
O15   V3    S    
C6    H2    S    
C17   C18   A    
O2    C1    A    
C6    C9    S    
O18   V4    S    
C1    O6    A    
C4    C16   S    
C1    C40   S    
C10   C61   S    
C52   C58   T    
C21   C22   A    
C31   H19   S    
C8    C47   S    
C12   H8    S    
C51   H30   S    
C12   C13   S    
C13   H7    S    
C5    C9    S    
C17   C62   S    
C45   C60   S    
O14   V3    S    
O5    C3    A    
O14   C46   A    
C10   H10   S    
V2    O10   S    
H18   C43   S    
C51   H29   S    
C5    H1    S    
C49   C54   S    
C54   C55   S    
C6    C7    S    
C43   C44   A    
C56   C57   S    
C53   C59   S    
O8    V2    S    
C31   C36   A    
C24   C27   A    
O19   C48   A    
C23   C24   A    
C38   C39   A    
C35   C37   A    
C17   C22   A    
C57   H32   S    
O1    V2    S    
O13   V3    S    
O7    V1    S    
C54   Cl1   S    
C51   C55   S    
C6    H3    S    
O9    C4    A    
C54   H35   S    
C32   H20   S    
C31   C32   A    
C53   C57   S    
C56   H33   S    
C41   H23   S    
C28   C63   S    
C49   H34   S    
C30   H17   S    
C21   C23   A    
O11   V4    S    
C13   H6    S    
C27   C28   A    
C5    C10   S    
C55   C58   S    
C56   H36   S    
O4    C2    A    
C45   O16   A    
C29   C30   A    
C49   C53   S    
C37   C38   A    
O13   C48   A    
C7    H4    S    
C19   C20   A    
C63   O23   D    
C32   C33   A    
C18   H13   S    
C50   C51   S    
C20   H15   S    
V4    O20   S    
C12   H11   S    
C37   C46   S    
C2    C52   S    
C39   C44   A    
C27   H16   S    
C5    H9    S    
V3    O20   S    
O19   V4    S    
C7    C11   S    
C61   H37   S    
O3    C4    A    
C24   C25   A    
O12   C45   A    
C9    C13   S    
O6    V2    S    
O9    V2    S    
C18   C19   A    
C44   H25   S    
C63   H39   S    
O2    V1    S    
O12   V3    S    
C28   C29   A    
C62   O22   D    
C59   C60   T    
C33   H21   S    
C11   C12   S    
O1    C2    A    
C34   H22   S    
C11   C14   S    
C20   C21   A    
C42   C43   A    
O5    V1    S    
C3    C26   S    
O8    C3    A    
H12   C29   S    
O17   V4    S    
C49   H26   S    
C50   C53   S    
C22   C26   A    
C15   C16   T    
O16   V4    S    
C7    H5    S    
O7    V2    S    
O4    V1    S    
C42   H24   S    
O3    V1    S    
V1    O10   S    
C55   C56   S    
C34   C35   A    
O17   V3    S    
C36   C40   A    
C38   C41   A    
O11   C46   A    
O15   C47   A    
O18   C47   A    
C35   C36   A    
C39   C40   A    
C61   O21   D    
C33   C34   A    
C19   H14   S    
C41   C42   A    
C50   H27   S    
C25   C26   A    
C10   C11   S    
C23   C48   S    
C57   H31   S    
C25   C30   A    
C62   H38   S    
