data_mof_unit_64309.cif
_audit_creation_date              2013-03-05T16:31:45-0500
_audit_creation_method            fapswitch 2.2
_symmetry_space_group_name_H-M    P1
_symmetry_Int_Tables_number       1
_space_group_crystal_system       triclinic
_cell_length_a                    22.458295
_cell_length_b                    25.934894
_cell_length_c                    22.448402
_cell_angle_alpha                 89.999735
_cell_angle_beta                  89.999714
_cell_angle_gamma                 90.000199
_cell_volume                      13075.1503194

loop_
_atom_site_label
_atom_site_type_symbol
_atom_site_description
_atom_site_fract_x
_atom_site_fract_y
_atom_site_fract_z
_atom_type_partial_charge
Zn1   Zn    Zn3+2 0.450550 0.206230 0.700550 1.031861
Zn2   Zn    Zn3+2 0.450550 0.206230 0.299450 1.031900
Zn3   Zn    Zn3+2 0.450550 0.793770 0.299450 1.038364
Zn4   Zn    Zn3+2 0.450550 0.793770 0.700550 1.038335
Zn5   Zn    Zn3+2 0.450550 0.706230 0.200550 1.038485
Zn6   Zn    Zn3+2 0.450550 0.706230 0.799450 1.038397
Zn7   Zn    Zn3+2 0.450550 0.293770 0.799450 1.031931
Zn8   Zn    Zn3+2 0.450550 0.293770 0.200550 1.032176
Zn9   Zn    Zn3+2 0.950550 0.206230 0.200550 1.031969
Zn10  Zn    Zn3+2 0.950550 0.206230 0.799450 1.031942
Zn11  Zn    Zn3+2 0.950550 0.793770 0.799450 1.038414
Zn12  Zn    Zn3+2 0.950550 0.793770 0.200550 1.038466
Zn13  Zn    Zn3+2 0.950550 0.706230 0.700550 1.038362
Zn14  Zn    Zn3+2 0.950550 0.706230 0.299450 1.038350
Zn15  Zn    Zn3+2 0.950550 0.293770 0.299450 1.031869
Zn16  Zn    Zn3+2 0.950550 0.293770 0.700550 1.031870
Zn17  Zn    Zn3+2 0.549450 0.293780 0.700550 1.089118
Zn18  Zn    Zn3+2 0.549450 0.293780 0.299450 1.088851
Zn19  Zn    Zn3+2 0.549450 0.706220 0.299450 1.073855
Zn20  Zn    Zn3+2 0.549450 0.706220 0.700550 1.073959
Zn21  Zn    Zn3+2 0.549450 0.793780 0.200550 1.073914
Zn22  Zn    Zn3+2 0.549450 0.793780 0.799450 1.073945
Zn23  Zn    Zn3+2 0.549450 0.206220 0.799450 1.089152
Zn24  Zn    Zn3+2 0.549450 0.206220 0.200550 1.089264
Zn25  Zn    Zn3+2 0.049450 0.293780 0.200550 1.089164
Zn26  Zn    Zn3+2 0.049450 0.293780 0.799450 1.089169
Zn27  Zn    Zn3+2 0.049450 0.706220 0.799450 1.073981
Zn28  Zn    Zn3+2 0.049450 0.706220 0.200550 1.073989
Zn29  Zn    Zn3+2 0.049450 0.793780 0.700550 1.073957
Zn30  Zn    Zn3+2 0.049450 0.793780 0.299450 1.073975
Zn31  Zn    Zn3+2 0.049450 0.206220 0.299450 1.089145
Zn32  Zn    Zn3+2 0.049450 0.206220 0.700550 1.089122
O1    O     O_3   0.500000 0.250000 0.750000 -0.533627
O2    O     O_3   0.500000 0.250000 0.250000 -0.533645
O3    O     O_3   0.500000 0.750000 0.250000 -0.529750
O4    O     O_3   0.500000 0.750000 0.750000 -0.529752
O5    O     O_3   0.000000 0.250000 0.250000 -0.533644
O6    O     O_3   0.000000 0.250000 0.750000 -0.533637
O7    O     O_3   0.000000 0.750000 0.750000 -0.529769
O8    O     O_3   0.000000 0.750000 0.250000 -0.529779
O9    O     O_R   0.465380 0.366870 0.784620 -0.661426
O10   O     O_R   0.465380 0.366870 0.215380 -0.661456
O11   O     O_R   0.465380 0.633130 0.215380 -0.642828
O12   O     O_R   0.465380 0.633130 0.784620 -0.642817
O13   O     O_R   0.465380 0.866870 0.284620 -0.642818
O14   O     O_R   0.465380 0.866870 0.715380 -0.642809
O15   O     O_R   0.465380 0.133130 0.715380 -0.661426
O16   O     O_R   0.465380 0.133130 0.284620 -0.661343
O17   O     O_R   0.965380 0.366870 0.284620 -0.661421
O18   O     O_R   0.965380 0.366870 0.715380 -0.661422
O19   O     O_R   0.965380 0.633130 0.715380 -0.642815
O20   O     O_R   0.965380 0.633130 0.284620 -0.642814
O21   O     O_R   0.965380 0.866870 0.784620 -0.642811
O22   O     O_R   0.965380 0.866870 0.215380 -0.642804
O23   O     O_R   0.965380 0.133130 0.215380 -0.661420
O24   O     O_R   0.965380 0.133130 0.784620 -0.661424
O25   O     O_R   0.534610 0.280640 0.617980 -0.612806
O26   O     O_R   0.534610 0.280640 0.382020 -0.612812
O27   O     O_R   0.534610 0.719360 0.382020 -0.619308
O28   O     O_R   0.534610 0.719360 0.617980 -0.619324
O29   O     O_R   0.534610 0.780640 0.117980 -0.619467
O30   O     O_R   0.534610 0.780640 0.882020 -0.619374
O31   O     O_R   0.534610 0.219360 0.882020 -0.612826
O32   O     O_R   0.534610 0.219360 0.117980 -0.612833
O33   O     O_R   0.034610 0.280640 0.117980 -0.612809
O34   O     O_R   0.034610 0.280640 0.882020 -0.612811
O35   O     O_R   0.034610 0.719360 0.882020 -0.619337
O36   O     O_R   0.034610 0.719360 0.117980 -0.619332
O37   O     O_R   0.034610 0.780640 0.617980 -0.619330
O38   O     O_R   0.034610 0.780640 0.382020 -0.619337
O39   O     O_R   0.034610 0.219360 0.382020 -0.612813
O40   O     O_R   0.034610 0.219360 0.617980 -0.612811
O41   O     O_R   0.632030 0.280640 0.715400 -0.615939
O42   O     O_R   0.632030 0.280640 0.284600 -0.615972
O43   O     O_R   0.632030 0.719360 0.284600 -0.614828
O44   O     O_R   0.632030 0.719360 0.715400 -0.614833
O45   O     O_R   0.632030 0.780640 0.215400 -0.614618
O46   O     O_R   0.632030 0.780640 0.784600 -0.614799
O47   O     O_R   0.632030 0.219360 0.784600 -0.615896
O48   O     O_R   0.632030 0.219360 0.215400 -0.615834
O49   O     O_R   0.132030 0.280640 0.215400 -0.615928
O50   O     O_R   0.132030 0.280640 0.784600 -0.615914
O51   O     O_R   0.132030 0.719360 0.784600 -0.614819
O52   O     O_R   0.132030 0.719360 0.215400 -0.614828
O53   O     O_R   0.132030 0.780640 0.715400 -0.614846
O54   O     O_R   0.132030 0.780640 0.284600 -0.614814
O55   O     O_R   0.132030 0.219360 0.284600 -0.615907
O56   O     O_R   0.132030 0.219360 0.715400 -0.615932
O57   O     O_R   0.367970 0.280650 0.784620 -0.626324
O58   O     O_R   0.367970 0.280650 0.215380 -0.626340
O59   O     O_R   0.367970 0.719350 0.215380 -0.625726
O60   O     O_R   0.367970 0.719350 0.784620 -0.625677
O61   O     O_R   0.367970 0.780650 0.284620 -0.625498
O62   O     O_R   0.367970 0.780650 0.715380 -0.625688
O63   O     O_R   0.367970 0.219350 0.715380 -0.626334
O64   O     O_R   0.367970 0.219350 0.284620 -0.626110
O65   O     O_R   0.867970 0.280650 0.284620 -0.626354
O66   O     O_R   0.867970 0.280650 0.715380 -0.626344
O67   O     O_R   0.867970 0.719350 0.715380 -0.625687
O68   O     O_R   0.867970 0.719350 0.284620 -0.625705
O69   O     O_R   0.867970 0.780650 0.784620 -0.625675
O70   O     O_R   0.867970 0.780650 0.215380 -0.625616
O71   O     O_R   0.867970 0.219350 0.215380 -0.626279
O72   O     O_R   0.867970 0.219350 0.784620 -0.626325
O73   O     O_R   0.465380 0.219370 0.617980 -0.635445
O74   O     O_R   0.465380 0.219370 0.382020 -0.635661
O75   O     O_R   0.465380 0.780630 0.382020 -0.630295
O76   O     O_R   0.465380 0.780630 0.617980 -0.630112
O77   O     O_R   0.465380 0.719370 0.117980 -0.629986
O78   O     O_R   0.465380 0.719370 0.882020 -0.630052
O79   O     O_R   0.465380 0.280630 0.882020 -0.635392
O80   O     O_R   0.465380 0.280630 0.117980 -0.635335
O81   O     O_R   0.965380 0.219370 0.117980 -0.635376
O82   O     O_R   0.965380 0.219370 0.882020 -0.635374
O83   O     O_R   0.965380 0.780630 0.882020 -0.630045
O84   O     O_R   0.965380 0.780630 0.117980 -0.630044
O85   O     O_R   0.965380 0.719370 0.617980 -0.630084
O86   O     O_R   0.965380 0.719370 0.382020 -0.630087
O87   O     O_R   0.965380 0.280630 0.382020 -0.635423
O88   O     O_R   0.965380 0.280630 0.617980 -0.635421
O89   O     O_R   0.534610 0.366870 0.715390 -0.576848
O90   O     O_R   0.534610 0.366870 0.284610 -0.576819
O91   O     O_R   0.534610 0.633130 0.284610 -0.603677
O92   O     O_R   0.534610 0.633130 0.715390 -0.603694
O93   O     O_R   0.534610 0.866870 0.215390 -0.603849
O94   O     O_R   0.534610 0.866870 0.784610 -0.603712
O95   O     O_R   0.534610 0.133130 0.784610 -0.576854
O96   O     O_R   0.534610 0.133130 0.215390 -0.577053
O97   O     O_R   0.034610 0.366870 0.215390 -0.576852
O98   O     O_R   0.034610 0.366870 0.784610 -0.576852
O99   O     O_R   0.034610 0.633130 0.784610 -0.603696
O100  O     O_R   0.034610 0.633130 0.215390 -0.603698
O101  O     O_R   0.034610 0.866870 0.715390 -0.603690
O102  O     O_R   0.034610 0.866870 0.284610 -0.603705
O103  O     O_R   0.034610 0.133130 0.284610 -0.576865
O104  O     O_R   0.034610 0.133130 0.715390 -0.576839
C1    C     C_R   0.501457 0.391341 0.751184 0.947923
C2    C     C_R   0.501457 0.391341 0.248816 0.947918
C3    C     C_R   0.501356 0.608693 0.248688 0.908296
C4    C     C_R   0.501356 0.608693 0.751312 0.908293
C5    C     C_R   0.501310 0.891310 0.251254 0.908034
C6    C     C_R   0.501355 0.891307 0.748690 0.908328
C7    C     C_R   0.501457 0.108659 0.748816 0.947963
C8    C     C_R   0.501463 0.108659 0.251182 0.947733
C9    C     C_R   0.001457 0.391341 0.251184 0.947926
C10   C     C_R   0.001457 0.391341 0.748816 0.947922
C11   C     C_R   0.001356 0.608693 0.748688 0.908291
C12   C     C_R   0.001356 0.608693 0.251312 0.908292
C13   C     C_R   0.001359 0.891307 0.751316 0.908299
C14   C     C_R   0.001357 0.891307 0.248688 0.908257
C15   C     C_R   0.001457 0.108659 0.248816 0.947858
C16   C     C_R   0.001456 0.108659 0.751184 0.947922
C17   C     C_R   0.500010 0.249991 0.590011 0.862263
C18   C     C_R   0.500010 0.249991 0.409989 0.861968
C19   C     C_R   0.500019 0.750018 0.409989 0.862650
C20   C     C_R   0.500019 0.750018 0.590011 0.862796
C21   C     C_R   0.500019 0.749981 0.090011 0.862642
C22   C     C_R   0.500019 0.749981 0.909989 0.862781
C23   C     C_R   0.500010 0.250009 0.909988 0.862294
C24   C     C_R   0.500010 0.250009 0.090011 0.862511
C25   C     C_R   0.000010 0.249991 0.090011 0.862289
C26   C     C_R   0.000010 0.249991 0.909988 0.862302
C27   C     C_R   0.000019 0.750018 0.909989 0.862800
C28   C     C_R   0.000019 0.750018 0.090011 0.862797
C29   C     C_R   0.000019 0.749981 0.590011 0.862795
C30   C     C_R   0.000019 0.749981 0.409989 0.862774
C31   C     C_R   0.000010 0.250009 0.409988 0.862255
C32   C     C_R   0.000010 0.250009 0.590012 0.862253
C33   C     C_R   0.660002 0.250000 0.750000 0.865470
C34   C     C_R   0.660002 0.250000 0.250000 0.864992
C35   C     C_R   0.660003 0.750000 0.250000 0.861729
C36   C     C_R   0.660003 0.750000 0.750000 0.862081
C37   C     C_R   0.160002 0.250000 0.250000 0.865518
C38   C     C_R   0.160002 0.250000 0.750000 0.865522
C39   C     C_R   0.160003 0.750000 0.750000 0.862120
C40   C     C_R   0.160003 0.750000 0.250000 0.862120
C41   C     C_R   0.340002 0.250000 0.750000 0.861946
C42   C     C_R   0.340002 0.250000 0.250000 0.862292
C43   C     C_R   0.340002 0.750000 0.250000 0.865943
C44   C     C_R   0.340002 0.750000 0.750000 0.865621
C45   C     C_R   0.840002 0.250000 0.250000 0.861876
C46   C     C_R   0.840002 0.250000 0.750000 0.861894
C47   C     C_R   0.840002 0.750000 0.750000 0.865572
C48   C     C_R   0.840002 0.750000 0.250000 0.865562
C49   C     C_1   0.276676 0.250000 0.750000 -0.095159
C50   C     C_1   0.276676 0.250000 0.250000 -0.095071
C51   C     C_1   0.276676 0.750000 0.250000 -0.094689
C52   C     C_1   0.276676 0.750000 0.750000 -0.094866
C53   C     C_1   0.776675 0.250000 0.250000 -0.095187
C54   C     C_1   0.776675 0.250000 0.750000 -0.095169
C55   C     C_1   0.776676 0.750000 0.750000 -0.094875
C56   C     C_1   0.776676 0.750000 0.250000 -0.094861
C57   C     C_1   0.223324 0.250000 0.750000 -0.079124
C58   C     C_1   0.223324 0.250000 0.250000 -0.079009
C59   C     C_1   0.223325 0.750000 0.250000 -0.078180
C60   C     C_1   0.223325 0.750000 0.750000 -0.078284
C61   C     C_1   0.723324 0.250000 0.250000 -0.079051
C62   C     C_1   0.723324 0.250000 0.750000 -0.079132
C63   C     C_1   0.723325 0.750000 0.750000 -0.078301
C64   C     C_1   0.723325 0.750000 0.250000 -0.078344
C65   C     C_3   0.444791 0.029835 0.778716 -0.037852
C66   C     C_3   0.444240 0.029863 0.222135 -0.037512
C67   C     C_3   0.447194 0.969631 0.217845 -0.022337
C68   C     C_3   0.447833 0.969616 0.782970 -0.021777
C69   C     C_3   0.447857 0.530384 0.283003 -0.021809
C70   C     C_3   0.447854 0.530384 0.717002 -0.021813
C71   C     C_3   0.444809 0.470166 0.721255 -0.037891
C72   C     C_3   0.444812 0.470166 0.278751 -0.037894
C73   C     C_3   0.944811 0.029833 0.278748 -0.037846
C74   C     C_3   0.944847 0.029832 0.721197 -0.037900
C75   C     C_3   0.947898 0.969615 0.716946 -0.021766
C76   C     C_3   0.947856 0.969615 0.283000 -0.021766
C77   C     C_3   0.947853 0.530384 0.782997 -0.021814
C78   C     C_3   0.947853 0.530384 0.217002 -0.021815
C79   C     C_3   0.944809 0.470166 0.221255 -0.037895
C80   C     C_3   0.944808 0.470166 0.778744 -0.037893
H1    H     H_    0.407408 0.039263 0.747880 0.128581
H2    H     H_    0.407336 0.039309 0.253541 0.128975
H3    H     H_    0.406835 0.954765 0.241231 0.149505
H4    H     H_    0.407101 0.954731 0.760265 0.148936
H5    H     H_    0.407111 0.545270 0.260325 0.148920
H6    H     H_    0.407109 0.545270 0.739685 0.148929
H7    H     H_    0.407409 0.460738 0.752070 0.128582
H8    H     H_    0.407409 0.460738 0.247939 0.128574
H9    H     H_    0.907410 0.039261 0.247935 0.128560
H10   H     H_    0.907415 0.039258 0.751973 0.128565
H11   H     H_    0.907128 0.954727 0.739581 0.148895
H12   H     H_    0.907111 0.954729 0.260321 0.148913
H13   H     H_    0.907109 0.545270 0.760314 0.148930
H14   H     H_    0.907109 0.545270 0.239685 0.148932
H15   H     H_    0.907409 0.460738 0.252071 0.128584
H16   H     H_    0.907409 0.460738 0.747928 0.128583
H17   H     H_    0.459896 0.044356 0.661814 0.129388
H18   H     H_    0.461178 0.044319 0.338749 0.128944
H19   H     H_    0.451660 0.960986 0.333119 0.131819
H20   H     H_    0.450412 0.961021 0.667630 0.132024
H21   H     H_    0.450360 0.538978 0.167661 0.132052
H22   H     H_    0.450367 0.538978 0.832344 0.132054
H23   H     H_    0.459848 0.455643 0.838166 0.129431
H24   H     H_    0.459840 0.455644 0.161838 0.129428
H25   H     H_    0.959845 0.044357 0.161836 0.129480
H26   H     H_    0.959760 0.044359 0.838128 0.129485
H27   H     H_    0.950281 0.961024 0.832292 0.132091
H28   H     H_    0.950364 0.961022 0.167659 0.132126
H29   H     H_    0.950369 0.538979 0.667656 0.132053
H30   H     H_    0.950368 0.538978 0.332344 0.132053
H31   H     H_    0.959849 0.455643 0.338166 0.129429
H32   H     H_    0.959850 0.455644 0.661834 0.129429
C81   C     C_3   0.501934 0.030012 0.682279 -0.005431
C82   C     C_3   0.502916 0.029992 0.317654 -0.005507
C83   C     C_3   0.497745 0.969874 0.317846 -0.015483
C84   C     C_3   0.496737 0.969896 0.682153 -0.015502
C85   C     C_3   0.496694 0.530103 0.182153 -0.015507
C86   C     C_3   0.496700 0.530103 0.817847 -0.015510
C87   C     C_3   0.501898 0.469987 0.817724 -0.005441
C88   C     C_3   0.501892 0.469987 0.182275 -0.005445
C89   C     C_3   0.001895 0.030013 0.182276 -0.005513
C90   C     C_3   0.001830 0.030014 0.817729 -0.005454
C91   C     C_3   0.996631 0.969898 0.817847 -0.015518
C92   C     C_3   0.996697 0.969897 0.182153 -0.015596
C93   C     C_3   0.996702 0.530103 0.682153 -0.015506
C94   C     C_3   0.996700 0.530103 0.317847 -0.015505
C95   C     C_3   0.001898 0.469987 0.317724 -0.005433
C96   C     C_3   0.001899 0.469988 0.682276 -0.005435
C97   C     C_3   0.558718 0.028773 0.784054 0.093108
C98   C     C_3   0.558033 0.028757 0.214903 0.093084
C99   C     C_3   0.561746 0.969406 0.222860 0.071928
C100  C     C_3   0.562273 0.969395 0.776041 0.071673
C101  C     C_3   0.562294 0.530605 0.275996 0.071602
C102  C     C_3   0.562290 0.530605 0.723997 0.071613
C103  C     C_3   0.558739 0.471227 0.715981 0.093090
C104  C     C_3   0.558744 0.471226 0.284013 0.093086
C105  C     C_3   0.058742 0.028773 0.284015 0.092960
C106  C     C_3   0.058787 0.028775 0.716054 0.093082
C107  C     C_3   0.062327 0.969394 0.724073 0.071575
C108  C     C_3   0.062293 0.969395 0.275998 0.071445
C109  C     C_3   0.062289 0.530605 0.776004 0.071616
C110  C     C_3   0.062290 0.530605 0.223997 0.071620
C111  C     C_3   0.058739 0.471227 0.215980 0.093094
C112  C     C_3   0.058738 0.471227 0.784020 0.093094
C113  C     C_3   0.503446 0.051144 0.748319 -0.241717
C114  C     C_3   0.503394 0.051144 0.251601 -0.241797
C115  C     C_3   0.503038 0.948754 0.252562 -0.271195
C116  C     C_3   0.503086 0.948752 0.747338 -0.271221
C117  C     C_3   0.503087 0.551248 0.247333 -0.271283
C118  C     C_3   0.503087 0.551248 0.752666 -0.271285
C119  C     C_3   0.503447 0.448856 0.751683 -0.241785
C120  C     C_3   0.503447 0.448856 0.248316 -0.241778
C121  C     C_3   0.003447 0.051144 0.248316 -0.241765
C122  C     C_3   0.003451 0.051144 0.751690 -0.241788
C123  C     C_3   0.003090 0.948752 0.752673 -0.271293
C124  C     C_3   0.003087 0.948752 0.247333 -0.271265
C125  C     C_3   0.003087 0.551248 0.747334 -0.271283
C126  C     C_3   0.003086 0.551248 0.252666 -0.271284
C127  C     C_3   0.003447 0.448856 0.251683 -0.241784
C128  C     C_3   0.003447 0.448856 0.748316 -0.241785
H33   H     H_    0.548724 0.035233 0.831845 0.186308
H34   H     H_    0.547155 0.035211 0.167296 0.186433
H35   H     H_    0.564922 0.952895 0.177274 0.182374
H36   H     H_    0.566219 0.952897 0.821566 0.182512
H37   H     H_    0.566271 0.547103 0.321518 0.182542
H38   H     H_    0.566263 0.547104 0.678474 0.182540
H39   H     H_    0.548774 0.464767 0.668185 0.186340
H40   H     H_    0.548784 0.464766 0.331810 0.186342
H41   H     H_    0.048780 0.035233 0.331812 0.186360
H42   H     H_    0.048885 0.035236 0.668245 0.186333
H43   H     H_    0.066352 0.952898 0.678554 0.182550
H44   H     H_    0.066268 0.952897 0.321521 0.182561
H45   H     H_    0.066261 0.547103 0.821527 0.182542
H46   H     H_    0.066263 0.547104 0.178474 0.182541
H47   H     H_    0.048774 0.464767 0.168184 0.186340
H48   H     H_    0.048772 0.464767 0.831816 0.186342
C129  C     C_1   0.500023 0.250024 0.973319 -0.093815
C130  C     C_1   0.500023 0.250024 0.026681 -0.093935
C131  C     C_1   0.500038 0.749954 0.026681 -0.092735
C132  C     C_1   0.500038 0.749954 0.973319 -0.092649
C133  C     C_1   0.500038 0.750045 0.473319 -0.092724
C134  C     C_1   0.500038 0.750045 0.526681 -0.092689
C135  C     C_1   0.500023 0.249977 0.526681 -0.093926
C136  C     C_1   0.500023 0.249977 0.473319 -0.093895
C137  C     C_1   0.000023 0.250024 0.473319 -0.093834
C138  C     C_1   0.000023 0.250024 0.526681 -0.093826
C139  C     C_1   0.000038 0.749955 0.526681 -0.092600
C140  C     C_1   0.000038 0.749954 0.473319 -0.092605
C141  C     C_1   0.000038 0.750045 0.973319 -0.092554
C142  C     C_1   0.000038 0.750045 0.026681 -0.092550
C143  C     C_1   0.000023 0.249976 0.026681 -0.093773
C144  C     C_1   0.000023 0.249976 0.973319 -0.093781
N1    N     N_R   0.428093 0.053690 0.836044 0.259648
O105  O     O_R   0.464328 0.082704 0.866383 -0.353307
O106  O     O_R   0.374518 0.046470 0.856493 -0.263036
N2    N     N_R   0.426685 0.053723 0.165058 0.260021
O107  O     O_R   0.462309 0.083075 0.134419 -0.354708
O108  O     O_R   0.372870 0.046361 0.145312 -0.262169
N3    N     N_R   0.444087 0.950078 0.156243 0.259351
O109  O     O_R   0.479982 0.966552 0.114905 -0.313379
O110  O     O_R   0.402655 0.917279 0.141877 -0.326519
N4    N     N_R   0.445757 0.950084 0.844619 0.259808
O111  O     O_R   0.482355 0.966556 0.885329 -0.313632
O112  O     O_R   0.404564 0.917304 0.859698 -0.326667
N5    N     N_R   0.445824 0.549915 0.344654 0.259844
O113  O     O_R   0.482450 0.533443 0.385339 -0.313272
O114  O     O_R   0.404640 0.582694 0.359762 -0.326646
N6    N     N_R   0.445814 0.549916 0.655352 0.259838
O115  O     O_R   0.482436 0.533445 0.614663 -0.313274
O116  O     O_R   0.404629 0.582695 0.640249 -0.326636
N7    N     N_R   0.428140 0.446311 0.663918 0.259648
O117  O     O_R   0.464396 0.417307 0.633590 -0.353100
O118  O     O_R   0.374574 0.453527 0.643444 -0.263090
N8    N     N_R   0.428148 0.446310 0.336090 0.259641
O119  O     O_R   0.464407 0.417308 0.366415 -0.353079
O120  O     O_R   0.374584 0.453525 0.356568 -0.263103
N9    N     N_R   0.928145 0.053689 0.336086 0.259635
O121  O     O_R   0.964403 0.082691 0.366413 -0.353097
O122  O     O_R   0.874580 0.046472 0.356562 -0.263382
N10   N     N_R   0.928238 0.053688 0.663842 0.259620
O123  O     O_R   0.964536 0.082667 0.633535 -0.353008
O124  O     O_R   0.874688 0.046482 0.643320 -0.263216
N11   N     N_R   0.945930 0.950085 0.655293 0.259868
O125  O     O_R   0.982599 0.966557 0.614646 -0.313280
O126  O     O_R   0.904761 0.917307 0.640140 -0.326686
N12   N     N_R   0.945820 0.950083 0.344651 0.259837
O127  O     O_R   0.982444 0.966555 0.385338 -0.313252
O128  O     O_R   0.904636 0.917304 0.359757 -0.326801
N13   N     N_R   0.945812 0.549915 0.844647 0.259837
O129  O     O_R   0.982433 0.533443 0.885337 -0.313275
O130  O     O_R   0.904627 0.582694 0.859750 -0.326624
N14   N     N_R   0.945814 0.549916 0.155353 0.259838
O131  O     O_R   0.982435 0.533445 0.114663 -0.313276
O132  O     O_R   0.904628 0.582695 0.140249 -0.326618
N15   N     N_R   0.928140 0.446311 0.163918 0.259651
O133  O     O_R   0.964395 0.417307 0.133590 -0.353102
O134  O     O_R   0.874574 0.453527 0.143445 -0.263071
N16   N     N_R   0.928138 0.446310 0.836081 0.259650
O135  O     O_R   0.964393 0.417306 0.866409 -0.353105
O136  O     O_R   0.874572 0.453526 0.856554 -0.263079
N17   N     N_R   0.617152 0.053737 0.775282 0.272777
O137  O     O_R   0.626915 0.087873 0.734075 -0.327096
O138  O     O_R   0.660088 0.043014 0.812201 -0.308123
N18   N     N_R   0.616630 0.053712 0.222576 0.272822
O139  O     O_R   0.627429 0.087229 0.264213 -0.325074
O140  O     O_R   0.658656 0.043464 0.184428 -0.308452
N19   N     N_R   0.615857 0.952234 0.254389 0.251596
O141  O     O_R   0.636076 0.976755 0.300700 -0.257935
O142  O     O_R   0.648802 0.916305 0.230891 -0.328400
N20   N     N_R   0.615810 0.952157 0.743605 0.251479
O143  O     O_R   0.635428 0.976761 0.697097 -0.257541
O144  O     O_R   0.648873 0.915958 0.766361 -0.329598
N21   N     N_R   0.615807 0.547844 0.243523 0.251448
O145  O     O_R   0.635399 0.523237 0.197005 -0.257514
O146  O     O_R   0.648877 0.584054 0.266248 -0.329624
N22   N     N_R   0.615807 0.547844 0.756464 0.251446
O147  O     O_R   0.635402 0.523237 0.802980 -0.257520
O148  O     O_R   0.648876 0.584052 0.733734 -0.329637
N23   N     N_R   0.617167 0.446262 0.724788 0.272768
O149  O     O_R   0.626898 0.412113 0.765988 -0.327159
O150  O     O_R   0.660130 0.456990 0.687902 -0.308167
N24   N     N_R   0.617171 0.446261 0.275198 0.272771
O151  O     O_R   0.626896 0.412110 0.233999 -0.327143
O152  O     O_R   0.660139 0.456992 0.312077 -0.308161
N25   N     N_R   0.117169 0.053739 0.275203 0.272814
O153  O     O_R   0.126897 0.087890 0.234004 -0.326916
O154  O     O_R   0.160135 0.043010 0.312085 -0.307897
N26   N     N_R   0.117204 0.053740 0.724940 0.272767
O155  O     O_R   0.126862 0.087934 0.766107 -0.327298
O156  O     O_R   0.160230 0.042980 0.688141 -0.308145
N27   N     N_R   0.115804 0.952150 0.756601 0.251436
O157  O     O_R   0.135357 0.976761 0.803133 -0.257467
O158  O     O_R   0.148883 0.915926 0.733920 -0.329711
N28   N     N_R   0.115808 0.952156 0.243528 0.251493
O159  O     O_R   0.135401 0.976764 0.197012 -0.257051
O160  O     O_R   0.148877 0.915948 0.266255 -0.329329
N29   N     N_R   0.115807 0.547844 0.743538 0.251445
O161  O     O_R   0.135403 0.523237 0.697022 -0.257525
O162  O     O_R   0.148875 0.584051 0.766268 -0.329638
N30   N     N_R   0.115807 0.547844 0.256463 0.251445
O163  O     O_R   0.135403 0.523237 0.302979 -0.257530
O164  O     O_R   0.148876 0.584052 0.233733 -0.329650
N31   N     N_R   0.117167 0.446262 0.224788 0.272769
O165  O     O_R   0.126898 0.412113 0.265988 -0.327177
O166  O     O_R   0.160129 0.456990 0.187901 -0.308163
N32   N     N_R   0.117166 0.446261 0.775213 0.272770
O167  O     O_R   0.126899 0.412114 0.734013 -0.327164
O168  O     O_R   0.160127 0.456988 0.812101 -0.308159
I1    I     I_    0.562914 0.064286 0.618652 -0.091725
I2    I     I_    0.564733 0.064289 0.380443 -0.091778
I3    I     I_    0.545242 0.927343 0.386805 -0.138975
I4    I     I_    0.543152 0.927420 0.612411 -0.139115
I5    I     I_    0.543064 0.572578 0.112377 -0.138208
I6    I     I_    0.543076 0.572577 0.887617 -0.138234
I7    I     I_    0.562843 0.435713 0.881383 -0.090873
I8    I     I_    0.562831 0.435714 0.118610 -0.090870
I9    I     I_    0.062838 0.064287 0.118613 -0.090413
I10   I     I_    0.062718 0.064285 0.881446 -0.090698
I11   I     I_    0.042931 0.927427 0.887672 -0.138093
I12   I     I_    0.043071 0.927424 0.112380 -0.137896
I13   I     I_    0.043079 0.572578 0.612384 -0.138284
I14   I     I_    0.043077 0.572577 0.387617 -0.138288
I15   I     I_    0.062843 0.435713 0.381383 -0.090912
I16   I     I_    0.062845 0.435714 0.618618 -0.090904

loop_
_geom_bond_atom_site_label_1
_geom_bond_atom_site_label_2
_geom_bond_distance
_ccdc_geom_bond_type
Zn29  O101  1.953276 S    
Zn4   O4    1.937586 S    
C13   C123  1.490656 S    
C98   H34   1.108980 S    
O40   C32   1.276653 A    
C103  H39   1.108769 S    
C65   N1    1.476355 S    
H18   C82   1.113978 S    
C97   C113  1.587764 S    
O88   C32   1.276614 A    
C108  N28   1.474999 S    
H22   C86   1.114292 S    
N18   O140  1.301860 A    
C87   I7    2.169263 S    
C78   N14   1.474452 S    
C88   I8    2.169264 S    
O98   C10   1.266013 A    
C1    C119  1.492352 S    
O15   C7    1.273837 A    
C105  C108  1.552510 S    
C27   C141  1.421662 S    
C36   C63   1.422104 S    
C106  C107  1.552554 S    
O60   C44   1.276863 A    
C6    C116  1.490651 S    
Zn13  O19   1.953450 S    
O63   C41   1.276869 A    
Zn14  O20   1.953453 S    
O50   C38   1.276479 A    
C80   C128  1.583125 S    
O64   C42   1.276866 A    
O48   C34   1.276478 A    
Zn11  O83   1.913833 S    
C77   N13   1.474446 S    
C76   C124  1.572394 S    
Zn2   O2    1.937575 S    
Zn5   O11   1.953450 S    
N29   O162  1.301430 A    
Zn6   O12   1.953453 S    
Zn25  O49   1.914898 S    
H26   C90   1.113902 S    
C105  C121  1.587757 S    
C102  C118  1.571198 S    
N14   O131  1.301246 A    
N9    O122  1.301341 A    
Zn29  O37   1.913875 S    
O36   C28   1.276690 A    
C7    C113  1.492354 S    
C66   C67   1.566493 S    
C139  C140  1.197898 T    
Zn7   O79   1.913833 S    
N26   O156  1.301531 A    
Zn22  O46   1.914896 S    
N22   O148  1.301432 A    
O69   C47   1.276864 A    
C9    C127  1.492352 S    
N3    O110  1.301294 A    
C10   C128  1.492354 S    
C70   C71   1.566156 S    
Zn26  O6    1.937738 S    
Zn24  O2    1.937739 S    
Zn31  O5    1.937738 S    
Zn12  O8    1.937586 S    
C112  N32   1.476535 S    
Zn6   O4    1.937575 S    
H31   C95   1.113902 S    
C71   N7    1.476355 S    
C78   C126  1.572397 S    
Zn9   O71   1.914725 S    
O99   C11   1.268731 A    
O46   C36   1.276484 A    
C69   N5    1.474459 S    
Zn11  O69   1.914726 S    
O95   C7    1.266006 A    
N2    O107  1.300998 A    
O23   C15   1.273830 A    
O96   C8    1.265896 A    
Zn18  O90   1.953273 S    
C68   H4    1.116080 S    
H23   C87   1.113900 S    
N21   O145  1.300508 A    
C105  H41   1.108768 S    
N19   O141  1.300530 A    
O87   C31   1.276614 A    
C77   H13   1.116078 S    
C106  H42   1.108766 S    
C53   C61   1.198188 T    
O27   C19   1.276690 A    
O80   C24   1.276616 A    
O71   C45   1.276867 A    
C109  N29   1.474995 S    
C16   C122  1.492356 S    
Zn14  O68   1.914728 S    
Zn21  O3    1.937727 S    
Zn22  O4    1.937738 S    
Zn10  O6    1.937575 S    
C85   I5    2.179764 S    
N30   O163  1.300506 A    
Zn2   O64   1.914728 S    
C108  H44   1.111467 S    
Zn19  O3    1.937738 S    
N13   O129  1.301244 A    
C109  H45   1.111464 S    
Zn16  O66   1.914722 S    
C111  C127  1.587755 S    
O86   C30   1.276581 A    
Zn24  O32   1.913872 S    
Zn15  O17   1.953447 S    
O83   C27   1.276581 A    
N8    O119  1.300885 A    
C72   C120  1.583131 S    
O81   C25   1.276611 A    
N3    O109  1.301353 A    
C42   C50   1.422198 S    
N15   O134  1.301337 A    
C137  C138  1.197903 T    
O33   C25   1.276652 A    
N11   O125  1.301249 A    
Zn28  O8    1.937739 S    
O10   C2    1.273828 A    
C74   C122  1.583127 S    
O75   C19   1.276583 A    
Zn1   O73   1.913829 S    
N18   O139  1.299243 A    
H32   C96   1.113900 S    
O73   C17   1.276612 A    
C92   C124  1.569161 S    
C71   H7    1.115255 S    
C93   C125  1.569156 S    
C14   C124  1.490655 S    
N31   O165  1.299052 A    
H28   C92   1.114290 S    
O31   C23   1.276652 A    
O77   C21   1.276578 A    
C23   C129  1.421664 S    
N25   O153  1.299052 A    
C89   C121  1.580939 S    
O22   C14   1.270257 A    
N20   O144  1.301433 A    
O16   C8    1.273946 A    
Zn5   O77   1.913829 S    
C29   C139  1.421660 S    
Zn28  O36   1.913872 S    
C106  N26   1.476553 S    
Zn16  O88   1.913832 S    
Zn6   O60   1.914728 S    
Zn22  O30   1.913868 S    
N12   O127  1.301247 A    
C25   C143  1.421662 S    
C110  C126  1.571199 S    
O91   C3    1.268732 A    
O56   C38   1.276479 A    
O89   C1    1.266012 A    
O44   C36   1.276485 A    
C91   I11   2.179777 S    
N16   O135  1.300883 A    
Zn15  O5    1.937584 S    
C75   C123  1.572387 S    
C67   N3    1.474577 S    
O93   C5    1.268543 A    
Zn30  O102  1.953273 S    
C20   C134  1.421660 S    
C99   H35   1.111610 S    
C91   C123  1.569182 S    
C44   C52   1.422189 S    
Zn29  O53   1.914898 S    
C98   C114  1.587943 S    
Zn31  O39   1.913872 S    
O20   C12   1.270254 A    
O39   C31   1.276653 A    
Zn17  O41   1.914898 S    
C74   H10   1.115257 S    
C66   N2    1.476501 S    
H20   C84   1.114291 S    
Zn15  O87   1.913833 S    
N10   O124  1.301340 A    
Zn18  O26   1.913868 S    
O21   C13   1.270242 A    
C103  N23   1.476539 S    
N5    O114  1.301228 A    
Zn13  O7    1.937589 S    
C79   C127  1.583130 S    
H24   C88   1.113905 S    
Zn26  O34   1.913868 S    
N26   O155  1.299047 A    
H30   C94   1.114291 S    
C56   C64   1.198186 T    
C83   C115  1.569046 S    
Zn19  O27   1.913872 S    
C80   N16   1.476356 S    
Zn2   O74   1.913835 S    
Zn28  O100  1.953270 S    
O49   C37   1.276476 A    
Zn13  O67   1.914725 S    
C104  N24   1.476547 S    
C35   C64   1.422104 S    
N12   O128  1.301228 A    
C75   N11   1.474457 S    
Zn3   O3    1.937584 S    
Zn1   O63   1.914725 S    
C94   C126  1.569158 S    
Zn3   O61   1.914726 S    
Zn8   O2    1.937586 S    
C106  C122  1.587763 S    
N28   O159  1.300506 A    
Zn5   O59   1.914725 S    
N4    O112  1.301228 A    
N32   O167  1.299048 A    
N24   O152  1.301548 A    
Zn20  O28   1.913872 S    
C37   C58   1.422095 S    
C68   N4    1.474452 S    
C81   C84   1.563468 S    
Zn21  O29   1.913875 S    
C50   C58   1.198188 T    
C83   I3    2.179662 S    
Zn26  O98   1.953273 S    
C93   C96   1.563466 S    
C111  H47   1.108770 S    
C94   C95   1.563466 S    
C72   H8    1.115258 S    
C46   C54   1.422198 S    
C95   I15   2.169261 S    
C89   C92   1.563468 S    
Zn9   O81   1.913829 S    
C66   H2    1.115324 S    
C90   C91   1.563465 S    
C100  H36   1.111467 S    
C101  H37   1.111469 S    
O18   C10   1.273829 A    
C70   H6    1.116080 S    
Zn5   O3    1.937589 S    
Zn23  O31   1.913872 S    
C112  C128  1.587752 S    
C30   C140  1.421660 S    
N27   O158  1.301435 A    
C40   C59   1.422104 S    
O37   C29   1.276691 A    
N17   O138  1.301539 A    
O38   C30   1.276687 A    
Zn27  O35   1.913872 S    
C72   N8    1.476360 S    
C26   C144  1.421662 S    
N6    O115  1.301249 A    
O12   C4    1.270254 A    
C109  C112  1.552502 S    
C70   N6    1.474451 S    
Zn24  O96   1.953270 S    
C95   C127  1.580940 S    
C110  C111  1.552505 S    
C4    C118  1.490652 S    
C34   C61   1.422097 S    
Zn12  O84   1.913832 S    
O72   C46   1.276866 A    
O58   C42   1.276863 A    
N29   O161  1.300504 A    
Zn28  O52   1.914896 S    
N13   O130  1.301226 A    
Zn7   O1    1.937584 S    
C86   I6    2.179757 S    
N14   O132  1.301228 A    
N9    O121  1.300883 A    
O61   C43   1.276864 A    
H17   C81   1.113902 S    
O14   C6    1.270264 A    
Zn4   O76   1.913832 S    
C81   C113  1.580933 S    
C94   I14   2.179757 S    
H21   C85   1.114296 S    
N31   O166  1.301538 A    
Zn16  O18   1.953451 S    
C98   N18   1.476592 S    
Zn8   O80   1.913832 S    
C71   C119  1.583130 S    
O82   C26   1.276613 A    
C43   C51   1.422192 S    
N15   O133  1.300885 A    
C87   C119  1.580938 S    
C73   C76   1.566154 S    
C41   C49   1.422201 S    
C88   C120  1.580944 S    
O79   C23   1.276616 A    
O26   C18   1.276648 A    
O104  C16   1.266016 A    
C45   C53   1.422201 S    
O85   C29   1.276576 A    
O74   C18   1.276615 A    
C48   C56   1.422189 S    
C97   N17   1.476539 S    
O30   C22   1.276687 A    
O24   C16   1.273819 A    
C111  N31   1.476540 S    
O78   C22   1.276581 A    
C24   C130  1.421664 S    
Zn6   O78   1.913835 S    
C90   C122  1.580944 S    
C86   C118  1.569158 S    
H29   C93   1.114291 S    
C131  C132  1.197898 T    
Zn26  O50   1.914896 S    
O13   C5    1.270404 A    
C104  H40   1.108774 S    
Zn17  O1    1.937727 S    
Zn30  O38   1.913868 S    
O84   C28   1.276582 A    
O55   C37   1.276475 A    
Zn31  O55   1.914893 S    
O90   C2    1.266014 A    
Zn31  O103  1.953274 S    
N7    O117  1.300884 A    
Zn32  O104  1.953270 S    
O101  C13   1.268740 A    
Zn1   O15   1.953450 S    
C19   C133  1.421662 S    
Zn2   O16   1.953453 S    
C82   C83   1.563471 S    
O25   C17   1.276651 A    
Zn3   O13   1.953447 S    
C21   C131  1.421660 S    
C69   C117  1.572401 S    
C22   C132  1.421660 S    
O66   C46   1.276863 A    
C76   N12   1.474451 S    
O28   C20   1.276690 A    
C86   C87   1.563466 S    
O29   C21   1.276690 A    
C85   C88   1.563466 S    
O76   C20   1.276583 A    
C99   C115  1.571560 S    
Zn19  O91   1.953274 S    
Zn10  O82   1.913835 S    
O32   C24   1.276652 A    
O17   C9    1.273824 A    
H27   C91   1.114293 S    
N8    O120  1.301344 A    
H25   C89   1.113900 S    
Zn17  O89   1.953276 S    
C8    C114  1.492316 S    
O34   C26   1.276650 A    
Zn21  O93   1.953276 S    
C78   H14   1.116082 S    
C39   C60   1.422104 S    
C54   C62   1.198188 T    
Zn23  O95   1.953274 S    
C77   C80   1.566154 S    
C73   C121  1.583126 S    
O92   C4    1.268725 A    
C82   I2    2.169172 S    
N22   O147  1.300506 A    
Zn13  O85   1.913829 S    
N23   O149  1.299053 A    
C103  C119  1.587757 S    
C112  H48   1.108766 S    
C12   C126  1.490652 S    
C97   H33   1.108773 S    
O47   C33   1.276474 A    
Zn27  O51   1.914893 S    
N20   O143  1.300505 A    
C143  C144  1.197903 T    
C73   H9    1.115255 S    
C107  C123  1.571188 S    
C129  C130  1.197903 T    
C110  N30   1.474999 S    
O103  C15   1.266013 A    
Zn10  O72   1.914728 S    
O94   C6    1.268721 A    
C141  C142  1.197898 T    
O68   C48   1.276861 A    
N16   O136  1.301335 A    
C135  C136  1.197903 T    
C76   H12   1.116080 S    
C101  N21   1.475004 S    
C38   C57   1.422097 S    
C101  C104  1.552510 S    
N21   O146  1.301435 A    
C102  C103  1.552504 S    
C96   C128  1.580935 S    
O52   C40   1.276485 A    
Zn12  O22   1.953451 S    
N30   O164  1.301431 A    
O102  C14   1.268731 A    
O51   C39   1.276478 A    
Zn27  O99   1.953274 S    
N1    O105  1.300886 A    
C105  N25   1.476540 S    
H19   C83   1.114384 S    
Zn8   O10   1.953451 S    
Zn25  O97   1.953276 S    
Zn17  O25   1.913875 S    
Zn1   O1    1.937589 S    
C102  H38   1.111467 S    
Zn4   O14   1.953451 S    
N5    O113  1.301251 A    
C3    C117  1.490655 S    
C73   N9    1.476357 S    
C100  C116  1.571205 S    
C79   H15   1.115254 S    
C101  C117  1.571204 S    
C55   C63   1.198186 T    
C84   C116  1.569148 S    
C85   C117  1.569167 S    
Zn22  O94   1.953273 S    
Zn7   O57   1.914726 S    
C2    C120  1.492357 S    
Zn20  O44   1.914896 S    
C5    C115  1.490601 S    
Zn25  O5    1.937727 S    
Zn24  O48   1.914896 S    
Zn27  O7    1.937738 S    
Zn23  O1    1.937738 S    
O59   C43   1.276865 A    
C107  N27   1.475001 S    
N27   O157  1.300511 A    
O11   C3    1.270256 A    
Zn9   O23   1.953450 S    
Zn32  O6    1.937739 S    
Zn30  O54   1.914896 S    
Zn10  O24   1.953453 S    
N28   O160  1.301433 A    
Zn11  O21   1.953447 S    
O45   C35   1.276480 A    
C77   C125  1.572395 S    
Zn7   O9    1.953447 S    
Zn18  O42   1.914896 S    
C75   H11   1.116084 S    
N32   O168  1.301532 A    
C82   C114  1.581052 S    
C89   I9    2.169261 S    
C92   I12   2.179757 S    
C66   C114  1.583363 S    
C93   I13   2.179754 S    
N25   O154  1.301538 A    
Zn15  O65   1.914726 S    
Zn20  O92   1.953270 S    
O100  C12   1.268725 A    
Zn25  O33   1.913875 S    
C17   C135  1.421662 S    
C65   C113  1.583130 S    
C18   C136  1.421662 S    
C78   C79   1.566156 S    
Zn20  O4    1.937739 S    
C32   C138  1.421664 S    
C11   C125  1.490652 S    
Zn3   O75   1.913833 S    
C110  H46   1.111468 S    
C68   C116  1.572401 S    
C15   C121  1.492355 S    
C99   N19   1.475182 S    
N19   O142  1.301515 A    
Zn12  O70   1.914722 S    
C67   C115  1.572727 S    
N7    O118  1.301339 A    
C31   C137  1.421664 S    
C100  N20   1.475004 S    
C79   N15   1.476356 S    
O19   C11   1.270255 A    
Zn29  O7    1.937727 S    
Zn9   O5    1.937589 S    
N1    O106  1.301339 A    
Zn30  O8    1.937738 S    
N11   O126  1.301230 A    
O62   C44   1.276859 A    
Zn11  O7    1.937584 S    
Zn18  O2    1.937738 S    
N17   O137  1.299051 A    
Zn4   O62   1.914722 S    
N6    O116  1.301228 A    
N4    O111  1.301246 A    
O57   C41   1.276867 A    
O43   C35   1.276480 A    
C65   C68   1.566163 S    
Zn32  O56   1.914896 S    
Zn8   O58   1.914722 S    
C107  H43   1.111468 S    
Zn14  O86   1.913835 S    
C69   C72   1.566155 S    
O9    C1    1.273824 A    
C51   C59   1.198186 T    
O67   C47   1.276865 A    
C70   C118  1.572396 S    
C49   C57   1.198188 T    
C84   I4    2.179752 S    
C81   I1    2.169250 S    
O65   C45   1.276868 A    
C47   C55   1.422192 S    
C104  C120  1.587765 S    
C67   H3    1.116169 S    
O70   C48   1.276861 A    
Zn19  O43   1.914893 S    
C65   H1    1.115254 S    
N23   O150  1.301539 A    
C96   I16   2.169256 S    
O41   C33   1.276477 A    
C28   C142  1.421662 S    
C102  N22   1.474999 S    
C69   H5    1.116085 S    
N10   O123  1.300883 A    
O53   C39   1.276482 A    
O54   C40   1.276484 A    
O97   C9    1.266012 A    
C133  C134  1.197901 T    
C97   C100  1.552487 S    
O42   C34   1.276480 A    
C98   C99   1.551839 S    
Zn14  O8    1.937575 S    
C108  C124  1.571199 S    
O35   C27   1.276692 A    
N2    O108  1.301417 A    
C109  C125  1.571193 S    
C52   C60   1.198186 T    
C74   C75   1.566134 S    
Zn21  O45   1.914898 S    
N24   O151  1.299060 A    
C80   H16   1.115251 S    
C90   I10   2.169277 S    
Zn23  O47   1.914893 S    
C74   N10   1.476356 S    
Zn16  O6    1.937586 S    
C33   C62   1.422095 S    
Zn32  O40   1.913872 S    
