data_mof_unit_20832.cif
_audit_creation_date              2012-12-10T18:05:57-0500
_audit_creation_method            fapswitch 2.2
_symmetry_space_group_name_H-M    P1
_symmetry_Int_Tables_number       1
_space_group_crystal_system       triclinic
_cell_length_a                    12.72127
_cell_length_b                    12.991077
_cell_length_c                    14.926529
_cell_angle_alpha                 92.775621
_cell_angle_beta                  103.78253
_cell_angle_gamma                 80.569998
_cell_volume                      2363.28733365

loop_
_atom_site_label
_atom_site_type_symbol
_atom_type_description
_atom_site_fract_x
_atom_site_fract_y
_atom_site_fract_z
_atom_type_partial_charge
C1    C     C_R   0.438239 0.691877 0.493246 0.933442
C2    C     C_R   0.440350 0.593061 0.805303 -0.000924
C3    C     C_R   0.503166 0.508852 0.768799 -0.119996
C4    C     C_R   0.500655 0.503680 0.672434 0.869942
C5    C     C_R   0.565586 0.425757 0.823652 -0.010178
C6    C     C_R   0.705605 0.065907 0.640546 0.434195
C7    C     C_R   0.600954 0.197509 0.530402 -0.147617
C8    C     C_R   0.300976 0.839934 0.426427 -0.270805
C9    C     C_R   0.269294 0.945926 0.408748 0.079734
C10   C     C_R   0.337550 0.016733 0.454304 0.448159
C11   C     C_R   0.443235 0.977985 0.511079 -0.080604
C12   C     C_R   0.545040 0.414093 0.098036 0.046348
C13   C     C_R   0.463157 0.874347 0.541682 0.007864
C14   C     C_R   0.529017 0.038358 0.539317 0.033287
C15   C     C_R   0.622171 0.003459 0.610667 0.011502
C16   C     C_R   0.562106 0.307940 0.510637 0.893973
C17   C     C_R   0.629618 0.907628 0.651673 -0.254039
C18   C     C_R   0.549512 0.844434 0.620023 0.120281
C19   C     C_R   0.526347 0.130649 0.495184 -0.280865
C20   C     C_R   0.696082 0.162579 0.598134 -0.006123
C21   C     C_R   0.397041 0.803561 0.491910 -0.180880
C22   C     C_R   0.079100 0.402997 0.329076 0.038055
C23   C     C_R   0.396013 0.683492 0.036049 0.024583
C24   C     C_R   0.802277 0.625264 0.615783 0.024086
C25   C     C_R   0.903361 0.659318 0.635090 -0.288912
C26   C     C_R   0.980556 0.618293 0.585417 -0.129154
C27   C     C_R   0.958260 0.540591 0.517390 0.001051
C28   C     C_R   0.498497 0.497918 0.327353 1.002928
C29   C     C_R   0.852323 0.512036 0.496431 0.192151
C30   C     C_R   0.037459 0.490459 0.469161 -0.195266
C31   C     C_R   0.001626 0.440490 0.382558 0.033062
C32   C     C_R   0.892828 0.421724 0.357497 0.011447
C33   C     C_R   0.828764 0.439719 0.422957 0.046233
C34   C     C_R   0.403184 0.688632 0.944353 0.426269
C35   C     C_R   0.151866 0.482598 0.506178 0.540652
C36   C     C_R   0.188215 0.408622 0.365941 -0.071906
C37   C     C_R   0.529451 0.406767 0.186919 0.324069
C38   C     C_R   0.493153 0.498692 0.230765 -0.281774
C39   C     C_R   0.458735 0.593710 0.184544 0.392634
C40   C     C_R   0.449316 0.594986 0.089033 -0.087458
C41   C     C_R   0.499790 0.506711 0.047273 -0.089710
C42   C     C_3   0.493850 0.239965 0.200647 0.048843
C43   C     C_3   0.390372 0.259606 0.238023 -0.358169
C44   C     C_3   0.327554 0.167329 0.218802 -0.921964
C45   C     C_R   0.450383 0.598788 0.901166 -0.065591
C46   C     C_3   0.776495 0.063035 0.795874 0.030921
C47   C     C_3   0.878259 0.025738 0.871376 -0.297631
C48   C     C_3   0.862620 0.062609 0.966685 -0.982086
C49   C     C_3   0.274315 0.161654 0.531801 0.097647
C50   C     C_3   0.153438 0.161755 0.531652 -0.386390
C51   C     C_3   0.138221 0.149207 0.628689 -0.966887
C52   C     C_3   0.530944 0.737352 0.247347 0.089780
C53   C     C_3   0.503696 0.846218 0.287343 -0.314177
C54   C     C_3   0.595689 0.910268 0.293989 -0.988353
C55   C     C_3   0.189764 0.423916 0.653522 0.074697
C56   C     C_R   0.504545 0.510185 0.954784 -0.020936
C57   C     C_3   0.196235 0.462178 0.752872 -0.337376
C58   C     C_3   0.180985 0.377602 0.813965 -0.965626
C59   C     C_3   0.444472 0.832897 0.883957 0.111856
C60   C     C_3   0.479372 0.907956 0.963850 -0.384395
C61   C     C_3   0.560107 0.973199 0.943119 -0.988234
C62   C     C_R   0.562165 0.423803 0.915844 0.172593
C63   C     C_R   0.614896 0.336419 0.969706 -0.206272
C64   C     C_R   0.605774 0.331363 0.059684 -0.222471
H1    H     H_    0.697566 0.881245 0.708827 0.167056
H2    H     H_    0.540253 0.161967 0.223683 0.172829
H3    H     H_    0.470505 0.236698 0.123915 0.143216
H4    H     H_    0.413423 0.273378 0.313491 0.244807
H5    H     H_    0.336426 0.330297 0.204905 0.216259
H6    H     H_    0.304311 0.151383 0.143473 0.258294
H7    H     H_    0.251838 0.185625 0.245007 0.284057
H8    H     H_    0.378365 0.096571 0.254367 0.266460
H9    H     H_    0.706493 0.028806 0.808189 0.139445
H10   H     H_    0.756905 0.149356 0.800953 0.153834
H11   H     H_    0.895841 0.939057 0.869953 0.219099
H12   H     H_    0.463637 0.154523 0.434331 0.220279
H13   H     H_    0.949700 0.056483 0.858180 0.232372
H14   H     H_    0.848618 0.149215 0.970500 0.264802
H15   H     H_    0.937346 0.032942 0.019893 0.271022
H16   H     H_    0.791764 0.032769 0.981714 0.267108
H17   H     H_    0.290371 0.243257 0.539310 0.162166
H18   H     H_    0.329782 0.120418 0.593462 0.136823
H19   H     H_    0.103608 0.235862 0.501602 0.203804
H20   H     H_    0.121653 0.096653 0.488612 0.237001
H21   H     H_    0.176559 0.069884 0.654689 0.275972
H22   H     H_    0.049592 0.159785 0.627360 0.267006
H23   H     H_    0.251583 0.785455 0.386663 0.202608
H24   H     H_    0.176414 0.207569 0.676570 0.258376
H25   H     H_    0.104206 0.965078 0.367592 0.174131
H26   H     H_    0.158460 0.059023 0.328853 0.220891
H27   H     H_    0.480315 0.776859 0.701819 0.171488
H28   H     H_    0.615600 0.745881 0.729922 0.158025
H29   H     H_    0.839802 0.295881 0.283828 0.187370
H30   H     H_    0.775801 0.414469 0.239211 0.206400
H31   H     H_    0.025171 0.288723 0.239857 0.209135
H32   H     H_    0.992726 0.413260 0.195114 0.219954
H33   H     H_    0.554618 0.746442 0.181226 0.129646
H34   H     H_    0.247116 0.385059 0.324914 0.174125
H35   H     H_    0.602256 0.693180 0.296280 0.154983
H36   H     H_    0.426787 0.888164 0.243670 0.231569
H37   H     H_    0.491401 0.838501 0.357301 0.236144
H38   H     H_    0.673414 0.869691 0.337527 0.277699
H39   H     H_    0.574147 0.987442 0.325924 0.269303
H40   H     H_    0.607473 0.922879 0.224175 0.260186
H41   H     H_    0.260969 0.361889 0.653151 0.148813
H42   H     H_    0.112601 0.389863 0.629902 0.140694
H43   H     H_    0.277628 0.484697 0.781938 0.233732
H44   H     H_    0.132341 0.531299 0.754186 0.228313
H45   H     H_    0.742542 0.656948 0.654196 0.145424
H46   H     H_    0.099748 0.352500 0.787374 0.269052
H47   H     H_    0.185559 0.408782 0.885156 0.271219
H48   H     H_    0.246792 0.309309 0.816558 0.262471
H49   H     H_    0.708322 0.356886 0.362848 0.236443
H50   H     H_    0.811170 0.292246 0.442752 0.169376
H51   H     H_    0.249252 0.774108 0.031943 0.205926
H52   H     H_    0.358748 0.835628 0.072627 0.189486
H53   H     H_    0.411400 0.879321 0.819976 0.170407
H54   H     H_    0.517835 0.778371 0.873023 0.127177
H55   H     H_    0.406041 0.961144 0.975778 0.230711
H56   H     H_    0.055854 0.650655 0.598997 0.192348
H57   H     H_    0.519355 0.862726 0.027574 0.206017
H58   H     H_    0.634586 0.921684 0.931564 0.261952
H59   H     H_    0.584680 0.026075 0.002458 0.263995
H60   H     H_    0.521690 0.021345 0.880818 0.263787
H61   H     H_    0.358401 0.657106 0.676627 0.205340
H62   H     H_    0.282731 0.660388 0.754160 0.221906
H63   H     H_    0.687021 0.369047 0.759603 0.207672
H64   H     H_    0.575473 0.306898 0.730473 0.173606
H65   H     H_    0.853354 0.179274 0.608330 0.200956
H66   H     H_    0.798685 0.240576 0.692759 0.184775
H67   H     H_    0.921406 0.718297 0.687805 0.161770
H68   H     H_    0.661022 0.270117 0.942007 0.166839
H69   H     H_    0.646503 0.262245 0.099037 0.172371
N1    N     N_R   0.222190 0.444670 0.452360 -0.163846
N2    N     N_3   0.627896 0.340168 0.784889 -0.501379
N3    N     N_3   0.782862 0.223991 0.622241 -0.424125
N4    N     N_R   0.776970 0.554790 0.547140 -0.115206
N5    N     N_3   0.169561 0.979058 0.341152 -0.455066
N6    N     N_3   0.548072 0.756232 0.673542 -0.444722
N7    N     N_3   0.851060 0.371411 0.271585 -0.483553
N8    N     N_3   0.052043 0.360166 0.237691 -0.465391
N9    N     N_3   0.761126 0.364427 0.426858 -0.368407
N10   N     N_3   0.328726 0.765782 0.073738 -0.380486
N11   N     N_3   0.360535 0.668345 0.746536 -0.433023
O1    O     O_R   0.366740 0.627160 0.477250 -0.608189
O2    O     O_3   0.797819 0.031728 0.708948 -0.651845
O3    O     O_3   0.296734 0.122492 0.446892 -0.676176
O4    O     O_3   0.438875 0.685002 0.234240 -0.621584
O5    O     O_3   0.194016 0.507472 0.597441 -0.644012
O6    O     O_3   0.359371 0.781526 0.897761 -0.645998
O7    O     O_R   0.544830 0.662520 0.507680 -0.591712
O8    O     O_R   0.410940 0.482340 0.616930 -0.581614
O9    O     O_R   0.589030 0.517700 0.647360 -0.622524
O10   O     O_R   0.455170 0.337480 0.492320 -0.633399
O11   O     O_R   0.633260 0.372840 0.522750 -0.568855
O12   O     O_R   0.410970 0.482300 0.352640 -0.634482
O13   O     O_R   0.589060 0.517660 0.383070 -0.627749
O14   O     O_3   0.563430 0.314522 0.236296 -0.688373
Zn1   Zn    Zn3+2 0.381090 0.476390 0.479680 0.956080
Zn2   Zn    Zn3+2 0.618910 0.523610 0.520320 0.957793

loop_
_geom_bond_atom_site_label_1
_geom_bond_atom_site_label_2
_ccdc_geom_bond_type
C37   O14   S    
C1    C21   S    
C27   C29   A    
H30   N7    S    
C1    O1    A    
C51   H21   S    
C34   O6    S    
C50   H20   S    
C46   O2    S    
C53   C54   S    
C26   C27   A    
C62   C63   A    
C13   C18   A    
C55   H41   S    
C61   H60   S    
C58   H48   S    
H50   N9    S    
C48   H15   S    
C54   H40   S    
C19   H12   S    
C26   H56   S    
C32   N7    S    
C30   C31   A    
O1    Zn1   S    
C11   C14   A    
H61   N11   S    
C49   H17   S    
C23   C40   A    
H52   N10   S    
C29   C33   A    
C52   H33   S    
C2    N11   S    
H49   N9    S    
C49   O3    S    
C44   H7    S    
C15   C17   A    
C48   H14   S    
C12   C37   A    
C6    C15   A    
C64   H69   S    
C60   H55   S    
C31   C32   A    
C45   C56   A    
C53   H37   S    
C43   H4    S    
C39   O4    S    
C44   H6    S    
C9    C10   A    
C1    O7    A    
C52   O4    S    
C10   O3    S    
N1    Zn1   S    
H32   N8    S    
O8    Zn1   S    
C59   C60   S    
C59   H53   S    
C27   C30   A    
C23   N10   S    
C42   O14   S    
C35   N1    A    
H26   N5    S    
C50   H19   S    
C8    C21   A    
C60   H57   S    
C2    C45   A    
C4    O8    A    
H51   N10   S    
C22   C31   A    
C55   H42   S    
C58   H47   S    
H25   N5    S    
C54   H39   S    
C24   C25   A    
H64   N2    S    
C39   C40   A    
C4    O9    A    
C8    C9    A    
C25   C26   A    
C61   H58   S    
C49   H18   S    
C43   C44   S    
C41   C56   A    
C37   C38   A    
H65   N3    S    
C9    N5    S    
C47   C48   S    
C28   C38   S    
C23   C34   A    
C16   O11   A    
C50   C51   S    
C13   C21   A    
C34   C45   A    
C63   H68   S    
C20   N3    S    
H27   N6    S    
C30   C35   A    
C7    C16   S    
C57   H43   S    
C7    C20   A    
C59   H54   S    
C7    C19   A    
C55   C57   S    
C16   O10   A    
C42   H3    S    
C33   N9    S    
C56   C62   A    
C42   C43   S    
C47   H13   S    
C3    C4    S    
C25   H67   S    
C6    O2    S    
C46   H10   S    
C29   N4    A    
C52   C53   S    
C12   C41   A    
C28   O12   A    
C53   H36   S    
C59   O6    S    
C5    N2    S    
C46   C47   S    
C40   C41   A    
N4    Zn2   S    
O11   Zn2   S    
C58   H46   S    
C14   C19   A    
C54   H38   S    
O12   Zn1   S    
H66   N3    S    
C24   H45   S    
H63   N2    S    
C3    C5    A    
C36   N1    A    
C51   H24   S    
H31   N8    S    
C24   N4    A    
O13   Zn2   S    
C22   C36   A    
C52   H35   S    
C17   H1    S    
C17   C18   A    
C61   H59   S    
C8    H23   S    
O7    Zn2   S    
C48   H16   S    
O9    Zn2   S    
C2    C3    A    
C47   H11   S    
O10   Zn1   S    
H29   N7    S    
C32   C33   A    
C11   C13   A    
C57   C58   S    
C38   C39   A    
C6    C20   A    
C12   C64   A    
C22   N8    S    
H62   N11   S    
C28   O13   A    
C5    C62   A    
C44   H8    S    
C18   N6    S    
C51   H22   S    
C10   C11   A    
C63   C64   A    
C57   H44   S    
C43   H5    S    
C49   C50   S    
C42   H2    S    
C14   C15   A    
C60   C61   S    
C36   H34   S    
C35   O5    S    
C55   O5    S    
H28   N6    S    
C46   H9    S    
