data_mof_unit_52530.cif
_audit_creation_date              2013-03-05T15:45:31-0500
_audit_creation_method            fapswitch 2.2
_symmetry_space_group_name_H-M    P1
_symmetry_Int_Tables_number       1
_space_group_crystal_system       triclinic
_cell_length_a                    27.657155
_cell_length_b                    10.627901
_cell_length_c                    10.020787
_cell_angle_alpha                 90.681036
_cell_angle_beta                  89.875234
_cell_angle_gamma                 90.472496
_cell_volume                      2945.17054013

loop_
_atom_site_label
_atom_site_type_symbol
_atom_site_description
_atom_site_fract_x
_atom_site_fract_y
_atom_site_fract_z
_atom_type_partial_charge
O1    O     O_R   0.499990 0.319060 0.613040 -0.597681
O2    O     O_R   0.500010 0.319100 0.386900 -0.582052
C1    C     C_R   0.498593 0.262354 0.498816 0.903074
O3    O     O_R   0.428750 0.500000 0.613050 -0.648451
O4    O     O_R   0.428760 0.500040 0.386920 -0.632480
C2    C     C_R   0.405985 0.498466 0.500169 0.867238
Zn1   Zn    Zn3+2 0.499990 0.499970 0.650990 1.017513
Zn2   Zn    Zn3+2 0.500010 0.500030 0.349010 0.948793
O5    O     O_R   0.499990 0.680900 0.613100 -0.584372
O6    O     O_R   0.500010 0.680940 0.386960 -0.623516
O7    O     O_R   0.571240 0.499960 0.613080 -0.577705
O8    O     O_R   0.571250 0.500000 0.386950 -0.622114
C3    C     C_R   0.497116 0.737427 0.501026 0.960631
C4    C     C_R   0.594208 0.499954 0.500135 0.878394
C5    C     C_R   0.177722 0.361231 0.551573 0.561909
O9    O     O_2   0.203817 0.259384 0.583853 -0.542543
N1    N     N_R   0.201170 0.466154 0.506557 -0.341614
C6    C     C_R   0.177017 0.571678 0.470578 0.538537
C7    C     C_R   0.277561 0.460329 0.384413 -0.190502
C8    C     C_R   0.327662 0.470053 0.382128 -0.220756
C9    C     C_R   0.328133 0.498879 0.622960 -0.340273
C10   C     C_R   0.277724 0.485856 0.626365 0.587859
C11   C     C_R   0.252710 0.469286 0.505713 0.231512
C12   C     C_R   0.101642 0.471646 0.534576 -0.103166
C13   C     C_R   0.126977 0.360597 0.565691 -0.071667
C14   C     C_R   0.100941 0.255094 0.613252 0.242431
C15   C     C_R   0.126899 0.576737 0.484145 -0.002720
C16   C     C_R   0.353216 0.490042 0.501359 -0.088900
H1    H     H_    0.347580 0.517822 0.714668 0.163212
C17   C     C_R   0.647420 0.497087 0.505137 -0.111335
C18   C     C_R   0.973794 0.373460 0.595270 0.106431
C19   C     C_R   0.976949 0.602721 0.562220 -0.167705
C20   C     C_R   0.950024 0.490507 0.580462 0.011974
C21   C     C_R   0.945486 0.262738 0.605402 -0.217479
C22   C     C_R   0.895500 0.267101 0.599643 -0.134430
C23   C     C_R   0.871968 0.381840 0.584736 0.025166
C24   C     C_R   0.898980 0.494687 0.579158 -0.125204
C25   C     C_R   0.874972 0.610790 0.567194 -0.236523
C26   C     C_R   0.824340 0.609410 0.551910 0.565244
N2    N     N_R   0.799289 0.498044 0.553408 -0.353621
C27   C     C_R   0.821808 0.385746 0.571290 0.508996
C28   C     C_R   0.718307 0.462545 0.642263 -0.105435
C29   C     C_R   0.668609 0.461180 0.626482 -0.220509
C30   C     C_R   0.677840 0.533653 0.397710 0.175557
C31   C     C_R   0.727916 0.533901 0.415266 -0.112361
C32   C     C_R   0.748029 0.498785 0.536960 0.247248
O10   O     O_2   0.795669 0.277887 0.573224 -0.558579
C33   C     C_R   0.024965 0.370334 0.594186 0.014834
C34   C     C_R   0.051015 0.478287 0.553605 0.075096
C35   C     C_R   0.026693 0.592940 0.530473 0.089539
C36   C     C_R   0.050849 0.261680 0.628178 -0.286148
H2    H     H_    0.646725 0.432045 0.710595 0.185930
H3    H     H_    0.733851 0.435349 0.736652 0.153007
H4    H     H_    0.875388 0.179333 0.604130 0.195653
H5    H     H_    0.960913 0.170113 0.610725 0.166129
H6    H     H_    0.033109 0.179847 0.668742 0.142471
O11   O     O_2   0.201744 0.672406 0.424646 -0.559685
C37   C     C_R   0.101739 0.684643 0.448337 -0.187171
H7    H     H_    0.346302 0.462241 0.287260 0.165720
H8    H     H_    0.257886 0.446862 0.291948 0.156218
H9    H     H_    0.120144 0.764299 0.404009 0.189790
C38   C     C_R   0.952761 0.720138 0.575041 0.415432
C39   C     C_R   0.902118 0.724009 0.572889 0.475429
O12   O     O_2   0.800090 0.717673 0.535048 -0.507524
C40   C     C_R   0.052344 0.692009 0.469445 -0.185832
H10   H     H_    0.751414 0.561320 0.333776 0.157644
H11   H     H_    0.034579 0.775006 0.433517 0.206007
C41   C     C_2   0.476855 0.930527 0.394013 -0.180600
C42   C     C_2   0.485460 0.867347 0.505442 -0.396307
H12   H     H_    0.476629 0.883829 0.297056 0.177989
H13   H     H_    0.481959 0.910868 0.603695 0.159847
C43   C     C_2   0.470177 0.066163 0.402000 0.271587
C44   C     C_2   0.496774 0.129228 0.493980 -0.409185
H14   H     H_    0.521071 0.083058 0.562457 0.143096
C45   C     C_2   0.527446 0.574364 0.925964 0.655367
N3    N     N_2   0.500520 0.501330 0.852150 0.043514
C46   C     C_2   0.533248 0.554453 0.074887 -0.215169
N4    N     N_2   0.500540 0.501360 0.147810 -0.184609
H15   H     H_    0.565263 0.591742 0.123296 0.159181
H16   H     H_    0.467139 0.486999 0.105415 0.199273
O13   O     O_3   0.977383 0.833372 0.591339 -0.600149
C47   C     C_3   0.998593 0.838260 0.719529 -0.345795
H17   H     H_    0.031397 0.779005 0.723828 0.190368
H18   H     H_    0.972845 0.809726 0.799500 0.146954
H19   H     H_    0.010016 0.936728 0.740994 0.185105
N5    N     N_2   0.659785 0.572209 0.272274 -0.311226
H20   H     H_    0.635142 0.511880 0.228142 0.249520
C48   C     C_3   0.647819 0.704139 0.265154 -0.743806
H21   H     H_    0.639012 0.728130 0.160559 0.231447
H22   H     H_    0.679108 0.763297 0.297299 0.263900
H23   H     H_    0.616090 0.725365 0.329530 0.238719
O14   O     O_3   0.879790 0.839972 0.567212 -0.533493
C49   C     C_3   0.868617 0.881251 0.698014 -0.173365
H24   H     H_    0.851684 0.806063 0.759565 0.137609
H25   H     H_    0.842193 0.958891 0.691641 0.200556
H26   H     H_    0.901293 0.919740 0.748351 0.146133
N6    N     N_2   0.438027 0.129887 0.313239 -0.268624
H27   H     H_    0.419758 0.204646 0.355650 0.225656
C50   C     C_3   0.408741 0.055781 0.221566 -0.777592
H28   H     H_    0.385614 0.119210 0.162356 0.230811
H29   H     H_    0.385041 0.989809 0.277424 0.248785
H30   H     H_    0.432112 0.003104 0.150541 0.237400
O15   O     O_3   0.251520 0.500897 0.743673 -0.603060
C51   C     C_3   0.267751 0.416443 0.841309 -0.287539
H31   H     H_    0.300931 0.453133 0.890975 0.143426
H32   H     H_    0.273911 0.320173 0.799635 0.179908
H33   H     H_    0.239390 0.408122 0.919226 0.199541
O16   O     O_3   0.553967 0.667619 0.862714 -0.601114
C52   C     C_3   0.545793 0.784970 0.925664 -0.354151
H34   H     H_    0.565616 0.792614 0.021718 0.161293
H35   H     H_    0.506519 0.802927 0.941170 0.146023
H36   H     H_    0.559932 0.860109 0.859929 0.212241
O17   O     O_3   0.488558 0.389758 0.906575 -0.565671
C53   C     C_3   0.439554 0.365695 0.877156 -0.184526
H37   H     H_    0.435513 0.319483 0.778320 0.201066
H38   H     H_    0.417065 0.452122 0.883565 0.112408
H39   H     H_    0.425088 0.299186 0.952139 0.141584
N7    N     N_2   0.124408 0.140932 0.646358 -0.252100
H40   H     H_    0.111987 0.102268 0.734108 0.214935
C54   C     C_3   0.125288 0.049056 0.538665 -0.680454
H41   H     H_    0.146791 0.966518 0.569269 0.251054
H42   H     H_    0.142334 0.089918 0.448290 0.255736
H43   H     H_    0.087952 0.016702 0.514442 0.215940

loop_
_geom_bond_atom_site_label_1
_geom_bond_atom_site_label_2
_geom_bond_distance
_ccdc_geom_bond_type
C49   H24   1.114714 S    
C44   H14   1.085667 S    
C7    C8    1.388819 A    
C12   C15   1.410607 A    
C51   H32   1.114748 S    
C53   H37   1.105731 S    
C46   N4    1.291975 D    
C54   H41   1.110405 S    
Zn1   O7    2.006044 S    
C26   O12   1.349125 S    
N1    C11   1.425589 S    
C23   C24   1.409344 A    
C24   C25   1.412523 A    
C36   H6    1.078350 S    
C52   H35   1.114626 S    
C28   H3    1.083195 S    
O4    C2    1.296945 A    
O7    C4    1.296668 A    
N5    C48   1.445938 S    
C29   H2    1.083307 S    
C5    C13   1.410234 A    
C5    O9    1.348839 S    
N6    H27   1.031917 S    
O16   C52   1.410627 S    
N1    C6    1.362704 A    
C21   C22   1.384963 A    
C28   C32   1.392193 A    
C42   H13   1.087294 S    
O5    C3    1.282857 A    
N7    H40   1.031998 S    
C6    O11   1.350493 S    
C25   C39   1.413670 A    
C33   C36   1.409273 A    
C2    C16   1.461492 S    
C22   C23   1.396696 A    
C41   C42   1.332651 D    
C40   H11   1.079154 S    
C39   O14   1.384871 S    
C18   C20   1.421246 A    
C54   H43   1.112054 S    
C41   C43   1.456053 S    
C37   H9    1.083488 S    
C21   H5    1.078070 S    
C49   H25   1.109249 S    
C9    C10   1.400282 A    
C22   H4    1.083453 S    
Zn2   N4    2.016421 S    
C17   C30   1.420675 A    
C23   C27   1.395106 A    
C4    C17   1.473222 S    
O3    Zn1   2.007457 S    
C30   N5    1.419712 S    
C51   H31   1.110562 S    
N6    C50   1.447680 S    
C54   H42   1.111371 S    
O13   C47   1.413550 S    
C43   N6    1.438098 S    
C46   H15   1.080696 S    
C12   C13   1.415778 A    
O3    C2    1.295639 A    
C52   H36   1.109393 S    
C26   N2    1.366743 A    
N5    H20   1.028872 S    
C8    C16   1.402607 A    
C13   C14   1.414506 A    
C31   C32   1.397499 A    
C9    H1    1.081808 S    
O6    C3    1.287409 A    
C20   C24   1.412890 A    
C10   O15   1.387936 S    
O1    C1    1.287735 A    
C7    C11   1.397722 A    
C45   N3    1.297463 D    
C38   C39   1.401783 A    
C37   C40   1.384667 A    
C50   H28   1.110798 S    
C48   H23   1.111054 S    
Zn2   O8    2.007460 S    
N3    O17   1.349468 S    
C27   O10   1.350498 S    
C18   C21   1.412556 A    
C8    H7    1.083101 S    
C45   C46   1.518774 S    
C19   C35   1.415774 A    
Zn2   O6    1.955502 S    
N2    C27   1.364640 A    
C50   H29   1.111174 S    
C38   O13   1.385989 S    
C48   H22   1.111459 S    
C47   H17   1.109868 S    
C49   H26   1.108822 S    
C47   H18   1.114002 S    
C18   C33   1.415915 A    
C17   C29   1.409077 A    
C28   C29   1.383843 A    
N2    C32   1.427717 S    
O15   C51   1.412037 S    
C30   C31   1.396454 A    
O17   C53   1.408335 S    
C12   C34   1.414938 A    
C5    N1    1.366114 A    
C33   C34   1.413144 A    
O1    Zn1   1.955503 S    
C9    C16   1.403415 A    
O2    Zn2   1.964457 S    
C6    C15   1.393891 A    
C14   N7    1.423695 S    
O8    C4    1.301057 A    
C43   C44   1.349081 D    
C15   C37   1.397205 A    
O4    Zn2   2.006041 S    
C53   H38   1.114697 S    
Zn1   N3    2.015746 S    
C7    H8    1.082996 S    
C47   H19   1.109385 S    
C19   C20   1.414276 A    
O2    C1    1.280031 A    
C19   C38   1.425088 A    
C52   H34   1.110571 S    
C25   C26   1.408959 A    
C3    C42   1.420648 S    
O14   C49   1.411659 S    
N4    H16   1.027106 S    
C1    C44   1.415578 S    
C35   C40   1.409600 A    
N7    C54   1.447030 S    
C53   H39   1.109483 S    
Zn1   O5    1.964456 S    
C45   O16   1.386704 S    
C50   H30   1.110082 S    
C48   H21   1.109682 S    
C41   H12   1.085748 S    
C34   C35   1.418435 A    
C31   H10   1.083668 S    
C10   C11   1.402826 A    
C14   C36   1.395358 A    
C51   H33   1.109294 S    
