data_mof_unit_55411.cif
_audit_creation_date              2012-12-10T17:20:23-0500
_audit_creation_method            fapswitch 2.2
_symmetry_space_group_name_H-M    P1
_symmetry_Int_Tables_number       1
_space_group_crystal_system       triclinic
_cell_length_a                    11.697305
_cell_length_b                    10.779883
_cell_length_c                    9.617932
_cell_angle_alpha                 90.02926
_cell_angle_beta                  90.135043
_cell_angle_gamma                 92.218348
_cell_volume                      1211.86623125

loop_
_atom_site_label
_atom_site_type_symbol
_atom_type_description
_atom_site_fract_x
_atom_site_fract_y
_atom_site_fract_z
_atom_type_partial_charge
C1    C     C_R   0.498627 0.262699 0.500007 0.854379
C2    C     C_R   0.214416 0.054707 0.677152 -0.144275
C3    C     C_R   0.214158 0.925702 0.679005 -0.140481
C4    C     C_R   0.305288 0.863788 0.621684 -0.143528
C5    C     C_R   0.399451 0.930759 0.562476 0.099162
C6    C     C_R   0.400117 0.061760 0.561063 0.024041
C7    C     C_R   0.493929 0.128352 0.500075 -0.186084
C8    C     C_R   0.585480 0.067192 0.439688 0.451435
C9    C     C_R   0.580162 0.937417 0.435407 -0.323723
C10   C     C_R   0.491083 0.870419 0.499982 -0.134221
C11   C     C_R   0.650748 0.665685 0.144193 -0.131182
C12   C     C_R   0.284172 0.499873 0.499874 0.788987
C13   C     C_R   0.723798 0.747240 0.072390 -0.202781
C14   C     C_R   0.723877 0.747152 0.929153 -0.200565
C15   C     C_R   0.650817 0.665610 0.856797 -0.130823
C16   C     C_R   0.573970 0.581478 0.925513 0.206933
C17   C     C_R   0.573948 0.581461 0.074964 0.210426
C18   C     C_R   0.429706 0.422425 0.073559 -0.044202
C19   C     C_R   0.429731 0.422454 0.925809 -0.051485
C20   C     C_R   0.496822 0.736954 0.499994 0.784488
C21   C     C_R   0.715849 0.501307 0.500132 0.817042
C22   C     C_1   0.162475 0.501425 0.499721 -0.188889
C23   C     C_1   0.060008 0.502908 0.499908 -0.001160
C24   C     C_1   0.940212 0.504017 0.500236 -0.014262
C25   C     C_1   0.837653 0.503474 0.500360 -0.199562
C26   C     C_R   0.305796 0.122523 0.618031 -0.154288
Cu1   Cu    Cu3+1 0.499990 0.499990 0.640660 0.932313
Cu2   Cu    Cu3+1 0.500010 0.500010 0.359340 0.955848
H1    H     H_    0.781348 0.810503 0.873324 0.145088
H2    H     H_    0.658822 0.672733 0.747277 0.193583
H3    H     H_    0.372091 0.358758 0.870562 0.136935
H4    H     H_    0.300824 0.222446 0.616270 0.128750
H5    H     H_    0.142987 0.102481 0.720509 0.132797
H6    H     H_    0.142508 0.873317 0.723751 0.132984
H7    H     H_    0.300204 0.763466 0.622524 0.142606
H8    H     H_    0.646851 0.887354 0.384556 0.124238
H9    H     H_    0.372031 0.358738 0.128329 0.137555
H10   H     H_    0.658785 0.672905 0.253714 0.187955
H11   H     H_    0.781160 0.810693 0.128663 0.139765
N1    N     N_R   0.501070 0.501210 0.147910 -0.198348
N2    N     N_R   0.501110 0.501290 0.852040 -0.198819
O1    O     O_R   0.499990 0.319640 0.618810 -0.587214
O2    O     O_R   0.500000 0.319660 0.381240 -0.547071
O3    O     O_R   0.337190 0.500000 0.618790 -0.584722
O4    O     O_R   0.337200 0.500030 0.381210 -0.571551
O5    O     O_R   0.500000 0.680340 0.618760 -0.602784
O6    O     O_R   0.500010 0.680360 0.381190 -0.590711
O7    O     O_R   0.662800 0.499970 0.618790 -0.589632
O8    O     O_R   0.662810 0.500000 0.381210 -0.580786
O9    O     O_3   0.675592 0.138449 0.381900 -0.599726
C27   C     C_3   0.782683 0.083145 0.398063 0.037060
H12   H     H_    0.796156 0.018615 0.309820 0.149523
H13   H     H_    0.788981 0.032138 0.498638 0.128671
C28   C     C_3   0.877469 0.184538 0.396830 -0.307449
H14   H     H_    0.870638 0.241599 0.301131 0.236113
H15   H     H_    0.866957 0.245296 0.488743 0.220553
C29   C     C_3   0.995760 0.129712 0.402843 -0.922164
H16   H     H_    0.004120 0.072000 0.497682 0.255082
H17   H     H_    0.062424 0.205895 0.405898 0.260992
H18   H     H_    0.009978 0.071582 0.309539 0.257182

loop_
_geom_bond_atom_site_label_1
_geom_bond_atom_site_label_2
_ccdc_geom_bond_type
Cu1   O7    S    
C9    H8    S    
C23   C24   S    
Cu2   O6    S    
C26   H4    S    
C6    C7    A    
C12   O4    A    
C8    O9    S    
C11   H10   S    
Cu2   O8    S    
Cu1   N2    S    
Cu2   O2    S    
C14   C15   A    
C27   C28   S    
C19   H3    S    
C21   O7    A    
C21   O8    A    
C2    C3    A    
C4    H7    S    
C19   N2    A    
C5    C10   A    
C2    C26   A    
C13   C14   A    
C28   C29   S    
C11   C13   A    
Cu1   O1    S    
C29   H16   S    
C6    C26   A    
Cu1   O3    S    
Cu1   O5    S    
C18   H9    S    
C20   O5    A    
O9    C27   S    
C22   C23   T    
C5    C6    A    
C28   H15   S    
Cu2   O4    S    
C13   H11   S    
C20   O6    A    
C29   H17   S    
Cu2   N1    S    
C14   H1    S    
C15   C16   A    
C12   C22   S    
C1    O1    A    
C7    C8    A    
C24   C25   T    
C2    H5    S    
C15   H2    S    
C12   O3    A    
C18   C19   A    
C9    C10   A    
Cu1   Cu2   S    
C21   C25   S    
C28   H14   S    
C4    C5    A    
C29   H18   S    
C18   N1    A    
C3    H6    S    
C1    C7    S    
C16   N2    A    
C1    O2    A    
C11   C17   A    
C3    C4    A    
C27   H12   S    
C16   C17   A    
C10   C20   S    
C8    C9    A    
C27   H13   S    
C17   N1    A    
