data_mof_unit_18278.cif
_audit_creation_date              2012-12-11T14:14:52-0500
_audit_creation_method            fapswitch 2.2
_symmetry_space_group_name_H-M    P1
_symmetry_Int_Tables_number       1
_space_group_crystal_system       monoclinic
_cell_length_a                    24.402179
_cell_length_b                    17.25338
_cell_length_c                    15.53181
_cell_angle_alpha                 90.0
_cell_angle_beta                  129.056005
_cell_angle_gamma                 90.0
_cell_volume                      5077.89076631

loop_
_atom_site_label
_atom_site_type_symbol
_atom_type_description
_atom_site_fract_x
_atom_site_fract_y
_atom_site_fract_z
_atom_type_partial_charge
Br1   Br    Br    0.140535 0.411195 0.278098 -0.499413
Br2   Br    Br    0.859465 0.411195 0.721902 -0.499413
Br3   Br    Br    0.640535 0.911195 0.278098 -0.499413
Br4   Br    Br    0.359465 0.911195 0.721902 -0.499413
Br5   Br    Br    0.463209 0.582399 0.128357 -0.455272
Br6   Br    Br    0.536791 0.582399 0.871643 -0.455270
Br7   Br    Br    0.963209 0.082399 0.128357 -0.455270
Br8   Br    Br    0.036791 0.082399 0.871643 -0.455269
C1    C     C_R   0.350002 0.360845 0.242869 -0.067976
C2    C     C_R   0.650310 0.676033 0.500872 0.133166
C3    C     C_R   0.849690 0.176033 0.499128 0.133166
C4    C     C_R   0.150310 0.176033 0.500872 0.133166
C5    C     C_R   0.355751 0.636323 0.143032 -0.111416
C6    C     C_R   0.644249 0.636323 0.856968 -0.111417
C7    C     C_R   0.855751 0.136323 0.143032 -0.111417
C8    C     C_R   0.144249 0.136323 0.856968 -0.111417
C9    C     C_2   0.652462 0.799485 0.427647 -0.147523
C10   C     C_2   0.347538 0.799485 0.572353 -0.147523
C11   C     C_2   0.152462 0.299485 0.427647 -0.147523
C12   C     C_R   0.649998 0.360845 0.757130 -0.067977
C13   C     C_2   0.847538 0.299485 0.572353 -0.147523
C14   C     C_2   0.686812 0.742569 0.502953 -0.229868
C15   C     C_2   0.313188 0.742569 0.497047 -0.229867
C16   C     C_2   0.186812 0.242569 0.502953 -0.229868
C17   C     C_2   0.813188 0.242569 0.497047 -0.229867
C18   C     C_2   0.191251 0.359917 0.419029 0.394483
C19   C     C_2   0.808748 0.359917 0.580971 0.394483
C20   C     C_2   0.691251 0.859917 0.419029 0.394483
C21   C     C_2   0.308748 0.859917 0.580971 0.394483
C22   C     C_2   0.258935 0.374790 0.506621 -0.278427
C23   C     C_R   0.850001 0.860845 0.242869 -0.067976
C24   C     C_2   0.741065 0.374790 0.493379 -0.278428
C25   C     C_2   0.758935 0.874790 0.506621 -0.278427
C26   C     C_2   0.241065 0.874790 0.493379 -0.278428
C27   C     C_2   0.644523 0.245994 0.854505 -0.195457
C28   C     C_2   0.355477 0.245994 0.145495 -0.195457
C29   C     C_2   0.144523 0.745994 0.854505 -0.195458
C30   C     C_2   0.855477 0.745994 0.145495 -0.195458
C31   C     C_2   0.694301 0.205086 0.863272 0.016394
C32   C     C_2   0.305699 0.205086 0.136728 0.016394
C33   C     C_2   0.194301 0.705086 0.863272 0.016394
C34   C     C_R   0.149998 0.860845 0.757130 -0.067976
C35   C     C_2   0.805699 0.705086 0.136728 0.016394
C36   C     C_2   0.311847 0.674427 0.034356 0.579053
C37   C     C_2   0.688153 0.674427 0.965644 0.579054
C38   C     C_2   0.811847 0.174427 0.034356 0.579053
C39   C     C_2   0.188153 0.174427 0.965644 0.579054
C40   C     C_R   0.615418 0.402241 0.408390 -0.141493
C41   C     C_R   0.384582 0.402241 0.591610 -0.141493
C42   C     C_R   0.115418 0.902241 0.408390 -0.141493
C43   C     C_R   0.884582 0.902241 0.591610 -0.141493
C44   C     C_2   0.242499 0.657534 0.961728 -0.354927
C45   C     C_R   0.406299 0.637971 0.592085 -0.086686
C46   C     C_2   0.757500 0.657534 0.038272 -0.354927
C47   C     C_2   0.742499 0.157534 0.961728 -0.354926
C48   C     C_2   0.257500 0.157534 0.038272 -0.354926
C49   C     C_R   0.688968 0.401076 0.591698 -0.096783
C50   C     C_R   0.311032 0.401076 0.408302 -0.096783
C51   C     C_R   0.188968 0.901076 0.591698 -0.096783
C52   C     C_R   0.811032 0.901076 0.408302 -0.096783
C53   C     C_R   0.559138 0.359407 0.758682 -0.098752
C54   C     C_R   0.440862 0.359407 0.241318 -0.098752
C55   C     C_R   0.059138 0.859407 0.758682 -0.098752
C56   C     C_R   0.593701 0.637971 0.407915 -0.086686
C57   C     C_R   0.940862 0.859407 0.241318 -0.098752
C58   C     C_R   0.382122 0.317961 0.209779 0.114417
C59   C     C_R   0.617878 0.317961 0.790221 0.114417
C60   C     C_R   0.882122 0.817961 0.209779 0.114417
C61   C     C_R   0.117878 0.817961 0.790221 0.114417
C62   C     C_R   0.684893 0.390228 0.499857 0.156540
C63   C     C_R   0.315107 0.390228 0.500143 0.156540
C64   C     C_R   0.184893 0.890228 0.499857 0.156540
C65   C     C_R   0.815107 0.890228 0.500143 0.156540
C66   C     C_R   0.329634 0.635607 0.406975 -0.097214
C67   C     C_R   0.906299 0.137971 0.592085 -0.086686
C68   C     C_R   0.670366 0.635607 0.593025 -0.097214
C69   C     C_R   0.829634 0.135607 0.406975 -0.097214
C70   C     C_R   0.170366 0.135607 0.593025 -0.097214
C71   C     C_R   0.424097 0.609937 0.199393 0.387891
C72   C     C_R   0.575903 0.609937 0.800607 0.387892
C73   C     C_R   0.924097 0.109937 0.199393 0.387891
C74   C     C_R   0.075903 0.109937 0.800607 0.387892
C75   C     C_R   0.665851 0.612602 0.797157 -0.206745
C76   C     C_R   0.334149 0.612602 0.202843 -0.206745
C77   C     C_R   0.165851 0.112602 0.797157 -0.206745
C78   C     C_R   0.093701 0.137971 0.407915 -0.086686
C79   C     C_R   0.834148 0.112602 0.202843 -0.206745
C80   C     C_R   0.349690 0.676033 0.499128 0.133166
H1    H     H_    0.302241 0.347171 0.230201 0.146490
H2    H     H_    0.721927 0.359593 0.410754 0.127528
H3    H     H_    0.778073 0.859593 0.589246 0.127528
H4    H     H_    0.221927 0.859593 0.410754 0.127528
H5    H     H_    0.219665 0.614262 0.981628 0.149337
H6    H     H_    0.780335 0.614262 0.018372 0.149337
H7    H     H_    0.719665 0.114262 0.981628 0.149337
H8    H     H_    0.280334 0.114262 0.018372 0.149337
H9    H     H_    0.709003 0.218808 0.812061 0.169317
H10   H     H_    0.290996 0.218808 0.187939 0.169317
H11   H     H_    0.209004 0.718808 0.812061 0.169317
H12   H     H_    0.697759 0.347171 0.769799 0.146490
H13   H     H_    0.790997 0.718808 0.187939 0.169317
H14   H     H_    0.630127 0.232328 0.906290 0.149632
H15   H     H_    0.369873 0.232328 0.093710 0.149632
H16   H     H_    0.130127 0.732328 0.906290 0.149632
H17   H     H_    0.869873 0.732328 0.093710 0.149632
H18   H     H_    0.595643 0.408169 0.323786 0.130300
H19   H     H_    0.404357 0.408169 0.676214 0.130300
H20   H     H_    0.095643 0.908169 0.323786 0.130300
H21   H     H_    0.904357 0.908169 0.676214 0.130299
H22   H     H_    0.735564 0.404615 0.677053 0.168946
H23   H     H_    0.802241 0.847171 0.230201 0.146490
H24   H     H_    0.264436 0.404615 0.322947 0.168946
H25   H     H_    0.235564 0.904615 0.677053 0.168946
H26   H     H_    0.764436 0.904615 0.322947 0.168946
H27   H     H_    0.522086 0.343655 0.771943 0.114567
H28   H     H_    0.477914 0.343655 0.228057 0.114567
H29   H     H_    0.022086 0.843655 0.771943 0.114567
H30   H     H_    0.977914 0.843655 0.228057 0.114567
H31   H     H_    0.285573 0.647947 0.321506 0.110785
H32   H     H_    0.714427 0.647947 0.678494 0.110785
H33   H     H_    0.785573 0.147947 0.321506 0.110785
H34   H     H_    0.197759 0.847171 0.769799 0.146489
H35   H     H_    0.214427 0.147947 0.678494 0.110785
H36   H     H_    0.719091 0.613815 0.825017 0.129943
H37   H     H_    0.280909 0.613815 0.174983 0.129942
H38   H     H_    0.219091 0.113815 0.825017 0.129943
H39   H     H_    0.780909 0.113815 0.174983 0.129942
H40   H     H_    0.432591 0.653474 0.677008 0.174829
H41   H     H_    0.567408 0.653474 0.322992 0.174829
H42   H     H_    0.932591 0.153474 0.677008 0.174830
H43   H     H_    0.067409 0.153474 0.322992 0.174829
H44   H     H_    0.595474 0.796762 0.363928 0.184801
H45   H     H_    0.743677 0.741959 0.566586 0.145214
H46   H     H_    0.404526 0.796762 0.636072 0.184800
H47   H     H_    0.095474 0.296762 0.363928 0.184801
H48   H     H_    0.904526 0.296762 0.636072 0.184800
H49   H     H_    0.452636 0.805519 0.101943 0.405464
H50   H     H_    0.547366 0.805522 0.898054 0.405463
H51   H     H_    0.952635 0.305522 0.101945 0.405462
H52   H     H_    0.047366 0.305523 0.898054 0.405463
H53   H     H_    0.256323 0.741959 0.433414 0.145214
H54   H     H_    0.243677 0.241959 0.566586 0.145214
H55   H     H_    0.756323 0.241959 0.433414 0.145214
H56   H     H_    0.278073 0.359593 0.589246 0.127528
N1    N     N_R   0.389060 0.424180 0.294540 -0.057166
N2    N     N_R   0.374530 0.423490 0.443400 -0.063367
N3    N     N_R   0.125470 0.923490 0.556600 -0.063367
N4    N     N_R   0.874530 0.923490 0.443400 -0.063367
N5    N     N_R   0.555250 0.423100 0.705420 -0.047528
N6    N     N_R   0.444750 0.423100 0.294580 -0.047528
N7    N     N_R   0.055250 0.923100 0.705420 -0.047528
N8    N     N_R   0.944750 0.923100 0.294580 -0.047528
N9    N     N_R   0.375210 0.577180 0.443400 -0.047829
N10   N     N_R   0.624790 0.577180 0.556600 -0.047829
N11   N     N_R   0.875210 0.077180 0.443400 -0.047829
N12   N     N_R   0.610940 0.424180 0.705460 -0.057166
N13   N     N_R   0.124790 0.077180 0.556600 -0.047829
N14   N     N_R   0.445430 0.577570 0.294580 -0.086673
N15   N     N_R   0.554570 0.577570 0.705420 -0.086673
N16   N     N_R   0.945430 0.077570 0.294580 -0.086673
N17   N     N_R   0.054570 0.077570 0.705420 -0.086673
N18   N     N_R   0.611620 0.576500 0.705460 -0.051207
N19   N     N_R   0.388380 0.576500 0.294540 -0.051207
N20   N     N_R   0.111620 0.076500 0.705460 -0.051207
N21   N     N_R   0.888380 0.076500 0.294540 -0.051207
N22   N     N_R   0.421010 0.576890 0.556640 -0.052933
N23   N     N_R   0.889060 0.924180 0.294540 -0.057166
N24   N     N_R   0.578990 0.576890 0.443360 -0.052933
N25   N     N_R   0.921010 0.076890 0.556640 -0.052933
N26   N     N_R   0.078990 0.076890 0.443360 -0.052933
N27   N     N_R   0.110940 0.924180 0.705460 -0.057166
N28   N     N_R   0.579670 0.423790 0.443360 -0.048490
N29   N     N_R   0.420330 0.423790 0.556640 -0.048490
N30   N     N_R   0.079670 0.923790 0.443360 -0.048490
N31   N     N_R   0.920330 0.923790 0.556640 -0.048490
N32   N     N_R   0.625470 0.423490 0.556600 -0.063367
Ni1   Ni    Ni4+2 0.383200 0.500680 0.370150 0.235701
Ni2   Ni    Ni4+2 0.616800 0.500680 0.629850 0.235701
Ni3   Ni    Ni4+2 0.883200 0.000680 0.370150 0.235701
Ni4   Ni    Ni4+2 0.116800 0.000680 0.629850 0.235701
Ni5   Ni    Ni4+2 0.512440 0.500680 0.370150 0.257572
Ni6   Ni    Ni4+2 0.487560 0.500680 0.629850 0.257571
Ni7   Ni    Ni4+2 0.012440 0.000680 0.370150 0.257571
Ni8   Ni    Ni4+2 0.987560 0.000680 0.629850 0.257571
O1    O     O_2   0.348010 0.730168 0.915029 -0.242781
O2    O     O_2   0.151991 0.230169 0.084972 -0.242778
O3    O     O_2   0.190715 0.324387 0.015027 -0.305190
O4    O     O_3   0.065545 0.266024 0.875428 -0.512270
O5    O     O_2   0.309285 0.824387 0.984973 -0.305186
O6    O     O_3   0.434455 0.766024 0.124572 -0.512270
O7    O     O_2   0.651991 0.730169 0.084972 -0.242778
O8    O     O_2   0.690715 0.824387 0.015027 -0.305190
O9    O     O_3   0.565545 0.766024 0.875428 -0.512270
O10   O     O_2   0.848009 0.230168 0.915028 -0.242778
O11   O     O_2   0.809285 0.324387 0.984973 -0.305189
O12   O     O_3   0.934455 0.266024 0.124572 -0.512268
S1    S     S_3+6 0.350253 0.750935 0.011201 0.001013
S2    S     S_3+6 0.649747 0.750935 0.988799 0.001013
S3    S     S_3+6 0.850253 0.250935 0.011201 0.001013
S4    S     S_3+6 0.149747 0.250935 0.988799 0.001013

loop_
_geom_bond_atom_site_label_1
_geom_bond_atom_site_label_2
_ccdc_geom_bond_type
N23   Ni3   S    
C5    C71   A    
C29   C61   S    
N9    N22   A    
Br1   C18   S    
C12   C59   A    
C52   H26   S    
N22   Ni6   S    
O7    S2    D    
C27   H14   S    
N10   N24   A    
N17   N20   A    
C71   N14   A    
C79   H39   S    
C22   C63   S    
N3    N30   A    
N7    N27   A    
N7    Ni8   S    
C7    C73   A    
N27   Ni4   S    
C2    C14   S    
C66   H31   S    
C5    C76   A    
C68   H32   S    
C28   H15   S    
C50   H24   S    
C40   C62   A    
Br3   C20   S    
N5    N12   A    
C25   H3    S    
C32   H10   S    
N26   Ni7   S    
C28   C58   S    
C78   H43   S    
C31   H9    S    
N29   Ni6   S    
O4    S4    S    
C11   H47   S    
O9    S2    S    
N2    N29   A    
C52   C65   A    
C22   H56   S    
C24   H2    S    
C11   C18   S    
C42   C64   A    
C1    C58   A    
C55   H29   S    
C3    C69   A    
C40   N28   A    
N12   Ni2   S    
N3    Ni4   S    
C31   C47   S    
C55   C61   A    
C16   H54   S    
C32   C48   S    
C4    C70   A    
C38   C47   D    
C53   H27   S    
C57   H30   S    
C33   H11   S    
C1    N1    A    
Br2   C19   S    
O8    S2    D    
C75   H36   S    
C6    C37   S    
C12   N12   A    
N16   Ni7   S    
N1    N6    A    
N20   Ni4   S    
C67   H42   S    
C51   C64   A    
C36   C44   D    
N32   Ni2   S    
C13   C19   S    
C36   S1    S    
C43   H21   S    
C73   N16   A    
C67   N25   A    
C9    H44   S    
C42   H20   S    
O2    S4    D    
C77   H38   S    
C17   H55   S    
C2    C68   A    
C6    C75   A    
O12   S3    S    
N28   Ni5   S    
C8    C39   S    
C41   N29   A    
N11   Ni3   S    
N6    Ni5   S    
O11   S3    D    
C23   C60   A    
C40   H18   S    
N4    N31   A    
C46   H6    S    
C54   C58   A    
C14   H45   S    
C10   C15   D    
H52   O4    S    
C43   C65   A    
C28   C32   D    
C47   H7    S    
C1    H1    S    
C72   N15   A    
C24   C62   S    
C37   S2    S    
C41   H19   S    
C21   C26   D    
C34   C61   A    
N2    Ni1   S    
N13   Ni4   S    
C27   C31   D    
C35   H13   S    
N25   Ni8   S    
C54   H28   S    
N19   Ni1   S    
C45   H40   S    
N13   N26   A    
C49   N32   A    
C53   C59   A    
C35   C46   S    
Br6   C72   S    
C49   H22   S    
C12   H12   S    
C27   C59   S    
C51   H25   S    
C57   C60   A    
C8    C74   A    
N15   N18   A    
C44   H5    S    
C10   C21   S    
N11   N25   A    
N16   N21   A    
N8    Ni7   S    
C43   N31   A    
C70   H35   S    
C55   N7    A    
C76   N19   A    
N14   N19   A    
C25   C65   S    
Br7   C73   S    
C75   N18   A    
C30   C60   S    
C20   C25   D    
C18   C22   D    
N4    Ni3   S    
C6    C72   A    
C15   C80   S    
N10   Ni2   S    
C8    C77   A    
C49   C62   A    
Br8   C74   S    
C39   S4    S    
Br5   C71   S    
C26   C64   S    
N8    N23   A    
H51   O12   S    
C34   H34   S    
C7    C79   A    
C70   N13   A    
H50   O9    S    
O5    S1    D    
C76   H37   S    
C48   H8    S    
C13   C17   D    
N5    Ni6   S    
C23   H23   S    
C54   N6    A    
C19   C24   D    
C78   N26   A    
C9    C20   S    
N9    Ni1   S    
C2    C56   A    
Br4   C21   S    
C23   N23   A    
C33   C44   S    
N30   Ni7   S    
C37   C46   D    
C29   H16   S    
C50   N2    A    
C57   N8    A    
C74   N17   A    
C4    C16   S    
C9    C14   D    
C4    C78   A    
O3    S4    D    
C42   N30   A    
O1    S1    D    
N17   Ni8   S    
C11   C16   D    
C30   C35   D    
C56   N24   A    
C13   H48   S    
C3    C67   A    
C69   N11   A    
C38   S3    S    
C79   N21   A    
C30   H17   S    
N21   Ni3   S    
C68   N10   A    
C10   H46   S    
C45   C80   A    
N15   Ni6   S    
C29   C33   D    
C50   C63   A    
N14   Ni5   S    
C26   H4    S    
N18   Ni2   S    
C69   H33   S    
C34   N27   A    
H49   O6    S    
O10   S3    D    
C45   N22   A    
C56   H41   S    
C66   N9    A    
N24   Ni5   S    
C41   C63   A    
N1    Ni1   S    
C77   N20   A    
C3    C17   S    
C15   H53   S    
C52   N4    A    
C7    C38   S    
C66   C80   A    
C53   N5    A    
C5    C36   S    
N28   N32   A    
O6    S1    S    
C39   C48   D    
N31   Ni8   S    
C51   N3    A    
