data_mof_unit_67634.cif
_audit_creation_date              2013-03-05T16:14:31-0500
_audit_creation_method            fapswitch 2.2
_symmetry_space_group_name_H-M    P1
_symmetry_Int_Tables_number       1
_space_group_crystal_system       triclinic
_cell_length_a                    10.692358
_cell_length_b                    10.651501
_cell_length_c                    9.497911
_cell_angle_alpha                 90.297048
_cell_angle_beta                  89.520247
_cell_angle_gamma                 91.450633
_cell_volume                      1081.31590685

loop_
_atom_site_label
_atom_site_type_symbol
_atom_site_description
_atom_site_fract_x
_atom_site_fract_y
_atom_site_fract_z
_atom_type_partial_charge
O1    O     O_R   0.500060 0.316850 0.620870 -0.578591
O2    O     O_R   0.499940 0.683150 0.379130 -0.578596
O3    O     O_R   0.500000 0.316860 0.379090 -0.507623
O4    O     O_R   0.500000 0.683140 0.620910 -0.507628
C1    C     C_R   0.498214 0.259872 0.499930 0.904863
C2    C     C_R   0.501758 0.740128 0.500070 0.904866
O5    O     O_R   0.316880 0.499960 0.620870 -0.507406
O6    O     O_R   0.683120 0.500040 0.379130 -0.507406
O7    O     O_R   0.316830 0.499970 0.379090 -0.614836
O8    O     O_R   0.683170 0.500030 0.620910 -0.614830
C3    C     C_R   0.259643 0.497120 0.500773 0.829857
C4    C     C_R   0.740357 0.502872 0.499228 0.829884
Cu1   Cu    Cu3+1 0.500030 0.499990 0.643150 1.046910
Cu2   Cu    Cu3+1 0.499970 0.500010 0.356850 1.046919
C5    C     C_3   0.034474 0.448493 0.618937 0.546205
C6    C     C_3   0.965527 0.551487 0.381069 0.546209
C7    C     C_3   0.951798 0.381351 0.508321 -0.323880
C8    C     C_3   0.048201 0.618628 0.491685 -0.323826
H1    H     H_    0.910486 0.284930 0.515592 0.172411
H2    H     H_    0.089510 0.715051 0.484408 0.172389
C9    C     C_3   0.877314 0.503086 0.497514 -0.084151
C10   C     C_3   0.122686 0.496895 0.502491 -0.084123
C11   C     C_3   0.959093 0.569459 0.610197 -0.284169
C12   C     C_3   0.040907 0.430520 0.389810 -0.284215
H3    H     H_    0.923925 0.625398 0.700522 0.169685
H4    H     H_    0.076074 0.374572 0.299492 0.169649
C13   C     C_3   0.472045 0.040751 0.633247 -0.364116
C14   C     C_3   0.527885 0.959249 0.366751 -0.363973
C15   C     C_3   0.586297 0.963476 0.589612 0.363374
C16   C     C_3   0.413630 0.036522 0.410389 0.363422
H5    H     H_    0.450935 0.072950 0.741452 0.227140
H6    H     H_    0.548998 0.927066 0.258539 0.227240
C17   C     C_3   0.502306 0.876764 0.499169 -0.209124
C18   C     C_3   0.497629 0.123234 0.500830 -0.209082
C19   C     C_3   0.388642 0.954513 0.540196 0.402040
C20   C     C_3   0.611288 0.045481 0.459807 0.402089
C21   C     C_3   0.565287 0.592954 0.049922 0.340139
C22   C     C_3   0.434715 0.407046 0.950077 0.340151
C23   C     C_3   0.453678 0.601526 0.951839 0.321743
C24   C     C_3   0.546323 0.398474 0.048161 0.321731
N1    N     N_3   0.500090 0.499970 0.858290 -0.223912
N2    N     N_3   0.499910 0.500030 0.141710 -0.223917
C25   C     C_3   0.612479 0.491727 0.948034 -0.203702
C26   C     C_3   0.387522 0.508273 0.051965 -0.203664
H7    H     H_    0.707418 0.486692 0.901723 0.159681
H8    H     H_    0.292584 0.513310 0.098276 0.159682
O9    O     O_3   0.075439 0.395012 0.745662 -0.536607
C27   C     C_3   0.970332 0.348248 0.821955 0.086353
H9    H     H_    0.932568 0.260864 0.771747 0.129262
H10   H     H_    0.895237 0.418152 0.828122 0.129336
C28   C     C_3   0.007481 0.318076 0.971882 -0.748423
H11   H     H_    0.060817 0.398310 0.018857 0.261856
H12   H     H_    0.922439 0.298591 0.036814 0.223328
H13   H     H_    0.065839 0.233849 0.972314 0.252753
O10   O     O_3   0.924570 0.604980 0.254348 -0.536629
C29   C     C_3   0.029693 0.651631 0.178002 0.086371
H14   H     H_    0.104703 0.581643 0.171794 0.129309
H15   H     H_    0.067577 0.738972 0.228189 0.129191
C30   C     C_3   0.992519 0.681844 0.028095 -0.748324
H16   H     H_    0.934310 0.766172 0.027700 0.252600
H17   H     H_    0.077554 0.701182 0.963101 0.223381
H18   H     H_    0.939029 0.601692 0.981167 0.261873
O11   O     O_3   0.677397 0.916685 0.680414 -0.559317
C31   C     C_3   0.731974 0.017217 0.757421 0.115587
H19   H     H_    0.661433 0.063178 0.825869 0.192642
H20   H     H_    0.776565 0.088286 0.686410 0.139456
C32   C     C_3   0.832403 0.966442 0.851324 -0.822598
H21   H     H_    0.900750 0.914077 0.786836 0.246181
H22   H     H_    0.880982 0.044720 0.907941 0.209304
H23   H     H_    0.788722 0.901826 0.929188 0.292482
O12   O     O_3   0.322553 0.083333 0.319568 -0.559208
C33   C     C_3   0.267726 0.982778 0.242823 0.115236
H24   H     H_    0.222739 0.912122 0.314014 0.139532
H25   H     H_    0.338172 0.936307 0.174723 0.192402
C34   C     C_3   0.167665 0.033648 0.148499 -0.822423
H26   H     H_    0.211718 0.097847 0.070489 0.292603
H27   H     H_    0.118887 0.955386 0.092076 0.209210
H28   H     H_    0.099421 0.086475 0.212602 0.246229
O13   O     O_3   0.272958 0.897305 0.578416 -0.584759
C35   C     C_3   0.185486 0.989167 0.616377 0.098378
H29   H     H_    0.096249 0.966163 0.562027 0.131501
H30   H     H_    0.212882 0.087165 0.585726 0.170399
C36   C     C_3   0.161543 0.984765 0.774131 -0.739468
H31   H     H_    0.249910 0.002579 0.831713 0.291407
H32   H     H_    0.094189 0.057823 0.804255 0.206504
H33   H     H_    0.122955 0.890933 0.804309 0.251610
O14   O     O_3   0.726982 0.102675 0.421600 -0.584706
C37   C     C_3   0.814465 0.010799 0.383715 0.098650
H34   H     H_    0.787026 0.912799 0.414313 0.170388
H35   H     H_    0.903659 0.033776 0.438165 0.131563
C38   C     C_3   0.838539 0.015217 0.225984 -0.739479
H36   H     H_    0.877117 0.109064 0.195854 0.251550
H37   H     H_    0.905948 0.942187 0.195933 0.206472
H38   H     H_    0.750229 0.997370 0.168299 0.291419
Br1   Br    Br    0.376566 0.753960 0.890858 -0.490871
Br2   Br    Br    0.623443 0.246041 0.109145 -0.490908
Br3   Br    Br    0.670582 0.726881 0.122412 -0.529016
Br4   Br    Br    0.329415 0.273142 0.877561 -0.529087

loop_
_geom_bond_atom_site_label_1
_geom_bond_atom_site_label_2
_geom_bond_distance
_ccdc_geom_bond_type
O10   C29   1.413485 S    
C15   O11   1.408583 S    
C6    C9    1.530501 S    
C13   C15   1.542890 S    
C5    O9    1.411964 S    
C22   Br4   1.922971 S    
C21   Br3   1.923027 S    
C16   O12   1.408597 S    
C23   N1    1.488515 S    
O5    C3    1.298841 A    
C15   C20   1.532380 S    
C16   C19   1.532410 S    
O1    C1    1.296428 A    
C12   H4    1.110429 S    
C35   C36   1.518695 S    
C15   C17   1.536287 S    
C21   N2    1.480559 S    
C29   H14   1.109730 S    
O4    Cu1   1.963322 S    
C17   C19   1.534402 S    
C27   C28   1.519701 S    
C36   H31   1.107414 S    
C14   C16   1.542911 S    
C18   C20   1.534375 S    
Cu2   N2    2.043388 S    
C5    C11   1.539960 S    
C30   H16   1.105696 S    
C20   O14   1.410566 S    
Cu1   Cu2   2.719258 S    
N1    C25   1.483790 S    
O2    C2    1.296423 A    
N2    C26   1.483785 S    
C24   Br2   1.933178 S    
C33   C34   1.513707 S    
Cu1   N1    2.043386 S    
C26   H8    1.105371 S    
C5    C10   1.530508 S    
C13   C18   1.556278 S    
C30   H17   1.110227 S    
C7    C12   1.553046 S    
C16   C18   1.536323 S    
C13   H5    1.105063 S    
C8    C11   1.553049 S    
C31   C32   1.513769 S    
C14   H6    1.105083 S    
C22   N1    1.480542 S    
C33   H25   1.112722 S    
C38   H36   1.109670 S    
O7    Cu2   1.967788 S    
C33   H24   1.111967 S    
C13   C19   1.543830 S    
O11   C31   1.410504 S    
C4    C9    1.464291 S    
C7    C9    1.543094 S    
C32   H21   1.109002 S    
C32   H22   1.110070 S    
C31   H20   1.112152 S    
C21   C25   1.536944 S    
C34   H26   1.105237 S    
C22   C26   1.536943 S    
C38   H37   1.108464 S    
C25   H7    1.105383 S    
C24   N2    1.488523 S    
O9    C27   1.413491 S    
C37   C38   1.518711 S    
O5    Cu1   1.971459 S    
O6    C4    1.298848 A    
C1    C18   1.455325 S    
C24   C25   1.534380 S    
C6    C8    1.540266 S    
C27   H10   1.109769 S    
C34   H27   1.110012 S    
C23   Br1   1.933150 S    
O3    Cu2   1.963322 S    
O8    C4    1.303113 A    
C35   H30   1.116406 S    
C27   H9    1.111919 S    
C36   H32   1.108462 S    
C37   H35   1.109967 S    
C14   C17   1.556289 S    
O7    C3    1.303119 A    
C10   C12   1.544783 S    
O4    C2    1.300912 A    
O1    Cu1   1.961077 S    
C5    C7    1.540279 S    
C30   H18   1.109170 S    
O6    Cu2   1.971459 S    
C8    C10   1.543086 S    
C35   H29   1.109969 S    
O3    C1    1.300911 A    
O8    Cu1   1.967789 S    
C29   C30   1.519691 S    
C23   C26   1.534371 S    
C3    C10   1.464290 S    
C2    C17   1.455318 S    
C28   H13   1.105743 S    
C31   H19   1.112835 S    
C32   H23   1.105437 S    
C9    C11   1.544785 S    
C6    O10   1.411960 S    
C28   H11   1.109183 S    
C21   C23   1.524895 S    
C38   H38   1.107440 S    
C22   C24   1.524902 S    
C19   O13   1.410570 S    
C7    H1    1.109929 S    
C29   H15   1.111910 S    
C8    H2    1.109927 S    
C11   H3    1.110426 S    
O2    Cu2   1.961077 S    
C34   H28   1.108850 S    
O13   C35   1.413925 S    
O12   C33   1.410472 S    
C36   H33   1.109680 S    
C37   H34   1.116403 S    
C14   C20   1.543819 S    
O14   C37   1.413934 S    
C6    C12   1.539968 S    
C28   H12   1.110238 S    
