data_mof_unit_21992.cif
_audit_creation_date              2013-03-05T15:49:45-0500
_audit_creation_method            fapswitch 2.2
_symmetry_space_group_name_H-M    P1
_symmetry_Int_Tables_number       1
_space_group_crystal_system       triclinic
_cell_length_a                    12.054346
_cell_length_b                    12.854447
_cell_length_c                    13.104799
_cell_angle_alpha                 86.893372
_cell_angle_beta                  113.416828
_cell_angle_gamma                 93.841064
_cell_volume                      1858.33976298

loop_
_atom_site_label
_atom_site_type_symbol
_atom_site_description
_atom_site_fract_x
_atom_site_fract_y
_atom_site_fract_z
_atom_type_partial_charge
O1    O     O_R   0.579910 0.341070 0.505280 -0.587882
O2    O     O_R   0.388440 0.353740 0.492580 -0.615243
C1    C     C_R   0.478116 0.299615 0.501402 0.954535
O3    O     O_R   0.643280 0.490550 0.663120 -0.585425
O4    O     O_R   0.451810 0.503220 0.650420 -0.633960
C2    C     C_R   0.567224 0.500257 0.708451 0.939026
Zn1   Zn    Zn3+2 0.627850 0.491540 0.508480 1.073523
Zn2   Zn    Zn3+2 0.372150 0.508460 0.491520 0.984134
O5    O     O_R   0.611560 0.646260 0.507420 -0.540974
O6    O     O_R   0.420090 0.658930 0.494720 -0.641716
O7    O     O_R   0.548190 0.496780 0.349580 -0.587031
O8    O     O_R   0.356720 0.509450 0.336880 -0.620256
C3    C     C_R   0.523979 0.700035 0.504438 0.925041
C4    C     C_R   0.433414 0.504661 0.291516 0.880391
C5    C     C_R   0.289636 0.625404 0.006974 -0.125731
C6    C     C_R   0.394702 0.521704 0.172598 -0.054892
C7    C     C_R   0.717343 0.453427 0.894967 -0.185083
C8    C     C_R   0.748570 0.436993 0.009079 0.363676
C9    C     C_R   0.667304 0.464214 0.054303 -0.186881
C10   C     C_R   0.559284 0.514014 0.987881 0.041365
C11   C     C_R   0.540838 0.546007 0.878438 0.080071
C12   C     C_R   0.469384 0.534198 0.026860 0.134952
C13   C     C_R   0.374921 0.601160 0.964888 0.158391
C14   C     C_R   0.368926 0.644701 0.863387 -0.182535
C15   C     C_R   0.450866 0.617500 0.820447 -0.123741
C16   C     C_R   0.470251 0.488417 0.125614 -0.150333
C17   C     C_R   0.301272 0.587643 0.112275 -0.142756
C18   C     C_R   0.611672 0.504031 0.829112 -0.143515
H1    H     H_    0.533819 0.430353 0.171239 0.151521
H2    H     H_    0.444149 0.654243 0.742080 0.173487
C19   C     C_R   0.542393 0.810352 0.518153 -0.169542
C20   C     C_R   0.464274 0.187956 0.504567 -0.222777
C21   C     C_R   0.343335 0.033383 0.423461 0.321982
C22   C     C_R   0.354175 0.140438 0.436079 -0.274596
C23   C     C_R   0.564164 0.129378 0.568020 0.286363
C24   C     C_R   0.556370 0.022233 0.553530 -0.041528
C25   C     C_R   0.446623 0.974660 0.478332 0.006707
C26   C     C_R   0.443514 0.869783 0.458340 -0.204507
C27   C     C_R   0.649664 0.855354 0.596957 0.301525
C28   C     C_R   0.656114 0.961652 0.612886 -0.136489
H3    H     H_    0.363700 0.832607 0.396346 0.201479
H4    H     H_    0.738169 0.995054 0.675220 0.231739
H5    H     H_    0.277205 0.187185 0.390193 0.223165
N1    N     N_R   0.798200 0.480260 0.519790 -0.180530
N2    N     N_R   0.201820 0.519740 0.480210 -0.138956
C29   C     C_R   0.009563 0.597698 0.390812 0.279479
C30   C     C_R   0.129400 0.586972 0.403236 -0.006841
C31   C     C_R   0.159535 0.460672 0.548200 0.046010
C32   C     C_R   0.039727 0.468983 0.541930 -0.111255
C33   C     C_R   0.961898 0.537808 0.460729 -0.167000
C34   C     C_R   0.840626 0.543952 0.453836 0.393632
C35   C     C_R   0.873674 0.416038 0.599030 -0.051854
C36   C     C_R   0.995581 0.410084 0.613990 0.239991
H6    H     H_    0.840255 0.372800 0.654889 0.225395
H7    H     H_    0.164884 0.632417 0.349918 0.159654
H8    H     H_    0.219675 0.406183 0.606207 0.188467
H9    H     H_    0.241949 0.614063 0.148578 0.176458
N3    N     N_R   0.749543 0.794258 0.665481 0.228845
O9    O     O_R   0.731708 0.713717 0.722574 -0.397654
O10   O     O_R   0.859936 0.829697 0.686831 -0.308238
N4    N     N_R   0.227524 0.986048 0.355636 0.213977
O11   O     O_R   0.158290 0.033175 0.264198 -0.300419
O12   O     O_R   0.182097 0.906805 0.394843 -0.334386
N5    N     N_R   0.673681 0.179316 0.644728 0.203235
O13   O     O_R   0.773346 0.177955 0.628644 -0.347901
O14   O     O_R   0.671337 0.233718 0.724686 -0.393235
N6    N     N_R   0.764748 0.622469 0.384831 0.235581
O15   O     O_R   0.775745 0.716078 0.421861 -0.305152
O16   O     O_R   0.702431 0.606652 0.279758 -0.374290
N7    N     N_R   0.938974 0.667904 0.304786 0.239972
O17   O     O_R   0.947858 0.766871 0.324389 -0.238567
O18   O     O_R   0.895444 0.638648 0.202192 -0.329046
N8    N     N_R   0.073558 0.347511 0.705298 0.212500
O19   O     O_R   0.032334 0.258761 0.732210 -0.271960
O20   O     O_R   0.176785 0.387345 0.773883 -0.387519
H10   H     H_    0.299861 0.698539 0.816383 0.172236
H11   H     H_    0.217961 0.677291 0.960967 0.175123
H12   H     H_    0.773587 0.424317 0.856817 0.220910
H13   H     H_    0.692207 0.449086 0.142115 0.199271
N9    N     N_R   0.859723 0.389087 0.077836 0.235987
O21   O     O_R   0.934363 0.362905 0.035245 -0.318404
O22   O     O_R   0.888943 0.373638 0.184174 -0.359199

loop_
_geom_bond_atom_site_label_1
_geom_bond_atom_site_label_2
_geom_bond_distance
_ccdc_geom_bond_type
N8    O19   1.300986 A    
C9    C10   1.418929 A    
C8    N9    1.441242 S    
Zn1   O7    1.914924 S    
C24   C25   1.419840 A    
O4    C2    1.295516 A    
O7    C4    1.295038 A    
N3    O10   1.301262 A    
Zn1   O5    2.010323 S    
C8    C9    1.401123 A    
N4    O12   1.301387 A    
O5    C3    1.286848 A    
Zn2   N2    2.013546 S    
C2    C18   1.456427 S    
C23   C24   1.392353 A    
C13   C14   1.391437 A    
N7    O17   1.300452 A    
N1    C35   1.358071 A    
C6    C17   1.399793 A    
C28   H4    1.081156 S    
N8    O20   1.301528 A    
N4    O11   1.301366 A    
O3    Zn1   1.959462 S    
C35   H6    1.080437 S    
C33   C34   1.435672 A    
N2    C30   1.353950 A    
C6    C16   1.384922 A    
O2    Zn2   2.010323 S    
N6    O15   1.300667 A    
C20   C23   1.402179 A    
C24   C28   1.404828 A    
C21   C22   1.386208 A    
C14   C15   1.387046 A    
C26   H3    1.083165 S    
N9    O22   1.301798 A    
C17   H9    1.083273 S    
C27   C28   1.385806 A    
C14   H10   1.083907 S    
N3    O9    1.300749 A    
C27   N3    1.436530 S    
C21   C25   1.411577 A    
O1    C1    1.287634 A    
C20   C22   1.394290 A    
C25   C26   1.382464 A    
C5    C17   1.393629 A    
Zn2   O8    1.959463 S    
C7    C8    1.396992 A    
C34   N6    1.428409 S    
Zn1   N1    2.013785 S    
C9    H13   1.077578 S    
C23   N5    1.437703 S    
N1    C34   1.377483 A    
O3    C2    1.290446 A    
C31   C32   1.424534 A    
C11   C18   1.405801 A    
C10   C12   1.412316 A    
C4    C6    1.446724 S    
C35   C36   1.410037 A    
C30   H7    1.082710 S    
N2    C31   1.366017 A    
C15   H2    1.082035 S    
C31   H8    1.079952 S    
C11   C15   1.414600 A    
C29   C30   1.403421 A    
O1    Zn1   1.979053 S    
C7    C18   1.402457 A    
C3    C19   1.430465 S    
Zn2   O6    1.979051 S    
C36   N8    1.437106 S    
C22   H5    1.084258 S    
O8    C4    1.288532 A    
N9    O21   1.301705 A    
O6    C3    1.286694 A    
O4    Zn2   1.914924 S    
C29   C33   1.430040 A    
C19   C26   1.390393 A    
N5    O13   1.300975 A    
O2    C1    1.287884 A    
C5    H11   1.083718 S    
C32   C36   1.419898 A    
C5    C13   1.403724 A    
C7    H12   1.083200 S    
C19   C27   1.405816 A    
C1    C20   1.434104 S    
C29   N7    1.428121 S    
C10   C11   1.403717 A    
C16   H1    1.079739 S    
C21   N4    1.437946 S    
C32   C33   1.418061 A    
C12   C16   1.388807 A    
C12   C13   1.420429 A    
N7    O18   1.300773 A    
N6    O16   1.299771 A    
N5    O14   1.301313 A    
