data_mof_unit_41666.cif
_audit_creation_date              2013-03-05T15:49:53-0500
_audit_creation_method            fapswitch 2.2
_symmetry_space_group_name_H-M    P1
_symmetry_Int_Tables_number       1
_space_group_crystal_system       triclinic
_cell_length_a                    27.784581
_cell_length_b                    12.991439
_cell_length_c                    11.712625
_cell_angle_alpha                 98.726505
_cell_angle_beta                  92.871692
_cell_angle_gamma                 91.334973
_cell_volume                      4171.57439321

loop_
_atom_site_label
_atom_site_type_symbol
_atom_site_description
_atom_site_fract_x
_atom_site_fract_y
_atom_site_fract_z
_atom_type_partial_charge
O1    O     O_R   0.502540 0.354460 0.582000 -0.540501
O2    O     O_R   0.497460 0.645540 0.418000 -0.578596
O3    O     O_R   0.496500 0.341410 0.386200 -0.603125
O4    O     O_R   0.503500 0.658590 0.613800 -0.596278
C1    C     C_R   0.498561 0.300131 0.479958 0.853170
C2    C     C_R   0.499909 0.700356 0.519999 0.864135
O5    O     O_R   0.433290 0.506540 0.597890 -0.589361
O6    O     O_R   0.566710 0.493460 0.402110 -0.579276
O7    O     O_R   0.427240 0.493490 0.402090 -0.595057
O8    O     O_R   0.572760 0.506510 0.597910 -0.595022
C3    C     C_R   0.407526 0.500085 0.501072 0.836458
C4    C     C_R   0.592494 0.500956 0.498936 0.827400
Cu1   Cu    Cu3+1 0.503580 0.507730 0.615930 0.968340
Cu2   Cu    Cu3+1 0.496420 0.492270 0.384070 0.949810
C5    C     C_R   0.176913 0.415965 0.496820 0.626309
C6    C     C_R   0.823806 0.597672 0.530870 0.561132
O9    O     O_2   0.200444 0.325518 0.484032 -0.516003
O10   O     O_2   0.800657 0.685639 0.568384 -0.546722
N1    N     N_R   0.202404 0.508426 0.510521 -0.448159
N2    N     N_R   0.797895 0.508346 0.488345 -0.447164
C7    C     C_R   0.180039 0.601768 0.525805 0.506998
C8    C     C_R   0.820024 0.418118 0.447771 0.585908
C9    C     C_R   0.275586 0.482536 0.401023 0.508169
C10   C     C_R   0.717807 0.498433 0.385673 0.499084
C11   C     C_R   0.325972 0.477229 0.400303 -0.303924
C12   C     C_R   0.667369 0.493530 0.389611 -0.314895
C13   C     C_R   0.332490 0.528929 0.608488 -0.198005
C14   C     C_R   0.674333 0.518712 0.599177 -0.233635
C15   C     C_R   0.282438 0.531295 0.610243 -0.176683
C16   C     C_R   0.724338 0.519772 0.595868 -0.196471
C17   C     C_R   0.253924 0.507360 0.507241 0.275212
C18   C     C_R   0.746244 0.508569 0.489705 0.277506
C19   C     C_R   0.102228 0.509300 0.509073 -0.060911
C20   C     C_R   0.898200 0.506830 0.494922 -0.061396
C21   C     C_R   0.126509 0.414599 0.496426 -0.108196
C22   C     C_R   0.874263 0.598427 0.535916 -0.093738
C23   C     C_R   0.100236 0.320326 0.485475 -0.209495
C24   C     C_R   0.900948 0.688297 0.584371 -0.214354
C25   C     C_R   0.129070 0.604904 0.522673 -0.044669
C26   C     C_R   0.870978 0.415242 0.448032 -0.058474
C27   C     C_R   0.354666 0.501937 0.503483 -0.079274
C28   C     C_R   0.645397 0.504359 0.496015 -0.087132
H1    H     H_    0.353786 0.548208 0.689263 0.169288
H2    H     H_    0.658383 0.527595 0.682473 0.165835
H3    H     H_    0.265665 0.551258 0.691828 0.158926
H4    H     H_    0.746247 0.528605 0.676062 0.161610
H5    H     H_    0.118513 0.247111 0.480458 0.208866
H6    H     H_    0.883002 0.757953 0.620774 0.201361
C29   C     C_R   0.973481 0.413712 0.466478 0.057981
C30   C     C_R   0.026833 0.603082 0.527940 0.053872
C31   C     C_R   0.976195 0.601426 0.540151 -0.072040
C32   C     C_R   0.024438 0.411766 0.484949 -0.064561
C33   C     C_R   0.949388 0.507282 0.500680 0.015352
C34   C     C_R   0.051075 0.508021 0.507582 0.015812
C35   C     C_R   0.946033 0.326375 0.410546 -0.211259
C36   C     C_R   0.053685 0.696727 0.530666 -0.224963
C37   C     C_R   0.895798 0.325477 0.402378 -0.054483
C38   C     C_R   0.103832 0.698952 0.529655 -0.051699
O11   O     O_2   0.792578 0.331660 0.409326 -0.526019
O12   O     O_2   0.207294 0.690562 0.543952 -0.542544
C39   C     C_R   0.050056 0.317816 0.483102 0.405805
C40   C     C_R   0.951104 0.689698 0.591478 0.427656
H7    H     H_    0.645469 0.480589 0.309513 0.173799
H8    H     H_    0.342586 0.452420 0.319408 0.157858
H9    H     H_    0.963252 0.258935 0.366978 0.201554
H10   H     H_    0.035872 0.769428 0.528092 0.197400
C41   C     C_R   0.502433 0.813154 0.529269 -0.138168
C42   C     C_R   0.493271 0.188612 0.472180 -0.131902
C43   C     C_R   0.443577 0.033638 0.412592 -0.021982
C44   C     C_R   0.542304 0.974503 0.619210 -0.017428
C45   C     C_R   0.452727 0.138866 0.412025 -0.315920
C46   C     C_R   0.534674 0.867960 0.612963 -0.318873
C47   C     C_R   0.524725 0.135468 0.538073 0.387008
C48   C     C_R   0.474223 0.865789 0.454611 0.391928
C49   C     C_R   0.515315 0.029143 0.543074 -0.047890
C50   C     C_R   0.477206 0.975530 0.469431 -0.037628
H11   H     H_    0.555570 0.826420 0.671144 0.167728
H12   H     H_    0.426934 0.183734 0.369043 0.163553
N3    N     N_R   0.508960 0.519350 0.790140 -0.202051
N4    N     N_R   0.491040 0.480650 0.209860 -0.207805
C51   C     C_R   0.452474 0.405538 0.027627 -0.323069
C52   C     C_R   0.547653 0.594051 0.972246 -0.333353
C53   C     C_R   0.457151 0.414788 0.148272 0.074738
C54   C     C_R   0.542485 0.586068 0.851828 0.079406
C55   C     C_R   0.521598 0.539203 0.154334 0.105588
C56   C     C_R   0.479300 0.458633 0.845239 0.123197
C57   C     C_R   0.517777 0.533394 0.032001 0.028121
C58   C     C_R   0.482794 0.465123 0.967705 0.021088
H13   H     H_    0.565571 0.633231 0.807349 0.128915
H14   H     H_    0.433545 0.368897 0.192950 0.131697
H15   H     H_    0.424978 0.352047 0.982297 0.153917
H16   H     H_    0.574741 0.648428 0.017664 0.150745
C59   C     C_1   0.396634 0.991850 0.366752 0.335505
N5    N     N_1   0.358910 0.958990 0.330599 -0.260425
C60   C     C_1   0.576127 0.024522 0.709680 0.337762
N6    N     N_1   0.603111 0.063965 0.782625 -0.282765
C61   C     C_1   0.444656 0.386645 0.777702 0.293223
N7    N     N_1   0.416772 0.328525 0.724462 -0.287310
C62   C     C_1   0.557696 0.608078 0.221056 0.245866
N8    N     N_1   0.586784 0.663758 0.273386 -0.329357
O13   O     O_3   0.740097 0.484823 0.281293 -0.593537
C63   C     C_3   0.725847 0.560414 0.211859 0.049717
H17   H     H_    0.759022 0.601931 0.191568 0.173366
H18   H     H_    0.702243 0.621555 0.254665 0.143505
C64   C     C_3   0.700904 0.506275 0.098311 -0.321634
H19   H     H_    0.725433 0.448745 0.053828 0.237112
H20   H     H_    0.667710 0.463769 0.116529 0.217017
C65   C     C_3   0.687348 0.584500 0.018100 -0.916534
H21   H     H_    0.663193 0.643455 0.061259 0.260010
H22   H     H_    0.668226 0.543224 0.938020 0.255129
H23   H     H_    0.720244 0.624521 0.993981 0.260936
O14   O     O_3   0.246649 0.453445 0.300824 -0.594061
C66   C     C_3   0.253705 0.523079 0.220636 0.024374
H24   H     H_    0.239679 0.482987 0.134429 0.183933
H25   H     H_    0.292364 0.542827 0.211282 0.131546
C67   C     C_3   0.225527 0.622657 0.251692 -0.347389
H26   H     H_    0.187279 0.601767 0.263706 0.232364
H27   H     H_    0.241290 0.667479 0.333831 0.251749
C68   C     C_3   0.227470 0.691585 0.157426 -0.862444
H28   H     H_    0.265417 0.714430 0.145091 0.262035
H29   H     H_    0.207128 0.763253 0.183029 0.270087
H30   H     H_    0.210951 0.649730 0.074457 0.249434
C69   C     C_1   0.871605 0.230846 0.343871 0.336814
N9    N     N_1   0.852450 0.154921 0.296964 -0.248781
C70   C     C_1   0.127421 0.799851 0.532707 0.330382
N10   N     N_1   0.146075 0.880809 0.535089 -0.237718
O15   O     O_3   0.027148 0.222011 0.481502 -0.623517
C71   C     C_3   0.018821 0.208170 0.596185 0.034992
H31   H     H_    0.995443 0.270166 0.637611 0.147785
H32   H     H_    0.053606 0.209659 0.648299 0.152189
C72   C     C_3   0.993253 0.102366 0.593945 -0.293838
H33   H     H_    0.958429 0.100135 0.542392 0.226148
H34   H     H_    0.015994 0.039798 0.551863 0.235590
C73   C     C_3   0.983529 0.081710 0.715649 -0.893294
H35   H     H_    0.017963 0.081209 0.767998 0.256654
H36   H     H_    0.964787 0.004601 0.710566 0.280733
H37   H     H_    0.960231 0.142474 0.758894 0.253098
O16   O     O_3   0.974379 0.778206 0.652143 -0.636659
C74   C     C_3   0.991428 0.759074 0.762754 0.045695
H38   H     H_    0.023978 0.810181 0.788737 0.176929
H39   H     H_    0.003072 0.677533 0.763740 0.137047
C75   C     C_3   0.953377 0.786988 0.851677 -0.361201
H40   H     H_    0.942171 0.868324 0.849861 0.232640
H41   H     H_    0.921179 0.734075 0.829558 0.218143
C76   C     C_3   0.972872 0.777108 0.973528 -0.882603
H42   H     H_    0.983680 0.695909 0.977680 0.254401
H43   H     H_    0.944455 0.797350 0.035753 0.263389
H44   H     H_    0.004501 0.831047 0.999033 0.258448
O17   O     O_3   0.443428 0.810328 0.368601 -0.608362
C77   C     C_3   0.467931 0.784499 0.264846 0.093079
H45   H     H_    0.460647 0.700295 0.233972 0.190267
H46   H     H_    0.507904 0.797122 0.275838 0.134365
C78   C     C_3   0.448506 0.843982 0.170001 -0.383115
H47   H     H_    0.408563 0.835248 0.161265 0.247793
H48   H     H_    0.458908 0.927840 0.192983 0.218518
C79   C     C_3   0.468806 0.803159 0.053576 -0.893909
H49   H     H_    0.508817 0.809739 0.059917 0.257294
H50   H     H_    0.455165 0.849685 0.987420 0.266732
H51   H     H_    0.457215 0.720428 0.025326 0.260745
O18   O     O_3   0.564204 0.188817 0.598141 -0.596200
C80   C     C_3   0.602854 0.185322 0.523803 0.036303
H52   H     H_    0.594024 0.227938 0.450098 0.131465
H53   H     H_    0.611207 0.103186 0.489508 0.142668
C81   C     C_3   0.647548 0.237422 0.591760 -0.341598
H54   H     H_    0.639468 0.318747 0.628133 0.232533
H55   H     H_    0.657203 0.195097 0.664842 0.241477
C82   C     C_3   0.690426 0.237924 0.515371 -0.812120
H56   H     H_    0.700127 0.156889 0.481830 0.261325
H57   H     H_    0.721942 0.278018 0.566889 0.270917
H58   H     H_    0.681748 0.279738 0.441375 0.267060

loop_
_geom_bond_atom_site_label_1
_geom_bond_atom_site_label_2
_geom_bond_distance
_ccdc_geom_bond_type
C57   C58   1.407965 A    
Cu1   N3    2.020770 S    
C49   C50   1.429010 A    
C59   N5    1.157574 T    
C13   C15   1.392855 A    
C60   N6    1.157462 T    
C79   H51   1.110707 S    
O7    Cu2   1.944342 S    
C72   C73   1.525862 S    
N1    C17   1.434232 S    
C71   H31   1.115086 S    
C80   C81   1.527097 S    
C73   H37   1.110903 S    
C80   H52   1.114502 S    
C69   N9    1.157517 T    
C82   H57   1.110235 S    
C67   H26   1.111736 S    
O5    C3    1.300928 A    
C9    O14   1.386820 S    
C64   H20   1.110333 S    
C47   O18   1.384865 S    
O13   C63   1.417996 S    
C48   C50   1.409813 A    
C43   C50   1.417462 A    
O1    C1    1.290734 A    
C81   H54   1.110044 S    
N1    C7    1.367147 A    
C10   C12   1.404743 A    
C10   O13   1.387396 S    
C43   C59   1.446567 S    
C32   C39   1.425081 A    
N4    C53   1.358750 A    
N3    C54   1.358632 A    
N3    C56   1.376691 A    
C74   C75   1.532196 S    
C56   C58   1.422319 A    
C80   H53   1.115651 S    
C52   C57   1.412432 A    
C61   N7    1.157877 T    
C52   H16   1.081460 S    
C65   H21   1.110435 S    
C63   C64   1.531282 S    
C41   C46   1.393152 A    
C14   C28   1.403020 A    
O4    Cu1   1.963880 S    
C43   C45   1.385732 A    
C56   C61   1.443679 S    
C4    C28   1.471778 S    
C46   H11   1.085936 S    
C76   H43   1.110359 S    
C67   H27   1.110120 S    
C77   C78   1.530475 S    
C36   H10   1.080201 S    
C48   O17   1.389515 S    
Cu2   N4    2.020772 S    
C23   H5    1.083782 S    
C24   H6    1.083786 S    
C6    N2    1.364853 A    
C66   C67   1.533544 S    
C55   C57   1.421814 A    
Cu1   Cu2   2.689495 S    
C15   C17   1.399537 A    
C47   C49   1.410351 A    
C75   C76   1.525823 S    
O2    C2    1.292460 A    
C31   C40   1.425695 A    
C1    C42   1.441381 S    
C5    C21   1.399940 A    
O14   C66   1.416659 S    
C51   C53   1.399086 A    
C32   C34   1.420697 A    
C76   H42   1.110939 S    
C82   H58   1.110142 S    
C68   H29   1.110419 S    
C64   C65   1.526217 S    
C7    O12   1.348356 S    
O4    C2    1.297633 A    
C11   C27   1.404608 A    
C8    O11   1.348355 S    
C73   H36   1.110279 S    
C72   H34   1.111949 S    
C42   C47   1.399399 A    
C29   C35   1.407911 A    
C25   C38   1.416538 A    
C14   H2    1.083092 S    
C30   C36   1.407570 A    
C15   H3    1.082887 S    
C31   C33   1.419813 A    
C11   H8    1.082958 S    
C9    C17   1.405825 A    
C5    N1    1.364101 A    
C12   H7    1.081118 S    
C10   C18   1.405824 A    
N4    C55   1.377614 A    
C55   C62   1.443886 S    
C37   C69   1.446565 S    
C13   C27   1.403690 A    
C62   N8    1.157883 T    
C7    C25   1.416491 A    
O6    C4    1.300264 A    
C29   C32   1.422899 A    
C8    C26   1.416964 A    
C30   C31   1.421318 A    
C39   O15   1.381828 S    
C41   C48   1.408665 A    
C19   C25   1.417437 A    
C40   O16   1.384414 S    
C78   C79   1.526575 S    
C63   H18   1.117486 S    
O7    C3    1.298896 A    
O3    Cu2   1.963880 S    
O8    C4    1.299939 A    
C20   C33   1.420281 A    
C2    C41   1.452683 S    
N2    C8    1.368107 A    
C52   C54   1.398305 A    
C35   C37   1.393921 A    
C70   N10   1.157518 T    
C77   H46   1.117027 S    
C78   H48   1.109697 S    
C54   H13   1.081801 S    
C72   H33   1.111982 S    
C71   C72   1.528536 S    
C82   H56   1.110680 S    
C76   H44   1.110890 S    
C12   C28   1.404531 A    
C66   H24   1.110936 S    
N2    C18   1.436053 S    
C68   H30   1.110856 S    
C19   C34   1.420192 A    
C5    O9    1.350109 S    
C53   H14   1.081799 S    
C79   H49   1.110880 S    
O6    Cu2   1.953267 S    
C26   C37   1.416567 A    
C21   C23   1.396639 A    
C35   H9    1.079467 S    
C16   H4    1.082933 S    
C81   C82   1.525814 S    
O3    C1    1.292536 A    
O8    Cu1   1.944342 S    
C71   H32   1.115111 S    
C23   C39   1.392632 A    
C74   H38   1.111088 S    
C67   C68   1.525635 S    
C73   H35   1.110859 S    
C64   H19   1.111617 S    
C77   H45   1.109375 S    
C65   H23   1.110765 S    
O18   C80   1.413265 S    
C81   H55   1.110716 S    
C44   C60   1.446063 S    
C14   C16   1.391646 A    
C30   C34   1.414619 A    
O17   C77   1.422228 S    
C6    C22   1.399961 A    
C22   C24   1.396918 A    
C16   C18   1.401022 A    
C74   H39   1.116377 S    
C65   H22   1.110743 S    
C42   C45   1.389777 A    
C29   C33   1.415378 A    
C79   H50   1.110298 S    
C19   C21   1.408577 A    
C36   C38   1.393615 A    
C3    C27   1.471059 S    
C20   C22   1.408702 A    
C9    C11   1.403652 A    
C63   H17   1.111176 S    
O2    Cu2   1.969692 S    
C51   C58   1.412511 A    
O16   C74   1.416444 S    
C51   H15   1.082192 S    
C13   H1    1.083055 S    
O5    Cu1   1.953273 S    
O1    Cu1   1.969693 S    
C38   C70   1.446556 S    
C6    O10   1.350167 S    
C68   H28   1.110990 S    
C44   C49   1.418199 A    
C75   H40   1.111498 S    
C20   C26   1.416911 A    
C44   C46   1.385705 A    
C66   H25   1.113144 S    
C78   H47   1.110957 S    
C45   H12   1.085904 S    
C75   H41   1.110868 S    
O15   C71   1.411608 S    
C24   C40   1.391407 A    
