data_mof_unit_6998.cif
_audit_creation_date              2012-10-26T20:59:12-0400
_audit_creation_method            fapswitch 2.2
_symmetry_space_group_name_H-M    P1
_symmetry_Int_Tables_number       1
_space_group_crystal_system       triclinic
_cell_length_a                    15.884438
_cell_length_b                    9.084408
_cell_length_c                    7.787412
_cell_angle_alpha                 89.897812
_cell_angle_beta                  90.162242
_cell_angle_gamma                 90.164407
_cell_volume                      1123.71822219

loop_
_atom_site_label
_atom_site_type_symbol
_atom_type_description
_atom_site_fract_x
_atom_site_fract_y
_atom_site_fract_z
_atom_type_partial_charge
C1    C     C_1   0.499992 0.065391 0.500129 -0.047463
C2    C     C_3   0.972391 0.530735 0.659474 -0.117719
C3    C     C_1   0.249803 0.499088 0.499107 -0.026894
C4    C     C_1   0.750197 0.500912 0.500893 -0.026893
C5    C     C_3   0.027239 0.397722 0.608975 0.025730
C6    C     C_3   0.972761 0.602277 0.391025 0.025730
C7    C     C_3   0.082826 0.499084 0.499715 0.035958
C8    C     C_3   0.917173 0.500915 0.500285 0.035959
C9    C     C_1   0.174370 0.498844 0.498878 -0.060524
C10   C     C_1   0.825630 0.501156 0.501122 -0.060523
C11   C     C_R   0.939987 0.712580 0.263025 0.036570
C12   C     C_1   0.500008 0.934609 0.499871 -0.047463
C13   C     C_R   0.959291 0.863032 0.278158 -0.100805
C14   C     C_R   0.928423 0.963651 0.157462 -0.111122
C15   C     C_R   0.878476 0.914941 0.020817 -0.100243
C16   C     C_R   0.859074 0.765491 0.004865 -0.117359
C17   C     C_R   0.889705 0.664545 0.125400 -0.100053
C18   C     C_R   0.060014 0.287422 0.736976 0.036570
C19   C     C_R   0.110300 0.335458 0.874594 -0.100052
C20   C     C_R   0.140931 0.234515 0.995131 -0.117359
C21   C     C_R   0.121524 0.085066 0.979189 -0.100243
C22   C     C_R   0.071575 0.036354 0.842550 -0.111122
C23   C     C_R   0.499977 0.220041 0.500093 0.550595
C24   C     C_R   0.040707 0.136970 0.721851 -0.100806
C25   C     C_R   0.500023 0.779959 0.499907 0.550595
C26   C     C_R   0.339383 0.499630 0.499732 0.544470
C27   C     C_R   0.660617 0.500369 0.500268 0.544470
C28   C     C_3   0.970846 0.366708 0.450886 -0.117261
C29   C     C_3   0.029154 0.633292 0.549114 -0.117263
C30   C     C_3   0.027609 0.469264 0.340526 -0.117720
Cu1   Cu    Cu3+1 0.500010 0.500000 0.669080 1.026150
Cu2   Cu    Cu3+1 0.499990 0.500000 0.330920 1.026150
H1    H     H_    0.051014 0.445882 0.209440 0.106553
H2    H     H_    0.125568 0.451105 0.888665 0.109642
H3    H     H_    0.179448 0.272277 0.101253 0.118824
H4    H     H_    0.144863 0.007077 0.073033 0.116295
H5    H     H_    0.056196 0.920671 0.831130 0.111225
H6    H     H_    0.001754 0.097061 0.617733 0.090199
H7    H     H_    0.948986 0.554122 0.790561 0.106550
H8    H     H_    0.944966 0.258996 0.409230 0.093851
H9    H     H_    0.055034 0.741001 0.590777 0.093853
H10   H     H_    0.998241 0.902940 0.382282 0.090199
H11   H     H_    0.943798 0.079335 0.168889 0.111223
H12   H     H_    0.855138 0.992932 0.926975 0.116294
H13   H     H_    0.820558 0.727730 0.898738 0.118822
H14   H     H_    0.874440 0.548897 0.111323 0.109640
N1    N     N_1   0.499990 0.500000 0.076820 -0.079096
N2    N     N_1   0.500010 0.500000 0.923180 -0.079096
O1    O     O_R   0.500000 0.288400 0.642760 -0.494975
O2    O     O_R   0.500000 0.711600 0.357240 -0.494975
O3    O     O_R   0.500000 0.288400 0.357240 -0.495993
O4    O     O_R   0.500000 0.711600 0.642760 -0.495993
O5    O     O_R   0.379080 0.500000 0.642760 -0.496121
O6    O     O_R   0.620920 0.500000 0.357240 -0.496121
O7    O     O_R   0.379070 0.500000 0.357190 -0.500431
O8    O     O_R   0.620930 0.500000 0.642810 -0.500430

loop_
_geom_bond_atom_site_label_1
_geom_bond_atom_site_label_2
_ccdc_geom_bond_type
C16   H13   S    
C24   H6    S    
Cu2   O3    S    
C3    C9    T    
Cu1   O8    S    
C27   O8    A    
C5    C28   S    
C12   C25   S    
Cu2   O7    S    
C23   O3    A    
N1    N2    T    
C14   C15   A    
Cu1   O4    S    
C26   O7    A    
C4    C27   S    
C19   C20   A    
C28   C30   S    
C25   O4    A    
C21   H4    S    
C13   C14   A    
Cu1   O5    S    
C11   C13   A    
Cu2   O2    S    
C16   C17   A    
C1    C12   T    
Cu1   O1    S    
C2    C29   S    
C7    C29   S    
Cu2   O6    S    
C13   H10   S    
C6    C30   S    
C15   H12   S    
C1    C23   S    
Cu1   N2    S    
C8    C28   S    
Cu2   N1    S    
C22   C24   A    
C27   O6    A    
C2    C5    S    
C23   O1    A    
C28   H8    S    
C4    C10   T    
C15   C16   A    
C26   O5    A    
C7    C9    S    
C6    C29   S    
C17   H14   S    
C18   C24   A    
C8    C10   S    
C18   C19   A    
C6    C11   S    
C5    C7    S    
C25   O2    A    
C11   C17   A    
C6    C8    S    
C5    C18   S    
C30   H1    S    
C29   H9    S    
C20   C21   A    
C21   C22   A    
C22   H5    S    
C2    H7    S    
C20   H3    S    
C3    C26   S    
C2    C8    S    
Cu1   Cu2   S    
C14   H11   S    
C19   H2    S    
C7    C30   S    
