data_mof_unit_66043.cif
_audit_creation_date              2012-12-10T19:07:21-0500
_audit_creation_method            fapswitch 2.2
_symmetry_space_group_name_H-M    P1
_symmetry_Int_Tables_number       1
_space_group_crystal_system       triclinic
_cell_length_a                    13.047069
_cell_length_b                    13.625001
_cell_length_c                    19.235426
_cell_angle_alpha                 90.110532
_cell_angle_beta                  92.84842
_cell_angle_gamma                 85.779306
_cell_volume                      3405.9191143

loop_
_atom_site_label
_atom_site_type_symbol
_atom_type_description
_atom_site_fract_x
_atom_site_fract_y
_atom_site_fract_z
_atom_type_partial_charge
C1    C     C_R   0.481240 0.685173 0.499175 0.903930
C2    C     C_2   0.966977 0.526509 0.520015 -0.231410
C3    C     C_1   0.854801 0.519371 0.514383 0.168675
C4    C     C_1   0.145199 0.480629 0.485616 0.168674
C5    C     C_R   0.499900 0.497334 0.634396 0.884045
C6    C     C_R   0.500100 0.502666 0.365604 0.884047
C7    C     C_R   0.420624 0.547362 0.742565 -0.220857
C8    C     C_R   0.579372 0.452632 0.257435 -0.220859
C9    C     C_R   0.419727 0.547987 0.814526 -0.145557
C10   C     C_R   0.580266 0.452003 0.185474 -0.145556
C11   C     C_R   0.497424 0.493924 0.854079 0.042383
C12   C     C_R   0.518760 0.314827 0.500824 0.903929
C13   C     C_R   0.502571 0.506067 0.145921 0.042383
C14   C     C_R   0.574826 0.437736 0.820751 -0.172590
C15   C     C_R   0.425171 0.562259 0.179249 -0.172590
C16   C     C_R   0.576280 0.436777 0.748670 0.147678
C17   C     C_R   0.423720 0.563222 0.251330 0.147678
C18   C     C_R   0.499388 0.493318 0.709464 -0.077605
C19   C     C_R   0.500611 0.506680 0.290536 -0.077603
C20   C     C_R   0.501625 0.503376 0.070121 0.308166
C21   C     C_R   0.498368 0.496613 0.929879 0.308166
C22   C     C_1   0.533641 0.211683 0.501769 -0.155119
C23   C     C_1   0.466359 0.788317 0.498230 -0.155119
C24   C     C_2   0.544562 0.020531 0.502648 -0.152888
C25   C     C_2   0.455438 0.979469 0.497350 -0.152888
C26   C     C_1   0.457493 0.875728 0.497603 0.028563
C27   C     C_1   0.542507 0.124272 0.502396 0.028563
C28   C     C_2   0.033023 0.473491 0.479984 -0.231410
H1    H     H_    0.360886 0.590666 0.712700 0.161135
H2    H     H_    0.002905 0.423030 0.441680 0.168796
H3    H     H_    0.639110 0.409328 0.287300 0.161134
H4    H     H_    0.358764 0.591504 0.839000 0.162288
H5    H     H_    0.641227 0.408483 0.160999 0.162288
H6    H     H_    0.634361 0.394179 0.850501 0.175664
H7    H     H_    0.365637 0.605817 0.149499 0.175664
H8    H     H_    0.382123 0.022985 0.492891 0.166355
H9    H     H_    0.617877 0.977015 0.507108 0.166355
H10   H     H_    0.997096 0.576970 0.558320 0.168796
I1    I     I_    0.692765 0.342865 0.703894 -0.335986
I2    I     I_    0.307240 0.657140 0.296106 -0.335987
N1    N     N_R   0.574257 0.445839 0.968409 -0.168725
N2    N     N_R   0.425735 0.554150 0.031591 -0.168725
N3    N     N_R   0.575816 0.449082 0.037349 -0.170504
N4    N     N_R   0.424176 0.550907 0.962650 -0.170504
N5    N     N_1   0.234540 0.484780 0.488910 -0.083710
N6    N     N_1   0.765460 0.515220 0.511090 -0.083709
O1    O     O_R   0.402510 0.634760 0.495940 -0.596443
O2    O     O_R   0.597490 0.365240 0.504060 -0.596443
O3    O     O_R   0.572960 0.644530 0.503060 -0.607741
O4    O     O_R   0.427040 0.355470 0.496940 -0.607742
O5    O     O_R   0.414750 0.495120 0.598300 -0.619100
O6    O     O_R   0.585250 0.504880 0.401700 -0.619099
O7    O     O_R   0.585190 0.504900 0.605420 -0.585747
O8    O     O_R   0.414810 0.495100 0.394580 -0.585748
Zn1   Zn    Zn3+2 0.386190 0.493480 0.495250 1.006304
Zn2   Zn    Zn3+2 0.613810 0.506520 0.504750 1.006304

loop_
_geom_bond_atom_site_label_1
_geom_bond_atom_site_label_2
_ccdc_geom_bond_type
C14   H6    S    
C20   N2    A    
C10   C13   A    
C15   C17   A    
C7    H1    S    
C12   C22   S    
C21   N4    A    
C9    C11   A    
C15   H7    S    
C2    H10   S    
C3    N6    T    
C12   O4    A    
O4    Zn1   S    
C13   C20   S    
C24   C27   S    
C12   O2    A    
C7    C18   A    
C28   H2    S    
C2    C3    S    
O1    Zn1   S    
C6    C19   S    
N1    N3    A    
N2    N4    A    
C6    O8    A    
C21   N1    A    
C5    O7    A    
C17   C19   A    
C1    C23   S    
C10   H5    S    
O5    Zn1   S    
C22   C27   T    
C13   C15   A    
C11   C14   A    
C14   C16   A    
O7    Zn2   S    
C8    C19   A    
C25   H8    S    
C4    N5    T    
O3    Zn2   S    
C7    C9    A    
C20   N3    A    
C24   C25   D    
N5    Zn1   S    
C16   C18   A    
C4    C28   S    
C23   C26   T    
N6    Zn2   S    
C24   H9    S    
O2    Zn2   S    
O8    Zn1   S    
C5    O5    A    
C2    C28   D    
C5    C18   S    
C16   I1    S    
C9    H4    S    
C6    O6    A    
C25   C26   S    
C8    H3    S    
C1    O3    A    
C11   C21   S    
C8    C10   A    
C1    O1    A    
O6    Zn2   S    
C17   I2    S    
