data_mof_unit_47753.cif
_audit_creation_date              2012-12-10T18:12:30-0500
_audit_creation_method            fapswitch 2.2
_symmetry_space_group_name_H-M    P1
_symmetry_Int_Tables_number       1
_space_group_crystal_system       triclinic
_cell_length_a                    9.695216
_cell_length_b                    10.890642
_cell_length_c                    17.208465
_cell_angle_alpha                 88.70213
_cell_angle_beta                  86.559075
_cell_angle_gamma                 88.614087
_cell_volume                      1812.77698696

loop_
_atom_site_label
_atom_site_type_symbol
_atom_type_description
_atom_site_fract_x
_atom_site_fract_y
_atom_site_fract_z
_atom_type_partial_charge
C1    C     C_R   0.497726 0.739974 0.502383 0.827383
C2    C     C_R   0.470866 0.643398 0.757108 -0.219404
C3    C     C_R   0.415446 0.548047 0.144798 -0.111801
C4    C     C_R   0.407945 0.539425 0.225518 -0.136639
C5    C     C_R   0.652655 0.486123 0.223141 -0.111076
C6    C     C_R   0.659707 0.493414 0.142136 -0.122153
C7    C     C_R   0.541570 0.525373 0.102633 0.146548
C8    C     C_2   0.465898 0.594457 0.974751 -0.071067
C9    C     C_2   0.548946 0.523868 0.017398 -0.202114
C10   C     C_R   0.526333 0.508233 0.265318 -0.039032
C11   C     C_3   0.347565 0.935538 0.482702 0.205711
C12   C     C_R   0.481422 0.500707 0.649286 0.919408
C13   C     C_3   0.358070 0.076107 0.464467 0.202650
C14   C     C_3   0.528120 0.931945 0.582014 -0.302803
C15   C     C_3   0.599671 0.928632 0.439464 -0.408895
C16   C     C_3   0.492348 0.879740 0.502687 -0.087677
C17   C     C_3   0.496798 0.123446 0.495141 -0.123424
C18   C     C_3   0.512121 0.073303 0.579732 -0.362307
C19   C     C_3   0.616847 0.067863 0.444727 -0.325019
C20   C     C_3   0.925802 0.366247 0.499664 0.555026
C21   C     C_3   0.091459 0.371573 0.501113 -0.245352
C22   C     C_3   0.931279 0.557836 0.425104 0.318639
C23   C     C_R   0.500545 0.261142 0.496388 0.887669
C24   C     C_3   0.914097 0.557061 0.570008 0.283699
C25   C     C_3   0.093736 0.559081 0.428625 -0.266195
C26   C     C_3   0.077006 0.559284 0.566593 -0.240474
C27   C     C_R   0.517754 0.501184 0.350454 0.862610
C28   C     C_R   0.468453 0.521605 0.732760 -0.184625
C29   C     C_R   0.446365 0.425894 0.788088 0.387216
C30   C     C_R   0.445781 0.452671 0.866820 -0.267883
C31   C     C_R   0.460649 0.573497 0.891169 -0.029747
C32   C     C_R   0.467897 0.670744 0.836017 0.475823
Cu1   Cu    Cu3+1 0.357600 0.500140 0.499960 1.008195
Cu2   Cu    Cu3+1 0.642400 0.499860 0.500040 1.137932
H1    H     H_    0.757264 0.474013 0.110231 0.159333
H2    H     H_    0.315124 0.888658 0.430210 0.157574
H3    H     H_    0.464084 0.893957 0.631629 0.244431
H4    H     H_    0.567895 0.904782 0.381072 0.228169
H5    H     H_    0.625692 0.110167 0.385662 0.261823
H6    H     H_    0.603851 0.112069 0.604685 0.270533
H7    H     H_    0.133683 0.322027 0.551527 0.245329
H8    H     H_    0.145878 0.321014 0.453035 0.248373
H9    H     H_    0.909988 0.498995 0.377003 0.175605
H10   H     H_    0.745525 0.462032 0.252540 0.208568
H11   H     H_    0.883396 0.499456 0.621254 0.181718
H12   H     H_    0.132220 0.654532 0.425930 0.230090
H13   H     H_    0.622459 0.460146 0.988646 0.173959
H14   H     H_    0.321607 0.568869 0.115583 0.150941
H15   H     H_    0.475372 0.717238 0.714099 0.201483
H16   H     H_    0.400626 0.666327 0.001239 0.193838
N1    N     N_3   0.856560 0.499750 0.498270 -0.327425
N2    N     N_3   0.143860 0.496700 0.498910 -0.269667
O1    O     O_R   0.379740 0.682430 0.499960 -0.582627
O2    O     O_R   0.620260 0.682190 0.500020 -0.470236
O3    O     O_R   0.365800 0.500150 0.613560 -0.570112
O4    O     O_R   0.606310 0.499910 0.613620 -0.518672
O5    O     O_R   0.379740 0.317810 0.499980 -0.597483
O6    O     O_R   0.620260 0.317570 0.500040 -0.506753
O7    O     O_R   0.393690 0.500090 0.386380 -0.592665
O8    O     O_R   0.634200 0.499850 0.386440 -0.527022
S1    S     S_3+6 0.414122 0.273749 0.762153 0.039745
O9    O     O_2   0.321843 0.274619 0.695085 -0.263767
O10   O     O_2   0.548796 0.209816 0.739106 -0.272492
O11   O     O_3   0.335850 0.196473 0.837625 -0.457539
H17   H     H_    0.411782 0.158485 0.866590 0.377177
S2    S     S_3+6 0.212777 0.910661 0.558592 0.016608
O12   O     O_2   0.089260 0.879953 0.516162 -0.211330
O13   O     O_2   0.247087 0.806908 0.613655 -0.316663
O14   O     O_3   0.175056 0.036137 0.611849 -0.498304
H18   H     H_    0.098159 0.011659 0.649034 0.421472
S3    S     S_3+6 0.331691 0.111422 0.362320 0.000334
O15   O     O_2   0.334276 0.247714 0.347331 -0.283921
O16   O     O_2   0.437705 0.050545 0.307871 -0.314293
O17   O     O_3   0.176338 0.060130 0.341992 -0.455128
H19   H     H_    0.163416 0.088149 0.287696 0.400848
H20   H     H_    0.270529 0.125156 0.495177 0.192237
H21   H     H_    0.420681 0.101218 0.617197 0.281384
H22   H     H_    0.701619 0.886074 0.445513 0.307643
H23   H     H_    0.309310 0.557293 0.256599 0.174131
H24   H     H_    0.712625 0.084207 0.473740 0.273253
H25   H     H_    0.634195 0.907079 0.595387 0.237298
S4    S     S_3+6 0.904741 0.274447 0.410352 -0.009017
O18   O     O_2   0.765725 0.290356 0.377888 -0.341475
O19   O     O_2   0.008400 0.311181 0.345817 -0.330648
O20   O     O_3   0.938173 0.124476 0.427170 -0.436598
H26   H     H_    0.910790 0.082814 0.380060 0.396797
S5    S     S_3+6 0.876954 0.272090 0.588887 0.009804
O21   O     O_2   0.735828 0.300868 0.623983 -0.273763
O22   O     O_2   0.886195 0.137221 0.573019 -0.261909
O23   O     O_3   0.984927 0.297077 0.659878 -0.559848
H27   H     H_    0.961271 0.235046 0.701222 0.412214
H28   H     H_    0.141224 0.514680 0.375718 0.199425
S6    S     S_3+6 0.849691 0.702882 0.608263 0.058179
O24   O     O_2   0.711062 0.693749 0.650265 -0.314526
O25   O     O_2   0.947346 0.741711 0.667404 -0.246959
O26   O     O_3   0.841995 0.813972 0.541170 -0.469474
H29   H     H_    0.854694 0.890904 0.569245 0.402952
H30   H     H_    0.113564 0.517751 0.621450 0.215751
H31   H     H_    0.112338 0.654313 0.564273 0.275962
S7    S     S_3+6 0.879369 0.695646 0.371420 0.026537
O27   O     O_2   0.933863 0.810485 0.403124 -0.203766
O28   O     O_2   0.950068 0.682166 0.291635 -0.327822
O29   O     O_3   0.710681 0.713449 0.357387 -0.565809
H32   H     H_    0.705214 0.749154 0.304165 0.363564
S8    S     S_3+6 0.478361 0.825621 0.863765 0.043903
O30   O     O_2   0.509140 0.907748 0.793770 -0.241746
O31   O     O_2   0.342756 0.865110 0.903486 -0.266629
O32   O     O_3   0.604306 0.837486 0.926057 -0.505088
H33   H     H_    0.599279 0.924272 0.942232 0.382637
H34   H     H_    0.432703 0.379147 0.909890 0.188732

loop_
_geom_bond_atom_site_label_1
_geom_bond_atom_site_label_2
_ccdc_geom_bond_type
C10   C27   S    
Cu1   O3    S    
C23   O6    A    
S2    O13   D    
S5    O21   D    
Cu2   O4    S    
S6    O24   D    
C20   S4    S    
C14   C18   S    
O20   H26   S    
C6    H1    S    
Cu1   N2    S    
C15   C19   S    
S8    O31   D    
Cu2   N1    S    
C17   C23   S    
C30   H34   S    
C24   H11   S    
C28   C29   A    
C24   C26   S    
C20   N1    S    
C3    C7    A    
C27   O8    A    
C5    C6    A    
S2    O14   S    
C15   C16   S    
C20   S5    S    
C3    H14   S    
O32   H33   S    
C2    C32   A    
S1    O10   D    
C1    O1    A    
C18   H6    S    
C31   C32   A    
C8    C9    D    
C22   C25   S    
C11   S2    S    
C26   H31   S    
C24   N1    S    
S2    O12   D    
Cu1   O7    S    
Cu2   O8    S    
C19   H24   S    
Cu1   Cu2   S    
Cu1   O1    S    
S8    O32   S    
C29   S1    S    
C22   S7    S    
O17   H19   S    
C4    H23   S    
S3    O16   D    
C13   S3    S    
S7    O29   S    
S1    O11   S    
C1    O2    A    
C15   H4    S    
C29   C30   A    
C2    H15   S    
C26   N2    S    
C11   C16   S    
C22   H9    S    
C13   H20   S    
O26   H29   S    
S7    O28   D    
C17   C18   S    
C1    C16   S    
C12   O4    A    
C19   H5    S    
C26   H30   S    
C21   H7    S    
C5    H10   S    
C12   C28   S    
Cu2   O2    S    
S6    O26   S    
S4    O19   D    
C32   S8    S    
S5    O22   D    
C14   C16   S    
C4    C10   A    
C3    C4    A    
C8    H16   S    
C23   O5    A    
C11   H2    S    
C25   H28   S    
Cu1   O5    S    
C8    C31   S    
S3    O17   S    
C9    H13   S    
C6    C7    A    
S4    O20   S    
S8    O30   D    
C13   C17   S    
O11   H17   S    
C25   N2    S    
S3    O15   D    
C27   O7    A    
C24   S6    S    
C14   H3    S    
C11   C13   S    
O23   H27   S    
C30   C31   A    
C18   H21   S    
S7    O27   D    
C17   C19   S    
S1    O9    D    
O14   H18   S    
C12   O3    A    
C21   H8    S    
C15   H22   S    
C7    C9    S    
C5    C10   A    
C20   C21   S    
S6    O25   D    
S4    O18   D    
S5    O23   S    
O29   H32   S    
Cu2   O6    S    
C2    C28   A    
C14   H25   S    
C25   H12   S    
C21   N2    S    
C22   N1    S    
