data_mof_unit_39969.cif
_audit_creation_date              2012-12-10T19:01:24-0500
_audit_creation_method            fapswitch 2.2
_symmetry_space_group_name_H-M    P1
_symmetry_Int_Tables_number       1
_space_group_crystal_system       triclinic
_cell_length_a                    9.6146
_cell_length_b                    10.820512
_cell_length_c                    15.732497
_cell_angle_alpha                 88.717071
_cell_angle_beta                  73.059275
_cell_angle_gamma                 90.310708
_cell_volume                      1565.19101722

loop_
_atom_site_label
_atom_site_type_symbol
_atom_type_description
_atom_site_fract_x
_atom_site_fract_y
_atom_site_fract_z
_atom_type_partial_charge
C1    C     C_R   0.999546 0.262594 0.500398 0.831233
C2    C     C_R   0.217394 0.497325 0.045220 0.099052
C3    C     C_R   0.321637 0.500022 0.091935 0.098565
C4    C     C_R   0.917325 0.495036 0.671632 0.767223
C5    C     C_R   0.072564 0.468857 0.091716 -0.222743
C6    C     C_R   0.033324 0.442955 0.183349 0.425986
C7    C     C_R   0.272964 0.509160 0.184494 -0.291140
C8    C     C_R   0.130773 0.065004 0.477298 0.136627
C9    C     C_R   0.000180 0.129379 0.496235 -0.082945
C10   C     C_R   0.869588 0.063276 0.508019 -0.213241
C11   C     C_R   0.869430 0.934810 0.510474 -0.113950
C12   C     C_R   0.665352 0.477974 0.905169 0.104891
C13   C     C_R   0.000161 0.870872 0.498363 -0.090664
C14   C     C_R   0.130647 0.937564 0.478136 0.117172
C15   C     C_3   0.249348 0.931055 0.521560 -0.438051
C16   C     C_R   0.999654 0.737334 0.501199 0.837184
C17   C     C_3   0.250169 0.071306 0.520293 -0.410424
C18   C     C_R   0.594031 0.594895 0.458873 0.189201
C19   C     C_R   0.548302 0.413603 0.548703 0.060991
C20   C     C_R   0.400645 0.414587 0.547538 -0.051642
C21   C     C_R   0.447405 0.592525 0.457580 0.183704
C22   C     C_3   0.487151 0.623908 0.361040 -0.506157
C23   C     C_R   0.756971 0.425791 0.951801 0.090249
C24   C     C_3   0.644327 0.630611 0.361874 0.238338
C25   C     C_R   0.082558 0.492911 0.328699 0.911064
C26   C     C_R   0.870009 0.476808 0.769022 -0.120640
C27   C     C_R   0.128274 0.482372 0.231331 -0.152417
C28   C     C_R   0.898724 0.391918 0.906782 -0.177872
C29   C     C_R   0.958036 0.418356 0.816231 -0.006292
C30   C     C_R   0.725382 0.505764 0.814173 -0.238590
C31   C     C_2   0.587852 0.316128 0.604996 0.352759
C32   C     C_2   0.111459 0.383143 0.774947 0.330733
C33   C     C_R   0.516107 0.496558 0.951112 0.068936
C34   C     C_R   0.469762 0.485210 0.045464 0.068198
C35   C     C_R   0.567615 0.441322 0.090210 -0.159675
C36   C     C_R   0.706042 0.406121 0.043230 -0.166833
C37   C     C_R   0.409509 0.514487 0.906181 -0.181950
C38   C     C_R   0.261831 0.510065 0.952699 -0.148521
Cu1   Cu    Cu3+1 0.140670 0.499980 0.500000 0.958308
Cu2   Cu    Cu3+1 0.859330 0.500020 0.500000 0.999600
H1    H     H_    0.773426 0.362226 0.078593 0.221940
H2    H     H_    0.467387 0.545056 0.322165 0.187048
H3    H     H_    0.348154 0.535084 0.220194 0.166361
H4    H     H_    0.439703 0.713108 0.347615 0.233646
H5    H     H_    0.714706 0.561215 0.320919 0.171573
H6    H     H_    0.182418 0.512525 0.916066 0.141767
H7    H     H_    0.964589 0.345030 0.942551 0.179465
H8    H     H_    0.661567 0.552394 0.777325 0.153431
H9    H     H_    0.534648 0.421794 0.160967 0.182944
H10   H     H_    0.436293 0.519468 0.834647 0.140346
H11   H     H_    0.680848 0.324719 0.629135 0.135541
H12   H     H_    0.995637 0.451868 0.055555 0.137672
H13   H     H_    0.662112 0.965559 0.388908 0.376672
H14   H     H_    0.838578 0.197729 0.338300 0.378763
H15   H     H_    0.186451 0.444663 0.728091 0.094237
H16   H     H_    0.766813 0.110065 0.519615 0.190809
H17   H     H_    0.766446 0.885821 0.525677 0.211548
H18   H     H_    0.212710 0.888979 0.589706 0.206407
H19   H     H_    0.349597 0.891180 0.477127 0.250374
H20   H     H_    0.214324 0.110850 0.587766 0.222919
H21   H     H_    0.351666 0.112815 0.475094 0.224190
H22   H     H_    0.324033 0.345418 0.584918 0.179852
N1    N     N_R   0.648210 0.500930 0.499430 -0.253653
N2    N     N_R   0.352300 0.500890 0.499430 -0.206202
O1    O     O_R   0.118810 0.319640 0.500000 -0.589301
O2    O     O_2   0.876099 0.783952 0.335050 -0.281029
O3    O     O_2   0.708873 0.823555 0.246851 -0.248008
O4    O     O_3   0.625575 0.882348 0.412996 -0.586917
O5    O     O_2   0.749707 0.376134 0.243291 -0.372560
O6    O     O_2   0.919775 0.226801 0.157543 -0.267973
O7    O     O_3   0.918586 0.259704 0.319490 -0.526777
O8    O     O_2   0.157676 0.285966 0.796242 -0.508697
O9    O     O_R   0.881230 0.319680 0.499990 -0.594059
O10   O     O_R   0.055580 0.499970 0.629840 -0.606902
O11   O     O_R   0.818000 0.500010 0.629830 -0.616931
O12   O     O_R   0.118770 0.680320 0.500010 -0.584259
O13   O     O_R   0.881190 0.680360 0.500000 -0.552010
O14   O     O_R   0.182000 0.499990 0.370170 -0.591526
O15   O     O_R   0.944420 0.500030 0.370160 -0.530841
O16   O     O_2   0.512744 0.222818 0.627378 -0.561281
S1    S     S_3+6 0.719063 0.783606 0.336950 0.009588
S2    S     S_3+6 0.899960 0.325368 0.225776 -0.014432

loop_
_geom_bond_atom_site_label_1
_geom_bond_atom_site_label_2
_ccdc_geom_bond_type
C28   H7    S    
C6    S2    S    
C18   C21   A    
C35   C36   A    
C19   C31   S    
C31   O16   D    
C32   O8    D    
Cu1   N2    S    
C12   C23   A    
Cu2   N1    S    
C18   C24   S    
O4    S1    S    
C30   H8    S    
C28   C29   A    
C34   C35   A    
C29   C32   S    
C3    C7    A    
C5    C6    A    
C18   N1    A    
C7    C27   A    
Cu2   O9    S    
C16   O13   A    
Cu1   O10   S    
H13   O4    S    
C4    O11   A    
O5    S2    D    
C17   H21   S    
C22   H4    S    
H14   O7    S    
C19   C20   A    
C19   N1    A    
C8    C9    A    
C21   N2    A    
C35   H9    S    
C1    O1    A    
C5    H12   S    
C7    H3    S    
C10   H16   S    
C9    C10   A    
C32   H15   S    
C4    O10   A    
O7    S2    S    
C25   O15   A    
C13   C14   A    
Cu1   O1    S    
C36   H1    S    
C25   O14   A    
Cu1   O14   S    
C1    C9    S    
Cu1   Cu2   S    
C3    C34   A    
C23   C28   A    
C33   C37   A    
C20   N2    A    
C24   S1    S    
C37   C38   A    
C2    C38   A    
C6    C27   A    
C33   C34   A    
Cu2   O15   S    
Cu1   O12   S    
O3    S1    D    
C15   H18   S    
C22   C24   S    
C2    C5    A    
C24   H5    S    
C15   C17   S    
C8    C14   A    
C12   C30   A    
C16   O12   A    
C15   H19   S    
C31   H11   S    
C4    C26   S    
C26   C30   A    
C25   C27   S    
C8    C17   S    
Cu2   O11   S    
C1    O9    A    
C21   C22   S    
C2    C3    A    
O2    S1    D    
C37   H10   S    
C11   C13   A    
C22   H2    S    
Cu2   O13   S    
C20   H22   S    
O6    S2    D    
C38   H6    S    
C10   C11   A    
C17   H20   S    
C26   C29   A    
C23   C36   A    
C13   C16   S    
C14   C15   S    
C12   C33   A    
C11   H17   S    
