data_mof_unit_54132.cif
_audit_creation_date              2012-12-10T16:52:02-0500
_audit_creation_method            fapswitch 2.2
_symmetry_space_group_name_H-M    P1
_symmetry_Int_Tables_number       1
_space_group_crystal_system       triclinic
_cell_length_a                    7.840042
_cell_length_b                    8.75814
_cell_length_c                    14.974438
_cell_angle_alpha                 92.373685
_cell_angle_beta                  85.110251
_cell_angle_gamma                 92.906409
_cell_volume                      1022.4365482

loop_
_atom_site_label
_atom_site_type_symbol
_atom_type_description
_atom_site_fract_x
_atom_site_fract_y
_atom_site_fract_z
_atom_type_partial_charge
C1    C     C_R   0.544526 0.793655 0.496992 0.861447
C2    C     C_R   0.611544 0.601644 0.810860 0.422416
C3    C     C_R   0.500347 0.500937 0.231629 -0.313227
C4    C     C_R   0.499656 0.499067 0.768369 -0.313238
C5    C     C_R   0.616516 0.598780 0.183107 0.422899
C6    C     C_R   0.383494 0.401220 0.816891 0.422911
C7    C     C_R   0.623686 0.591275 0.089779 -0.053202
C8    C     C_R   0.376328 0.408724 0.910218 -0.053230
C9    C     C_R   0.500101 0.499246 0.046635 -0.089217
C10   C     C_R   0.499910 0.500756 0.953362 -0.089231
C11   C     C_R   0.376633 0.406253 0.096807 -0.105142
C12   C     C_R   0.455474 0.206345 0.503009 0.861448
C13   C     C_R   0.623373 0.593752 0.903190 -0.105123
C14   C     C_R   0.750694 0.676525 0.039550 -0.304635
C15   C     C_R   0.249323 0.323472 0.960446 -0.304589
C16   C     C_3   0.387391 0.158259 0.240197 -0.259945
C17   C     C_3   0.612600 0.841746 0.759798 -0.259952
C18   C     C_3   0.656002 0.845807 0.232556 -0.362656
C19   C     C_3   0.344026 0.154193 0.767440 -0.362658
C20   C     C_3   0.036510 0.679916 0.896091 -0.310787
C21   C     C_3   0.963563 0.320222 0.103979 -0.310730
C22   C     C_3   0.839425 0.999158 0.432447 -0.205882
C23   C     C_R   0.754533 0.675604 0.946523 0.546472
C24   C     C_3   0.160583 0.000841 0.567566 -0.205897
C25   C     C_3   0.947223 0.329731 0.344667 -0.108429
C26   C     C_3   0.052773 0.670265 0.655337 -0.108366
C27   C     C_R   0.245478 0.324399 0.053471 0.546463
C28   C     C_2   0.569185 0.955942 0.499227 0.177099
C29   C     C_2   0.430815 0.044059 0.500778 0.177101
C30   C     C_R   0.500152 0.498372 0.672708 0.965448
C31   C     C_R   0.499849 0.501630 0.327291 0.965444
C32   C     C_R   0.388457 0.398362 0.189137 0.422363
H1    H     H_    0.848468 0.744546 0.072110 0.208652
H2    H     H_    0.763200 0.933021 0.233824 0.186177
H3    H     H_    0.570026 0.858265 0.295043 0.160033
H4    H     H_    0.236835 0.066971 0.766183 0.186173
H5    H     H_    0.415282 0.128456 0.825982 0.157583
H6    H     H_    0.429981 0.141735 0.704946 0.160039
H7    H     H_    0.019261 0.561326 0.867350 0.173587
H8    H     H_    0.084769 0.677441 0.963722 0.161705
H9    H     H_    0.136461 0.740916 0.852159 0.168686
H10   H     H_    0.915412 0.323107 0.036345 0.161640
H11   H     H_    0.980891 0.438657 0.132926 0.173669
H12   H     H_    0.151543 0.255455 0.927887 0.208675
H13   H     H_    0.863498 0.259075 0.147774 0.168694
H14   H     H_    0.775613 0.031894 0.373379 0.091745
H15   H     H_    0.885754 0.881871 0.421870 0.214691
H16   H     H_    0.955195 0.074874 0.437429 0.234936
H17   H     H_    0.114264 0.118131 0.578149 0.214693
H18   H     H_    0.224399 0.968094 0.626630 0.091747
H19   H     H_    0.044806 0.925133 0.562584 0.234927
H20   H     H_    0.949577 0.433607 0.304313 0.185312
H21   H     H_    0.816418 0.283696 0.362739 0.152348
H22   H     H_    0.007827 0.237444 0.302715 0.195027
H23   H     H_    0.508534 0.182587 0.273029 0.103471
H24   H     H_    0.183580 0.716296 0.637264 0.152327
H25   H     H_    0.050411 0.566396 0.695699 0.185361
H26   H     H_    0.992173 0.762559 0.697285 0.195019
H27   H     H_    0.415377 0.107871 0.171371 0.159196
H28   H     H_    0.309864 0.071516 0.280006 0.204285
H29   H     H_    0.491463 0.817416 0.726961 0.103465
H30   H     H_    0.690128 0.928495 0.719995 0.204296
H31   H     H_    0.584600 0.892127 0.828625 0.159189
H32   H     H_    0.584772 0.871556 0.174006 0.157582
N1    N     N_2   0.950330 0.457950 0.475660 0.186890
N2    N     N_2   0.049670 0.542050 0.524340 0.186885
O1    O     O_R   0.389250 0.738570 0.505970 -0.619081
O2    O     O_3   0.707800 0.709605 0.761249 -0.558765
O3    O     O_3   0.725340 0.699616 0.227219 -0.597638
O4    O     O_3   0.274675 0.300378 0.772779 -0.597622
O5    O     O_3   0.883601 0.759113 0.898685 -0.574375
O6    O     O_3   0.116392 0.240900 0.101298 -0.574410
O7    O     O_3   0.732762 0.016602 0.512767 -0.619837
O8    O     O_3   0.267236 0.983399 0.487242 -0.619837
O9    O     O_3   0.037989 0.358796 0.420501 -0.518436
O10   O     O_3   0.962008 0.641197 0.579503 -0.518442
O11   O     O_R   0.610750 0.261430 0.494030 -0.619082
O12   O     O_R   0.678390 0.711620 0.490370 -0.570954
O13   O     O_R   0.321610 0.288380 0.509630 -0.570948
O14   O     O_R   0.355420 0.513510 0.639950 -0.662822
O15   O     O_R   0.644580 0.486490 0.360050 -0.662821
O16   O     O_R   0.644560 0.486560 0.624350 -0.559297
O17   O     O_R   0.355440 0.513440 0.375650 -0.559304
O18   O     O_3   0.292195 0.290403 0.238747 -0.558790
Zn1   Zn    Zn3+2 0.306940 0.517990 0.510420 1.054190
Zn2   Zn    Zn3+2 0.693060 0.482010 0.489580 1.054190

loop_
_geom_bond_atom_site_label_1
_geom_bond_atom_site_label_2
_ccdc_geom_bond_type
C22   H16   S    
C12   C29   S    
C24   O8    S    
C14   H1    S    
C20   H9    S    
N1    Zn2   S    
C28   C29   D    
C25   H21   S    
C15   H12   S    
C2    O2    S    
C19   H4    S    
C20   H8    S    
C12   O13   A    
C16   O18   S    
C31   O17   A    
C13   C23   A    
C7    C9    A    
C16   H28   S    
C2    C13   A    
C5    O3    S    
C19   H5    S    
C17   H29   S    
C21   H11   S    
C26   H26   S    
C7    C14   A    
C1    C28   S    
C26   O10   S    
C20   O5    S    
C9    C10   A    
O15   Zn2   S    
C30   O14   A    
O12   Zn2   S    
C18   O3    S    
C22   H15   S    
C1    O12   A    
N2    Zn1   S    
C28   O7    S    
C21   H13   S    
C24   H18   S    
C32   O18   S    
O1    Zn1   S    
C21   O6    S    
C23   O5    S    
C25   H22   S    
C4    C6    A    
C5    C7    A    
C20   H7    S    
C6    C8    A    
C29   O8    S    
O16   Zn2   S    
C26   H24   S    
C25   O9    S    
C16   H27   S    
C14   C23   A    
C30   O16   A    
C2    C4    A    
O14   Zn1   S    
C19   H6    S    
C17   H30   S    
C9    C11   A    
C15   C27   A    
C11   C27   A    
N2    O10   S    
C12   O11   A    
C3    C31   S    
C18   H2    S    
O17   Zn1   S    
C11   C32   A    
C8    C15   A    
O13   Zn1   S    
C18   H3    S    
C24   H17   S    
C6    O4    S    
C17   O2    S    
C22   H14   S    
C3    C5    A    
C10   C13   A    
N1    O9    S    
O11   Zn2   S    
C31   O15   A    
C25   H20   S    
C17   H31   S    
C18   H32   S    
C24   H19   S    
C1    O1    A    
C3    C32   A    
C26   H25   S    
C16   H23   S    
C21   H10   S    
C8    C10   A    
N1    N2    D    
C19   O4    S    
C22   O7    S    
C4    C30   S    
C27   O6    S    
