data_mof_unit_25078.cif
_audit_creation_date              2012-12-10T19:27:34-0500
_audit_creation_method            fapswitch 2.2
_symmetry_space_group_name_H-M    P1
_symmetry_Int_Tables_number       1
_space_group_crystal_system       triclinic
_cell_length_a                    18.962449
_cell_length_b                    18.788914
_cell_length_c                    19.062004
_cell_angle_alpha                 110.295203
_cell_angle_beta                  110.254945
_cell_angle_gamma                 109.717998
_cell_volume                      5104.80965948

loop_
_atom_site_label
_atom_site_type_symbol
_atom_type_description
_atom_site_fract_x
_atom_site_fract_y
_atom_site_fract_z
_atom_type_partial_charge
C1    C     C_R   0.380855 0.378879 0.500037 0.924652
C2    C     C_R   0.619263 0.335465 0.595062 -0.101694
C3    C     C_R   0.274114 0.222000 0.441009 0.123745
C4    C     C_R   0.615130 0.496258 0.621314 0.884520
C5    C     C_R   0.317698 0.312276 0.501863 -0.143906
C6    C     C_R   0.297542 0.338852 0.567477 -0.242851
C7    C     C_R   0.233282 0.276189 0.569024 0.351228
C8    C     C_R   0.187417 0.185675 0.502954 -0.156499
C9    C     C_R   0.210407 0.161898 0.440997 -0.044086
C10   C     C_3   0.190546 0.083975 0.363725 -0.474615
C11   C     C_3   0.263006 0.151809 0.362453 0.261547
C12   C     C_R   0.727845 0.567458 0.781599 -0.130072
C13   C     C_R   0.276745 0.441404 0.223439 0.020703
C14   C     C_R   0.312938 0.499402 0.312767 -0.058360
C15   C     C_R   0.291017 0.564732 0.337603 -0.107850
C16   C     C_R   0.620737 0.621167 0.501454 1.020363
C17   C     C_R   0.227893 0.565678 0.273801 -0.174002
C18   C     C_R   0.188169 0.502843 0.185138 -0.030328
C19   C     C_R   0.217355 0.445266 0.160391 0.095641
C20   C     C_3   0.165074 0.347358 0.097337 -0.492140
C21   C     C_3   0.228110 0.341747 0.167744 0.224548
C22   C     C_R   0.767293 0.697546 0.527402 0.081068
C23   C     C_R   0.817398 0.502613 0.812579 -0.027038
C24   C     C_R   0.684595 0.688309 0.500429 -0.234802
C25   C     C_R   0.659830 0.729760 0.455273 0.421191
C26   C     C_R   0.723556 0.789631 0.450808 -0.173168
C27   C     C_R   0.810210 0.807854 0.490602 -0.160062
C28   C     C_R   0.377968 0.498080 0.379195 0.988378
C29   C     C_R   0.828728 0.755376 0.521105 0.256013
C30   C     C_3   0.904595 0.782414 0.604271 -0.444516
C31   C     C_3   0.837422 0.724216 0.615160 -0.443236
C32   C     C_R   0.004561 0.379179 0.885964 0.977249
C33   C     C_R   0.880248 0.498150 0.877757 0.882839
C34   C     C_R   0.765760 0.432143 0.724115 -0.049880
C35   C     C_R   0.003749 0.621379 0.122839 0.926991
C36   C     C_R   0.120457 0.500616 0.119795 0.884311
C37   C     C_R   0.997820 0.117430 0.620324 0.979980
C38   C     C_R   0.120326 0.118990 0.499935 0.946915
C39   C     C_R   0.997228 0.877660 0.379908 0.944892
C40   C     C_R   0.711233 0.636471 0.816389 0.259829
C41   C     C_R   0.878994 0.879168 0.498509 0.972864
C42   C     C_R   0.927484 0.231084 0.758686 0.015424
C43   C     C_R   0.007695 0.309925 0.826085 -0.267565
C44   C     C_R   0.085377 0.325199 0.824637 0.414527
C45   C     C_R   0.685773 0.420487 0.670189 0.006342
C46   C     C_R   0.080035 0.259972 0.756425 -0.145056
C47   C     C_R   0.999267 0.183838 0.687488 -0.193350
C48   C     C_R   0.922278 0.170512 0.687110 0.033100
C49   C     C_3   0.858099 0.091740 0.680312 0.163358
C50   C     C_3   0.870603 0.158023 0.764970 0.210577
C51   C     C_R   0.926477 0.671076 0.186132 -0.009213
C52   C     C_R   0.739962 0.676587 0.905732 0.249110
C53   C     C_R   0.005686 0.689906 0.188946 -0.160369
C54   C     C_R   0.082646 0.775235 0.253632 0.481438
C55   C     C_R   0.077455 0.836726 0.315288 -0.237252
C56   C     C_R   0.675011 0.494065 0.692426 -0.109634
C57   C     C_R   0.999188 0.813887 0.314705 -0.132667
C58   C     C_R   0.924063 0.731213 0.250264 0.089342
C59   C     C_3   0.866638 0.659206 0.257301 0.653561
C60   C     C_3   0.864037 0.592767 0.181500 -0.494190
C61   C     C_R   0.824805 0.697074 0.962663 0.257052
C62   C     C_R   0.861519 0.653721 0.923798 0.216006
C63   C     C_R   0.801257 0.572467 0.840932 -0.151896
C64   C     C_R   0.790634 0.373481 0.685091 0.340489
C65   C     C_R   0.724399 0.288963 0.610842 -0.071219
C66   C     C_R   0.637835 0.268585 0.568545 -0.097563
H1    H     H_    0.123392 0.051204 0.306395 0.204828
H2    H     H_    0.207066 0.039011 0.381538 0.244014
H3    H     H_    0.397891 0.200491 0.319523 0.346207
H4    H     H_    0.237394 0.155482 0.302818 0.133481
H5    H     H_    0.320175 0.613089 0.406050 0.202610
H6    H     H_    0.207602 0.612659 0.293797 0.203663
H7    H     H_    0.171404 0.329213 0.038745 0.210068
H8    H     H_    0.282593 0.270294 0.270579 0.340311
H9    H     H_    0.804732 0.679159 0.732876 0.360046
H10   H     H_    0.436940 0.602082 0.274205 0.386626
H11   H     H_    0.706498 0.824489 0.419571 0.230075
H12   H     H_    0.096012 0.316443 0.081696 0.244779
H13   H     H_    0.946845 0.756621 0.592849 0.240562
H14   H     H_    0.844423 0.668133 0.616244 0.235225
H15   H     H_    0.834785 0.767282 0.669996 0.270665
H16   H     H_    0.256354 0.555915 0.933336 0.389469
H17   H     H_    0.139264 0.268069 0.757387 0.260118
H18   H     H_    0.712681 0.969221 0.441162 0.391492
H19   H     H_    0.639301 0.724556 0.034250 0.392169
H20   H     H_    0.641162 0.067947 0.711914 0.396330
H21   H     H_    0.910457 0.156202 0.822334 0.072597
H22   H     H_    0.262630 0.745658 0.249550 0.400018
H23   H     H_    0.267818 0.316816 0.148257 0.110432
H24   H     H_    0.997341 0.767117 0.492364 0.382838
H25   H     H_    0.649971 0.619129 0.118598 0.406317
H26   H     H_    0.893108 0.554126 0.197852 0.238542
H27   H     H_    0.799922 0.551361 0.118169 0.241564
H28   H     H_    0.943603 0.932251 0.130237 0.381372
H29   H     H_    0.099845 0.769518 0.014120 0.389338
H30   H     H_    0.945028 0.552643 0.725892 0.388841
H31   H     H_    0.741217 0.242123 0.580690 0.217888
H32   H     H_    0.552843 0.320238 0.557678 0.213278
H33   H     H_    0.940403 0.854129 0.655180 0.213073
H34   H     H_    0.884263 0.048727 0.689423 0.041478
H35   H     H_    0.135108 0.901764 0.365943 0.174573
H36   H     H_    0.331914 0.408271 0.617804 0.225262
H37   H     H_    0.586956 0.203753 0.510495 0.228940
H38   H     H_    0.092805 0.300825 0.574449 0.378087
O1    O     O_R   0.408400 0.356680 0.448290 -0.606244
O2    O     O_R   0.948300 0.091670 0.539990 -0.541669
O3    O     O_R   0.143340 0.091640 0.551750 -0.585374
O4    O     O_R   0.408370 0.460100 0.551700 -0.630803
O5    O     O_R   0.039900 0.091690 0.448360 -0.613550
O6    O     O_R   0.051700 0.908430 0.460110 -0.611030
O7    O     O_R   0.948260 0.908480 0.356720 -0.583120
O8    O     O_R   0.960100 0.908410 0.551740 -0.642064
O9    O     O_R   0.856660 0.908460 0.448350 -0.575932
O10   O     O_R   0.591630 0.448290 0.539910 -0.616110
O11   O     O_R   0.591590 0.551710 0.643320 -0.558643
O12   O     O_R   0.051700 0.460090 0.908430 -0.518861
O13   O     O_R   0.591630 0.539900 0.448300 -0.601993
O14   O     O_R   0.591600 0.643320 0.551710 -0.530189
O15   O     O_R   0.408410 0.448290 0.356680 -0.621542
O16   O     O_R   0.408370 0.551710 0.460090 -0.611177
O17   O     O_R   0.948260 0.356680 0.908450 -0.597828
O18   O     O_2   0.240967 0.273869 0.709018 -0.258397
O19   O     O_2   0.266164 0.412078 0.712686 -0.221681
O20   O     O_3   0.106179 0.276118 0.612146 -0.558847
O21   O     O_2   0.398819 0.155604 0.477808 -0.262533
O22   O     O_2   0.328055 0.046725 0.321799 -0.187370
O23   O     O_R   0.856640 0.448300 0.908430 -0.611218
O24   O     O_3   0.430753 0.212155 0.379405 -0.542766
O25   O     O_2   0.129052 0.328923 0.241802 -0.230296
O26   O     O_2   0.107220 0.190085 0.138308 -0.234354
O27   O     O_3   0.248743 0.290170 0.293315 -0.570655
O28   O     O_2   0.651267 0.724692 0.751996 -0.184349
O29   O     O_2   0.808158 0.806055 0.861471 -0.190934
O30   O     O_3   0.752115 0.682884 0.705832 -0.598587
O31   O     O_2   0.518369 0.717412 0.464964 -0.260879
O32   O     O_2   0.547417 0.770405 0.371696 -0.260015
O33   O     O_3   0.486440 0.602733 0.315857 -0.571533
O34   O     O_R   0.960090 0.551710 0.908400 -0.518783
O35   O     O_2   0.201865 0.452740 0.995513 -0.359802
O36   O     O_2   0.261963 0.404458 0.906271 -0.234012
O37   O     O_3   0.198547 0.502724 0.883839 -0.448021
O38   O     O_2   0.692042 0.949881 0.571117 -0.193797
O39   O     O_2   0.714603 0.086898 0.571786 -0.221648
O40   O     O_3   0.770822 0.998475 0.494639 -0.561117
O41   O     O_2   0.727884 0.818763 0.982081 -0.166906
O42   O     O_2   0.590607 0.678505 0.863886 -0.256525
O43   O     O_3   0.669350 0.695215 0.014896 -0.476163
O44   O     O_2   0.800920 0.205733 0.860743 -0.267161
O45   O     O_R   0.948250 0.539920 0.091630 -0.642884
O46   O     O_2   0.755733 0.215067 0.729230 -0.278436
O47   O     O_3   0.689472 0.059014 0.710941 -0.432365
O48   O     O_2   0.188840 0.832688 0.198067 -0.213881
O49   O     O_2   0.258588 0.886254 0.354915 -0.238065
O50   O     O_3   0.206075 0.723854 0.247413 -0.593462
O51   O     O_2   0.864503 0.576460 0.348571 -0.207064
O52   O     O_2   0.007318 0.667876 0.371442 -0.326080
O53   O     O_3   0.940627 0.747596 0.442411 -0.573132
O54   O     O_2   0.708336 0.574425 0.238011 -0.229644
O55   O     O_2   0.775781 0.734194 0.295045 -0.294656
O56   O     O_R   0.051690 0.643330 0.091610 -0.526284
O57   O     O_3   0.707921 0.627583 0.129047 -0.505846
O58   O     O_2   0.847270 0.781015 0.122402 -0.236104
O59   O     O_2   0.979835 0.802309 0.117891 -0.285183
O60   O     O_3   0.906010 0.882860 0.067991 -0.417197
O61   O     O_2   0.961144 0.682812 0.853098 -0.307226
O62   O     O_2   0.973568 0.812830 0.958090 -0.182827
O63   O     O_3   0.049051 0.738361 0.018268 -0.450815
O64   O     O_2   0.937984 0.369579 0.715373 -0.260997
O65   O     O_2   0.873795 0.396324 0.600599 -0.266561
O66   O     O_3   0.959433 0.525977 0.761314 -0.473206
O67   O     O_R   0.039870 0.448310 0.091660 -0.621725
O68   O     O_R   0.143310 0.551720 0.091640 -0.580981
O69   O     O_R   0.051740 0.091620 0.643380 -0.633330
S1    S     S_3+6 0.213882 0.312469 0.654942 0.052839
S2    S     S_3+6 0.187027 0.807531 0.264373 0.085678
S3    S     S_3+6 0.921310 0.660734 0.356598 0.048523
S4    S     S_3+6 0.762103 0.649002 0.231598 0.087909
S5    S     S_3+6 0.891326 0.791100 0.071590 0.120422
S6    S     S_3+6 0.962388 0.723458 0.936985 0.115233
S7    S     S_3+6 0.892423 0.415868 0.690673 0.063754
S8    S     S_3+6 0.356786 0.139430 0.386623 0.054626
S9    S     S_3+6 0.174281 0.285609 0.209743 0.043430
S10   S     S_3+6 0.730714 0.716453 0.785147 0.125613
S11   S     S_3+6 0.550981 0.707512 0.402743 0.059764
S12   S     S_3+6 0.190415 0.422311 0.906302 0.075033
S13   S     S_3+6 0.754384 0.030872 0.578420 0.108983
S14   S     S_3+6 0.680619 0.719767 0.941253 0.150969
S15   S     S_3+6 0.777613 0.161927 0.766907 0.127795
Zn1   Zn    Zn3+2 0.500020 0.430950 0.430950 1.067792
Zn2   Zn    Zn3+2 0.499980 0.569050 0.569050 1.186906
Zn3   Zn    Zn3+2 0.930910 0.430960 0.000050 1.114625
Zn4   Zn    Zn3+2 0.069050 0.569060 0.000020 1.200115
Zn5   Zn    Zn3+2 0.069070 0.000020 0.569080 1.058320
Zn6   Zn    Zn3+2 0.930930 0.000080 0.431020 1.136210

loop_
_geom_bond_atom_site_label_1
_geom_bond_atom_site_label_2
_ccdc_geom_bond_type
O51   S3    D    
O63   S6    S    
O25   S9    D    
O18   S1    D    
C40   C52   A    
C22   C29   A    
C27   C29   A    
O9    Zn6   S    
C4    O11   A    
C19   C20   S    
C11   S8    S    
O30   S10   S    
C50   S15   S    
C11   H4    S    
C7    C8    A    
O2    Zn6   S    
O33   S11   S    
C21   H23   S    
C53   C54   A    
O68   Zn4   S    
C26   C27   A    
C29   C30   S    
O50   S2    S    
O41   S14   D    
C1    C5    S    
O36   S12   D    
C4    O10   A    
O54   S4    D    
C16   O14   A    
C52   C61   A    
O28   S10   D    
O46   S15   D    
C30   C31   S    
C64   S7    S    
O27   S9    S    
C35   C53   S    
H18   O40   S    
C39   C57   S    
C7    S1    S    
C33   O23   A    
C18   C19   A    
C38   O3    A    
C35   O56   A    
C46   C47   A    
O11   Zn2   S    
O29   S10   D    
C39   O6    A    
C49   S13   S    
H3    O24   S    
C8    C9    A    
C23   C33   S    
C41   O8    A    
C52   S14   S    
C37   C47   S    
C9    C10   S    
O65   S7    D    
C25   S11   S    
C44   S12   S    
C40   S10   S    
C60   H27   S    
C23   C63   A    
O12   Zn4   S    
H20   O47   S    
C59   C60   S    
C16   C24   S    
O10   Zn1   S    
H30   O66   S    
C13   C14   A    
C4    C56   S    
O48   S2    D    
O4    Zn2   S    
O47   S15   S    
C8    C38   S    
O31   S11   D    
O55   S4    D    
H16   O37   S    
C66   H37   S    
C44   C46   A    
C60   H26   S    
C2    C45   A    
H10   O33   S    
C21   S9    S    
O38   S13   D    
H8    O27   S    
C36   O68   A    
C26   H11   S    
O45   Zn3   S    
C22   C31   S    
C13   C19   A    
O21   S8    D    
O1    Zn1   S    
O42   S14   D    
C59   S4    S    
C24   C25   A    
C45   C56   A    
C31   H14   S    
C59   S3    S    
C28   O16   A    
C62   S6    S    
C51   C58   A    
C12   C63   A    
O40   S13   S    
O7    Zn6   S    
O43   S14   S    
C25   C26   A    
O64   S7    D    
C30   H33   S    
O23   Zn3   S    
O66   S7    S    
C51   C53   A    
H22   O50   S    
C54   S2    S    
C12   C40   A    
C43   C44   A    
C62   C63   A    
C3    C9    A    
O16   Zn2   S    
H9    O30   S    
C27   C41   S    
C47   C48   A    
C33   O34   A    
C23   C34   A    
O32   S11   D    
O59   S5    D    
C34   C64   A    
C17   C18   A    
C13   C21   S    
O5    Zn6   S    
C34   C45   A    
C42   C48   A    
C32   O12   A    
C38   O5    A    
O56   Zn4   S    
C12   C56   A    
O13   Zn1   S    
C50   H21   S    
C42   C50   S    
C30   H13   S    
C48   C49   S    
C65   C66   A    
C55   C57   A    
O26   S9    D    
O61   S6    D    
O39   S13   D    
C22   C24   A    
C51   C60   S    
O37   S12   S    
C42   C43   A    
O57   S4    S    
H28   O60   S    
O3    Zn5   S    
O19   S1    D    
O60   S5    S    
O6    Zn5   S    
C15   C17   A    
C55   H35   S    
C54   C55   A    
O52   S3    D    
C36   O67   A    
C32   O17   A    
O34   Zn4   S    
O24   S8    S    
O15   Zn1   S    
C41   O9    A    
C3    C5    A    
C28   O15   A    
H29   O63   S    
O53   S3    S    
O17   Zn3   S    
C2    C66   A    
C6    C7    A    
H38   O20   S    
C10   H2    S    
O44   S15   D    
C15   H5    S    
O49   S2    D    
C31   H15   S    
C20   H12   S    
C64   C65   A    
H24   O53   S    
H19   O43   S    
C58   C59   S    
C65   H31   S    
C37   O2    A    
C10   H1    S    
C16   O13   A    
C49   H34   S    
O69   Zn5   S    
O14   Zn2   S    
C57   C58   A    
C5    C6    A    
C39   O7    A    
C32   C43   S    
C20   H7    S    
C6    H36   S    
C61   C62   A    
O67   Zn3   S    
O8    Zn5   S    
O58   S5    D    
C3    C11   S    
C10   C11   S    
C1    O4    A    
C37   O69   A    
C46   H17   S    
C61   S5    S    
O20   S1    S    
C20   C21   S    
C2    H32   S    
C17   H6    S    
C49   C50   S    
C14   C15   A    
H25   O57   S    
O22   S8    D    
O62   S6    D    
C35   O45   A    
C14   C28   S    
O35   S12   D    
C18   C36   S    
C1    O1    A    
