data_mof_unit_20011.cif
_audit_creation_date              2012-12-10T18:49:02-0500
_audit_creation_method            fapswitch 2.2
_symmetry_space_group_name_H-M    P1
_symmetry_Int_Tables_number       1
_space_group_crystal_system       triclinic
_cell_length_a                    10.745123
_cell_length_b                    10.009333
_cell_length_c                    14.100877
_cell_angle_alpha                 90.001481
_cell_angle_beta                  91.886391
_cell_angle_gamma                 89.998043
_cell_volume                      1515.74878599

loop_
_atom_site_label
_atom_site_type_symbol
_atom_type_description
_atom_site_fract_x
_atom_site_fract_y
_atom_site_fract_z
_atom_type_partial_charge
C1    C     C_R   0.260379 0.500001 0.501779 0.855882
C2    C     C_1   0.499055 0.500005 0.957296 -0.035531
C3    C     C_R   0.063734 0.378668 0.503144 -0.208737
C4    C     C_R   0.936266 0.621329 0.496861 -0.208731
C5    C     C_R   0.936278 0.378663 0.496946 -0.208700
C6    C     C_R   0.063722 0.621334 0.503061 -0.208703
C7    C     C_R   0.872328 0.499996 0.496287 0.000223
C8    C     C_R   0.127672 0.500002 0.503717 0.000222
C9    C     C_R   0.554376 0.071532 0.573708 -0.023207
C10   C     C_R   0.445616 0.928468 0.426295 -0.023204
C11   C     C_R   0.445623 0.071532 0.426293 -0.023216
C12   C     C_R   0.739621 0.499998 0.498222 0.855883
C13   C     C_R   0.554387 0.928468 0.573703 -0.023212
C14   C     C_R   0.618060 0.141261 0.653835 0.193746
C15   C     C_R   0.557753 0.158089 0.739947 -0.136180
C16   C     C_R   0.623732 0.206324 0.819930 -0.135327
C17   C     C_R   0.749521 0.239813 0.814147 -0.115081
C18   C     C_R   0.810493 0.220984 0.729156 -0.153985
C19   C     C_R   0.745479 0.169172 0.649946 -0.118019
C20   C     C_R   0.381894 0.858738 0.346184 0.193757
C21   C     C_R   0.442175 0.841869 0.260064 -0.136128
C22   C     C_R   0.376160 0.793634 0.180096 -0.135342
C23   C     C_R   0.500456 0.499998 0.329580 0.901257
C24   C     C_R   0.250363 0.760189 0.185904 -0.115092
C25   C     C_R   0.189417 0.779063 0.270902 -0.153971
C26   C     C_R   0.254467 0.830875 0.350095 -0.118086
C27   C     C_R   0.381945 0.141268 0.346165 0.193714
C28   C     C_R   0.254537 0.169250 0.350067 -0.117936
C29   C     C_R   0.189531 0.221087 0.270862 -0.154017
C30   C     C_R   0.250499 0.239872 0.185865 -0.115095
C31   C     C_R   0.376275 0.206319 0.180070 -0.135306
C32   C     C_R   0.442248 0.158060 0.260049 -0.136181
C33   C     C_R   0.618123 0.858734 0.653805 0.193724
C34   C     C_R   0.499544 0.500002 0.670420 0.901256
C35   C     C_R   0.557872 0.841891 0.739937 -0.136122
C36   C     C_R   0.623902 0.793634 0.819890 -0.135324
C37   C     C_R   0.749686 0.760143 0.814055 -0.115118
C38   C     C_R   0.810603 0.778990 0.729043 -0.153986
C39   C     C_R   0.745538 0.830819 0.649864 -0.118004
C40   C     C_1   0.502238 0.499995 0.228095 -0.178806
C41   C     C_1   0.497763 0.500007 0.771905 -0.178816
C42   C     C_1   0.502544 0.499996 0.142700 -0.034607
C43   C     C_1   0.497458 0.500009 0.857300 -0.034611
C44   C     C_1   0.500947 0.500000 0.042704 -0.035534
H1    H     H_    0.111403 0.284045 0.507849 0.146465
H2    H     H_    0.539426 0.868258 0.254643 0.108531
H3    H     H_    0.422617 0.782017 0.113662 0.132510
H4    H     H_    0.199686 0.721804 0.124147 0.124875
H5    H     H_    0.091140 0.756816 0.274753 0.131893
H6    H     H_    0.205097 0.854925 0.413259 0.099936
H7    H     H_    0.205146 0.145287 0.413235 0.099991
H8    H     H_    0.091270 0.243426 0.274705 0.131914
H9    H     H_    0.199856 0.278278 0.124100 0.124887
H10   H     H_    0.422750 0.217877 0.113639 0.132488
H11   H     H_    0.539484 0.131593 0.254639 0.108519
H12   H     H_    0.888598 0.715951 0.492156 0.146476
H13   H     H_    0.460631 0.868316 0.745379 0.108528
H14   H     H_    0.577465 0.782033 0.886333 0.132505
H15   H     H_    0.800375 0.721741 0.875799 0.124881
H16   H     H_    0.908870 0.756700 0.725170 0.131914
H17   H     H_    0.794889 0.854836 0.586686 0.099963
H18   H     H_    0.888620 0.284035 0.492308 0.146480
H19   H     H_    0.111381 0.715962 0.507699 0.146488
H20   H     H_    0.460508 0.131663 0.745350 0.108525
H21   H     H_    0.577253 0.217910 0.886358 0.132494
H22   H     H_    0.800170 0.278199 0.875915 0.124880
H23   H     H_    0.908764 0.243268 0.725322 0.131895
H24   H     H_    0.794871 0.145158 0.586786 0.099948
N1    N     N_R   0.500000 0.857200 0.500000 -0.116272
N2    N     N_R   0.500000 0.142800 0.500000 -0.116272
O1    O     O_R   0.316770 0.614620 0.499990 -0.620725
O2    O     O_R   0.683230 0.385380 0.500010 -0.620741
O3    O     O_R   0.683230 0.614620 0.500010 -0.620736
O4    O     O_R   0.316770 0.385380 0.499990 -0.620755
O5    O     O_R   0.500000 0.614690 0.373720 -0.593945
O6    O     O_R   0.500000 0.385310 0.626280 -0.593927
O7    O     O_R   0.500000 0.614690 0.626280 -0.593937
O8    O     O_R   0.500000 0.385310 0.373720 -0.593917
Zn1   Zn    Zn3+2 0.500000 0.653120 0.500000 0.942247
Zn2   Zn    Zn3+2 0.500000 0.346880 0.500000 0.942245

loop_
_geom_bond_atom_site_label_1
_geom_bond_atom_site_label_2
_ccdc_geom_bond_type
C1    C8    S    
C35   C36   A    
O1    Zn1   S    
C11   N2    A    
C17   H22   S    
C33   C39   A    
C20   C26   A    
C1    O4    A    
C36   C37   A    
C36   H14   S    
C26   H6    S    
C34   O7    A    
C30   C31   A    
C28   H7    S    
O8    Zn2   S    
C23   C40   S    
C18   C19   A    
C9    C13   A    
C10   C20   S    
C16   C17   A    
C15   H20   S    
C29   C30   A    
C32   H11   S    
C40   C42   T    
C22   H3    S    
C12   O2    A    
C31   H10   S    
O4    Zn2   S    
C21   C22   A    
C4    H12   S    
C41   C43   T    
C34   C41   S    
C42   C44   S    
C4    C7    A    
O7    Zn1   S    
C7    C12   S    
C39   H17   S    
C30   H9    S    
N2    Zn2   S    
C24   H4    S    
C24   C25   A    
C4    C6    A    
C3    C8    A    
C2    C44   T    
C5    C7    A    
C6    C8    A    
C25   C26   A    
C3    H1    S    
C6    H19   S    
C9    C14   S    
C13   C33   S    
C37   C38   A    
C31   C32   A    
C11   C27   S    
C2    C43   S    
C17   C18   A    
O3    Zn1   S    
C19   H24   S    
C1    O1    A    
C9    N2    A    
C37   H15   S    
C38   H16   S    
C22   C24   A    
N1    Zn1   S    
C21   H2    S    
C28   C29   A    
C27   C32   A    
C14   C19   A    
O6    Zn2   S    
C23   O5    A    
C3    C5    A    
C35   H13   S    
C18   H23   S    
O2    Zn2   S    
C38   C39   A    
C13   N1    A    
C33   C35   A    
C5    H18   S    
C23   O8    A    
C25   H5    S    
C10   C11   A    
C10   N1    A    
C20   C21   A    
C27   C28   A    
C14   C15   A    
C16   H21   S    
C12   O3    A    
O5    Zn1   S    
C15   C16   A    
C34   O6    A    
C29   H8    S    
