data_mof_unit_37307.cif
_audit_creation_date              2012-10-26T17:10:22-0400
_audit_creation_method            fapswitch 2.2
_symmetry_space_group_name_H-M    P1
_symmetry_Int_Tables_number       1
_space_group_crystal_system       triclinic
_cell_length_a                    16.855902
_cell_length_b                    16.830883
_cell_length_c                    16.820632
_cell_angle_alpha                 68.049822
_cell_angle_beta                  67.64429
_cell_angle_gamma                 67.465747
_cell_volume                      3928.46173383

loop_
_atom_site_label
_atom_site_type_symbol
_atom_type_description
_atom_site_fract_x
_atom_site_fract_y
_atom_site_fract_z
_atom_type_partial_charge
C1    C     C_R   0.594800 0.022548 0.599380 0.177844
C2    C     C_R   0.170433 0.432359 0.978103 0.567079
C3    C     C_R   0.563728 0.030699 0.828762 0.541338
C4    C     C_R   0.434896 0.973271 0.171279 0.574699
C5    C     C_R   0.436196 0.171278 0.969417 0.549219
C6    C     C_R   0.566923 0.829140 0.023471 0.544370
C7    C     C_R   0.971710 0.435570 0.171382 0.541957
C8    C     C_R   0.017327 0.568243 0.830817 0.576261
C9    C     C_R   0.170822 0.976705 0.433214 0.574310
C10   C     C_R   0.829570 0.022143 0.567586 0.550609
C11   C     C_R   0.545010 0.015385 0.547843 0.144539
C12   C     C_R   0.399650 0.995236 0.399018 0.094201
C13   C     C_R   0.448493 0.002774 0.451581 0.014862
C14   C     C_R   0.037587 0.540113 0.537625 0.136135
C15   C     C_R   0.015722 0.446935 0.442653 0.142955
C16   C     C_R   0.548961 0.544548 0.010241 0.139372
C17   C     C_R   0.455004 0.448756 0.991966 0.139790
C18   C     C_R   0.538693 0.931461 0.556827 0.230650
C19   C     C_R   0.454579 0.086791 0.442806 0.156602
C20   C     C_R   0.951456 0.538565 0.547279 0.201461
C21   C     C_R   0.102013 0.448695 0.432258 0.223746
C22   C     C_R   0.551851 0.547450 0.924589 0.226909
C23   C     C_R   0.046152 0.589428 0.589656 0.175148
C24   C     C_R   0.452524 0.445395 0.077646 0.226600
C25   C     C_R   0.491855 0.924820 0.506244 0.205938
C26   C     C_R   0.501367 0.093415 0.493430 0.219795
C27   C     C_R   0.502344 0.501085 0.915436 0.215737
C28   C     C_R   0.501829 0.491994 0.086801 0.213607
C29   C     C_R   0.940780 0.489427 0.501473 0.216622
C30   C     C_R   0.112838 0.497738 0.478703 0.229903
C31   C     C_R   0.549367 0.043972 0.680661 0.219493
C32   C     C_R   0.444152 0.982624 0.312887 0.248461
C33   C     C_R   0.053038 0.676708 0.550416 0.208463
C34   C     C_R   0.002197 0.398431 0.393259 0.179871
C35   C     C_R   0.012138 0.306605 0.426355 0.208058
C36   C     C_R   0.681349 0.549115 0.039841 0.219988
C37   C     C_R   0.311970 0.431530 0.997102 0.210719
C38   C     C_R   0.308816 0.997438 0.436643 0.238517
C39   C     C_R   0.687592 0.005578 0.567696 0.204598
C40   C     C_R   0.450420 0.318509 0.958810 0.224377
C41   C     C_R   0.566414 0.686716 0.006643 0.207399
C42   C     C_R   0.975645 0.445749 0.315245 0.216114
C43   C     C_R   0.034108 0.552848 0.681386 0.210038
C44   C     C_R   0.598497 0.047756 0.730634 -0.040972
C45   C     C_R   0.599300 0.594156 0.020216 0.174053
C46   C     C_R   0.399474 0.963194 0.268959 0.012307
C47   C     C_R   0.028117 0.734026 0.605709 -0.025426
C48   C     C_R   0.979035 0.264858 0.390754 -0.024553
C49   C     C_R   0.729591 0.597964 0.047191 -0.027277
C50   C     C_R   0.266702 0.392274 0.972147 -0.025009
C51   C     C_R   0.267518 0.970248 0.395613 0.025865
C52   C     C_R   0.733367 0.028678 0.607765 -0.029477
C53   C     C_R   0.401596 0.269446 0.952970 -0.039505
C54   C     C_R   0.605282 0.731814 0.032224 -0.028990
C55   C     C_R   0.961112 0.399759 0.268743 -0.041253
C56   C     C_R   0.404838 0.399192 0.981690 0.178656
C57   C     C_R   0.018828 0.607201 0.735996 -0.019831
C58   C     C_R   0.685796 0.056646 0.687306 -0.073785
C59   C     C_R   0.318360 0.941025 0.317529 -0.091005
C60   C     C_R   0.000901 0.700337 0.699641 -0.067520
C61   C     C_R   0.948002 0.314374 0.313715 -0.071525
C62   C     C_R   0.682564 0.682669 0.063190 -0.070873
C63   C     C_R   0.314672 0.313400 0.943156 -0.074018
C64   C     C_3   0.718645 0.111690 0.716543 -0.212687
C65   C     C_3   0.779552 0.055932 0.778660 -0.343036
C66   C     C_3   0.293360 0.877129 0.292397 -0.254859
C67   C     C_R   0.022100 0.829774 0.566897 0.542620
C68   C     C_3   0.286685 0.791874 0.368060 -0.416822
C69   C     C_3   0.933270 0.761873 0.758730 -0.218127
C70   C     C_3   0.975608 0.799394 0.798192 -0.343511
C71   C     C_3   0.886202 0.285793 0.289229 -0.218510
C72   C     C_3   0.934999 0.224631 0.226087 -0.339444
C73   C     C_3   0.708697 0.714171 0.121701 -0.240988
C74   C     C_3   0.723230 0.641928 0.207499 -0.426810
C75   C     C_3   0.283013 0.286088 0.885601 -0.216242
C76   C     C_3   0.222408 0.223722 0.938482 -0.336803
C77   C     C_R   0.979754 0.170057 0.432093 0.553311
C78   C     C_R   0.828416 0.564273 0.029752 0.540138
Cu1   Cu    Cu3+1 0.995180 0.995180 0.424630 0.956753
Cu2   Cu    Cu3+1 0.004820 0.004820 0.575370 0.969645
Cu3   Cu    Cu3+1 0.995180 0.424630 0.995180 0.938346
Cu4   Cu    Cu3+1 0.004820 0.575370 0.004820 0.968090
Cu5   Cu    Cu3+1 0.424630 0.995180 0.995180 0.965062
Cu6   Cu    Cu3+1 0.575370 0.004820 0.004820 0.983090
H1    H     H_    0.449709 0.220958 0.480215 0.344112
H2    H     H_    0.626282 0.566573 0.801967 0.343663
H3    H     H_    0.226950 0.381607 0.399505 0.345898
H4    H     H_    0.826686 0.607217 0.577433 0.349677
H5    H     H_    0.432598 0.106247 0.742090 0.333778
H6    H     H_    0.551664 0.010541 0.302920 0.342036
H7    H     H_    0.118843 0.741655 0.440809 0.333798
H8    H     H_    0.095353 0.205082 0.480519 0.359580
H9    H     H_    0.742309 0.431580 0.099036 0.336097
H10   H     H_    0.216266 0.487848 0.083234 0.359798
H11   H     H_    0.289199 0.056911 0.526052 0.346791
H12   H     H_    0.543557 0.797239 0.519599 0.342042
H13   H     H_    0.782261 0.918794 0.511329 0.351949
H14   H     H_    0.567443 0.257874 0.896309 0.332987
H15   H     H_    0.511845 0.780136 0.919414 0.358515
H16   H     H_    0.912388 0.564964 0.261986 0.335709
H17   H     H_    0.973506 0.464655 0.758242 0.356927
H18   H     H_    0.748621 0.071946 0.844093 0.149118
H19   H     H_    0.792663 0.983149 0.790068 0.163339
H20   H     H_    0.844364 0.072361 0.749828 0.148827
H21   H     H_    0.753512 0.155836 0.656718 0.158073
H22   H     H_    0.660303 0.158986 0.750403 0.134032
H23   H     H_    0.232922 0.503033 0.406416 0.341160
H24   H     H_    0.231461 0.805990 0.427705 0.151850
H25   H     H_    0.274127 0.744811 0.345396 0.162929
H26   H     H_    0.350404 0.759046 0.387022 0.175408
H27   H     H_    0.230820 0.909926 0.271663 0.187253
H28   H     H_    0.345601 0.853613 0.235333 0.173058
H29   H     H_    0.049805 0.776410 0.776209 0.187839
H30   H     H_    0.953843 0.873501 0.777861 0.136677
H31   H     H_    0.953030 0.778570 0.872218 0.145277
H32   H     H_    0.888552 0.817862 0.720717 0.146102
H33   H     H_    0.886648 0.725894 0.814069 0.146368
H34   H     H_    0.821083 0.483358 0.575044 0.343671
H35   H     H_    0.008802 0.207742 0.210962 0.173335
H36   H     H_    0.914882 0.161799 0.256276 0.154876
H37   H     H_    0.916153 0.257247 0.162458 0.147544
H38   H     H_    0.842368 0.252672 0.351061 0.156928
H39   H     H_    0.838845 0.345973 0.258160 0.132827
H40   H     H_    0.782846 0.585286 0.193493 0.148882
H41   H     H_    0.733761 0.670720 0.251065 0.157788
H42   H     H_    0.663559 0.616584 0.244241 0.166528
H43   H     H_    0.768916 0.738209 0.083740 0.180303
H44   H     H_    0.654443 0.769992 0.145650 0.179656
H45   H     H_    0.500286 0.427888 0.210100 0.341683
H46   H     H_    0.254477 0.158648 0.921654 0.149683
H47   H     H_    0.207564 0.211450 0.011652 0.173889
H48   H     H_    0.158398 0.253013 0.920167 0.154583
H49   H     H_    0.248242 0.346863 0.841904 0.166905
H50   H     H_    0.341944 0.253136 0.838090 0.133326
H51   H     H_    0.504015 0.565577 0.792156 0.343478
H52   H     H_    0.449415 0.204812 0.360336 0.350319
H53   H     H_    0.543358 0.813637 0.639583 0.347143
H54   H     H_    0.378929 0.424602 0.200517 0.347370
O1    O     O_R   0.124540 0.978640 0.385460 -0.535646
O2    O     O_R   0.124540 0.385460 0.978640 -0.519196
O3    O     O_R   0.021360 0.875460 0.614540 -0.519648
O4    O     O_R   0.978640 0.124540 0.385460 -0.521248
O5    O     O_R   0.013780 0.867370 0.487190 -0.489916
O6    O     O_R   0.986220 0.132630 0.512810 -0.479803
O7    O     O_R   0.867370 0.487190 0.013780 -0.489920
O8    O     O_R   0.132630 0.512810 0.986220 -0.467824
O9    O     O_R   0.487190 0.013780 0.867370 -0.488630
O10   O     O_R   0.512810 0.986220 0.132630 -0.424965
O11   O     O_R   0.512810 0.132630 0.986220 -0.480022
O12   O     O_R   0.875460 0.021360 0.614540 -0.531630
O13   O     O_R   0.487190 0.867370 0.013780 -0.475234
O14   O     O_R   0.986220 0.512810 0.132630 -0.487824
O15   O     O_R   0.013780 0.487190 0.867370 -0.480204
O16   O     O_R   0.132630 0.986220 0.512810 -0.432527
O17   O     O_R   0.867370 0.013780 0.487190 -0.477578
O18   O     O_3   0.504460 0.174497 0.492850 -0.692189
O19   O     O_3   0.488964 0.843732 0.506614 -0.685618
O20   O     O_3   0.194790 0.506922 0.467169 -0.676321
O21   O     O_3   0.858683 0.479751 0.514053 -0.696575
O22   O     O_3   0.506859 0.486496 0.168877 -0.694371
O23   O     O_R   0.978640 0.385460 0.124540 -0.522488
O24   O     O_3   0.496670 0.507213 0.833419 -0.690080
O25   O     O_3   0.416091 0.159897 0.382867 -0.683237
O26   O     O_3   0.576892 0.858384 0.616993 -0.678032
O27   O     O_3   0.400307 0.397469 0.150382 -0.665760
O28   O     O_3   0.605529 0.593845 0.851898 -0.677390
O29   O     O_3   0.173610 0.400544 0.378133 -0.669073
O30   O     O_3   0.879250 0.587663 0.600197 -0.700853
O31   O     O_3   0.457720 0.059545 0.709728 -0.664609
O32   O     O_3   0.531578 0.986548 0.270853 -0.653226
O33   O     O_3   0.077486 0.705449 0.458601 -0.656905
O34   O     O_R   0.021360 0.614540 0.875460 -0.514292
O35   O     O_3   0.051490 0.260519 0.495177 -0.653821
O36   O     O_3   0.712721 0.458140 0.050431 -0.661065
O37   O     O_3   0.268137 0.503059 0.033645 -0.648682
O38   O     O_3   0.259898 0.022751 0.514960 -0.656952
O39   O     O_3   0.730841 0.969356 0.495949 -0.660166
O40   O     O_3   0.542003 0.288828 0.944168 -0.655863
O41   O     O_3   0.494878 0.730513 0.970894 -0.648174
O42   O     O_3   0.964992 0.536527 0.286084 -0.658929
O43   O     O_3   0.033669 0.464804 0.716186 -0.665943
O44   O     O_R   0.385460 0.124540 0.978640 -0.521319
O45   O     O_R   0.614540 0.875460 0.021360 -0.529648
O46   O     O_R   0.614540 0.021360 0.875460 -0.524843
O47   O     O_R   0.385460 0.978640 0.124540 -0.530649
O48   O     O_R   0.875460 0.614540 0.021360 -0.529931

loop_
_geom_bond_atom_site_label_1
_geom_bond_atom_site_label_2
_ccdc_geom_bond_type
C16   C28   A    
Cu3   O2    S    
C74   H40   S    
C69   H32   S    
C36   O36   S    
C46   C59   A    
C76   H48   S    
C73   C74   S    
C71   H38   S    
Cu1   O1    S    
C34   C42   A    
C7    C55   S    
C75   C76   S    
C10   C52   S    
Cu3   Cu4   S    
C75   H50   S    
Cu3   O15   S    
C64   H21   S    
C11   C18   A    
C4    C46   S    
C70   H30   S    
C3    O9    A    
C7    O23   A    
C26   O18   S    
Cu4   O48   S    
H54   O27   S    
C71   H39   S    
C14   C30   A    
C59   C66   S    
C72   H37   S    
C76   H47   S    
C74   H41   S    
C66   C68   S    
C4    O10   A    
H9    O36   S    
C1    C31   A    
C5    O11   A    
C49   C78   S    
C23   C33   A    
C34   C35   A    
C19   C26   A    
C77   O4    A    
C53   C63   A    
C2    C50   S    
C78   O7    A    
Cu4   O8    S    
C47   C60   A    
C37   C56   A    
C76   H46   S    
Cu1   O5    S    
C42   O42   S    
C40   C56   A    
H2    O28   S    
C62   C73   S    
C78   O48   A    
Cu2   O6    S    
C66   H27   S    
H14   O40   S    
C3    O46   A    
C15   C34   S    
H10   O37   S    
Cu6   O11   S    
C61   C71   S    
C39   C52   A    
C67   O5    A    
H13   O39   S    
C12   C32   A    
C50   C63   A    
C13   C25   A    
H34   O21   S    
C18   C25   A    
C18   O26   S    
C65   H18   S    
C6    C54   S    
C35   C48   A    
C47   C67   S    
C39   O39   S    
C15   C29   A    
Cu5   O13   S    
C20   C29   A    
Cu6   O10   S    
C70   H29   S    
C58   C64   S    
C20   O30   S    
H3    O29   S    
C3    C44   S    
C17   C24   A    
C31   C44   A    
C13   C19   A    
C17   C27   A    
C14   C20   A    
Cu6   O46   S    
C29   O21   S    
C44   C58   A    
C1    C39   A    
Cu1   O4    S    
C57   C60   A    
C19   O25   S    
C38   C51   A    
C31   O31   S    
C11   C26   A    
H4    O30   S    
C73   H43   S    
C43   O43   S    
Cu1   Cu2   S    
Cu5   O44   S    
H1    O18   S    
C35   O35   S    
C14   C23   S    
C16   C45   S    
Cu2   O12   S    
H11   O38   S    
H15   O41   S    
C42   C55   A    
C37   O37   S    
C38   O38   S    
Cu5   Cu6   S    
H6    O32   S    
C48   C77   S    
C36   C45   A    
C68   H26   S    
C64   H22   S    
C8    O15   A    
C17   C56   S    
C52   C58   A    
Cu4   O34   S    
C40   O40   S    
C6    O13   A    
C9    O16   A    
Cu2   O3    S    
Cu3   O7    S    
C72   H36   S    
C28   O22   S    
C25   O19   S    
C70   H31   S    
H51   O24   S    
Cu5   O9    S    
C51   C59   A    
C65   H19   S    
H16   O42   S    
C5    O44   A    
H23   O20   S    
H17   O43   S    
C5    C53   S    
C30   O20   S    
C33   O33   S    
C32   O32   S    
C16   C22   A    
C49   C62   A    
C4    O47   A    
C23   C43   A    
C32   C46   A    
C41   O41   S    
Cu6   O45   S    
C24   C28   A    
C10   O17   A    
H53   O26   S    
C75   H49   S    
Cu2   O16   S    
H8    O35   S    
C2    O8    A    
C73   H44   S    
C54   C62   A    
C21   C30   A    
C21   O29   S    
H7    O33   S    
C6    O45   A    
C22   C27   A    
C2    O2    A    
C9    C51   S    
C24   O27   S    
C77   O6    A    
H5    O31   S    
C71   C72   S    
C27   O24   S    
C64   C65   S    
C37   C50   A    
C9    O1    A    
C48   C61   A    
C74   H42   S    
C63   C75   S    
C60   C69   S    
C33   C47   A    
C55   C61   A    
C72   H35   S    
C69   H33   S    
H12   O19   S    
C68   H25   S    
H45   O22   S    
C12   C38   A    
C69   C70   S    
Cu4   O14   S    
C41   C54   A    
C43   C57   A    
Cu1   O17   S    
C7    O14   A    
C22   O28   S    
C15   C21   A    
C12   C13   S    
C40   C53   A    
C41   C45   A    
Cu5   O47   S    
Cu3   O23   S    
C1    C11   S    
C68   H24   S    
C65   H20   S    
C66   H28   S    
C8    C57   S    
C10   O12   A    
C36   C49   A    
C8    O34   A    
H52   O25   S    
C67   O3    A    
