data_mof_unit_22502.cif
_audit_creation_date              2012-12-11T17:25:10-0500
_audit_creation_method            fapswitch 2.2
_symmetry_space_group_name_H-M    P1
_symmetry_Int_Tables_number       1
_space_group_crystal_system       triclinic
_cell_length_a                    6.955208
_cell_length_b                    20.54171
_cell_length_c                    24.493205
_cell_angle_alpha                 90.07246
_cell_angle_beta                  90.50078
_cell_angle_gamma                 89.524298
_cell_volume                      3499.13314145

loop_
_atom_site_label
_atom_site_type_symbol
_atom_type_description
_atom_site_fract_x
_atom_site_fract_y
_atom_site_fract_z
_atom_type_partial_charge
O1    O     O_R   0.507280 0.423750 0.460310 -0.536086
O2    O     O_R   0.171030 0.555650 0.437630 -0.536568
O3    O     O_R   0.004080 0.576250 0.539690 -0.536300
C1    C     C_R   0.339062 0.575658 0.421771 0.724517
O4    O     O_R   0.177330 0.422980 0.453960 -0.537846
O5    O     O_R   0.010420 0.442640 0.556140 -0.535102
C2    C     C_R   0.346097 0.399104 0.443273 0.694958
O6    O     O_R   0.500930 0.557360 0.443860 -0.534966
O7    O     O_3   0.340310 0.506600 0.533500 -0.366748
V1    V     V_3+5 0.064140 0.498780 0.493780 1.426520
O8    O     O_R   0.680890 0.444350 0.562370 -0.537537
C3    C     C_R   0.850586 0.424401 0.578142 0.725264
O9    O     O_R   0.674590 0.577020 0.546040 -0.537653
C4    C     C_R   0.842875 0.600824 0.556824 0.694128
V2    V     V_3+5 0.564550 0.501220 0.506220 1.426302
O10   O     O_3   0.838250 0.493400 0.466500 -0.366519
C5    C     C_R   0.975375 0.837759 0.911668 -0.128521
C6    C     C_R   0.848431 0.661314 0.589250 -0.042304
C7    C     C_R   0.029522 0.721411 0.906429 -0.185699
C8    C     C_R   0.023494 0.778609 0.937021 0.380439
C9    C     C_R   0.933741 0.838878 0.855335 -0.284669
C10   C     C_R   0.941649 0.781082 0.823106 0.098365
C11   C     C_R   0.990579 0.722121 0.850120 0.069613
C12   C     C_R   0.905005 0.779657 0.765220 0.075418
C13   C     C_R   0.918695 0.719276 0.735674 0.053711
C14   C     C_R   0.967684 0.662377 0.765036 -0.182451
C15   C     C_R   0.002274 0.663958 0.820906 -0.170331
C16   C     C_R   0.855357 0.836525 0.735880 -0.186927
C17   C     C_R   0.820002 0.834912 0.680041 -0.203725
C18   C     C_R   0.831958 0.776772 0.650822 0.139576
C19   C     C_R   0.882097 0.717835 0.677797 0.085291
C20   C     C_R   0.791843 0.777364 0.594554 -0.160499
C21   C     C_R   0.798495 0.720095 0.564214 -0.168093
C22   C     C_R   0.891039 0.660048 0.645505 -0.213079
H1    H     H_    0.039729 0.618860 0.841522 0.127613
H2    H     H_    0.926538 0.613182 0.662675 0.094124
H3    H     H_    0.763600 0.721553 0.521027 0.106839
H4    H     H_    0.781686 0.879951 0.659457 0.123903
H5    H     H_    0.067006 0.676138 0.926758 0.155364
H6    H     H_    0.899842 0.885786 0.837996 0.110098
H7    H     H_    0.980868 0.615308 0.746034 0.122027
H8    H     H_    0.841629 0.883567 0.754896 0.124138
H9    H     H_    0.752805 0.822330 0.574001 0.113273
H10   H     H_    0.618995 0.205946 0.793125 0.111534
C23   C     C_R   0.729922 0.269550 0.731268 -0.154617
H11   H     H_    0.587960 0.284220 0.717229 0.111104
C24   C     C_R   0.894282 0.294953 0.706416 0.136533
C25   C     C_R   0.076565 0.275011 0.725428 -0.155113
H12   H     H_    0.205199 0.293965 0.706808 0.111746
C26   C     C_R   0.094272 0.230361 0.768665 -0.154630
H13   H     H_    0.236234 0.215691 0.782704 0.110961
C27   C     C_R   0.929912 0.204958 0.793516 0.136437
C28   C     C_R   0.747629 0.224900 0.774504 -0.155086
C29   C     C_1   0.876353 0.341014 0.661421 -0.059958
C30   C     C_1   0.947844 0.158897 0.838511 -0.061095
C31   C     C_1   0.961050 0.120682 0.876283 -0.187559
C32   C     C_1   0.863159 0.379229 0.623649 -0.191651
H14   H     H_    0.698822 0.703950 0.297497 0.113067
C33   C     C_R   0.596611 0.768140 0.233853 -0.146969
H15   H     H_    0.740440 0.781762 0.221986 0.116668
C34   C     C_R   0.436036 0.794689 0.206410 0.131491
C35   C     C_R   0.251312 0.775942 0.222779 -0.133421
H16   H     H_    0.125298 0.795698 0.202210 0.125757
C36   C     C_R   0.227501 0.731506 0.265860 -0.154701
H17   H     H_    0.083671 0.717896 0.277735 0.112366
C37   C     C_R   0.388078 0.704982 0.293325 0.134521
C38   C     C_R   0.572801 0.723700 0.276929 -0.152585
C39   C     C_1   0.459816 0.840750 0.161547 -0.024139
C40   C     C_1   0.364326 0.659045 0.338286 -0.055494
C41   C     C_1   0.348975 0.620894 0.376078 -0.191393
C42   C     C_1   0.475236 0.879025 0.123852 -0.140961
C43   C     C_R   0.473198 0.161558 0.089103 -0.039265
C44   C     C_R   0.351786 0.338516 0.410980 -0.043285
C45   C     C_R   0.538053 0.276753 0.095079 -0.158182
C46   C     C_R   0.528233 0.219684 0.064582 -0.166000
C47   C     C_R   0.428550 0.160752 0.145008 -0.215813
C48   C     C_R   0.441033 0.218280 0.177502 0.086852
C49   C     C_R   0.496514 0.276546 0.151052 0.135950
C50   C     C_R   0.403346 0.220035 0.235127 0.058632
C51   C     C_R   0.421832 0.280026 0.264966 0.056516
C52   C     C_R   0.476791 0.336229 0.236156 -0.184875
C53   C     C_R   0.512776 0.334343 0.180536 -0.195541
C54   C     C_R   0.348482 0.163826 0.263943 -0.187245
C55   C     C_R   0.312557 0.165707 0.319566 -0.201568
C56   C     C_R   0.328742 0.223510 0.349046 0.139722
C57   C     C_R   0.384105 0.281784 0.322589 0.086800
C58   C     C_R   0.287242 0.223299 0.405021 -0.161649
C59   C     C_R   0.296938 0.280375 0.435511 -0.167328
C60   C     C_R   0.396415 0.339325 0.355073 -0.213985
H18   H     H_    0.555226 0.378859 0.160354 0.130032
H19   H     H_    0.435057 0.385771 0.338230 0.095660
H20   H     H_    0.260091 0.279320 0.478394 0.107604
H21   H     H_    0.270204 0.121184 0.339754 0.122776
H22   H     H_    0.581205 0.321185 0.074931 0.119043
H23   H     H_    0.565092 0.220737 0.021700 0.108844
H24   H     H_    0.389707 0.114320 0.161839 0.092188
H25   H     H_    0.494162 0.382937 0.255437 0.126315
H26   H     H_    0.331204 0.117110 0.244667 0.122494
H27   H     H_    0.244199 0.178858 0.425175 0.113559
O11   O     O_R   0.323320 0.942780 0.056240 -0.522645
O12   O     O_R   0.647300 0.077050 0.046060 -0.541734
O13   O     O_R   0.813840 0.057330 0.943840 -0.539350
C61   C     C_R   0.478631 0.100979 0.056793 0.679278
O14   O     O_R   0.653250 0.944380 0.062400 -0.534032
O15   O     O_R   0.819830 0.923720 0.960300 -0.532265
C62   C     C_R   0.485197 0.924380 0.078253 0.751682
O16   O     O_R   0.317330 0.076390 0.039790 -0.540299
O17   O     O_3   0.483830 0.993470 0.966560 -0.371323
V3    V     V_3+5 0.760140 0.001210 0.006210 1.460855
O18   O     O_R   0.149290 0.922840 0.953850 -0.528663
C63   C     C_R   0.980943 0.898988 0.943257 0.781481
O19   O     O_R   0.143340 0.055500 0.937510 -0.542342
C64   C     C_R   0.973650 0.075511 0.921790 0.707984
V4    V     V_3+5 0.259690 0.998600 0.993650 1.469660
O20   O     O_3   0.986130 0.006520 0.033440 -0.368029
Cl1   Cl    Cl    0.078011 0.774630 0.007348 -0.651180

loop_
_geom_bond_atom_site_label_1
_geom_bond_atom_site_label_2
_ccdc_geom_bond_type
C13   C19   A    
C50   C54   A    
C58   C59   A    
C1    C41   S    
C4    C6    S    
O2    C1    A    
C7    C8    A    
C1    O6    A    
O14   C62   A    
V4    O20   S    
C46   H23   S    
C2    C44   S    
C48   C49   A    
C14   C15   A    
C17   C18   A    
C16   C17   A    
O5    C3    A    
O14   V3    S    
C37   C40   S    
O12   V3    S    
V2    O10   S    
C5    C8    A    
O17   V3    S    
C23   C24   A    
O17   V4    S    
C45   H22   S    
O18   C63   A    
C35   C36   A    
C33   C38   A    
O8    V2    S    
H10   C28   S    
C24   C25   A    
C54   H26   S    
C17   H4    S    
C26   C27   A    
C31   C64   S    
O1    V2    S    
C11   C15   A    
C60   H19   S    
O7    V1    S    
O18   V4    S    
C27   C30   S    
C43   C47   A    
C25   C26   A    
C37   C38   A    
O15   C63   A    
C23   C28   A    
C33   H15   S    
O12   C61   A    
O9    C4    A    
C34   C35   A    
C43   C46   A    
C5    C63   S    
O19   V4    S    
O19   C64   A    
C52   C53   A    
C58   H27   S    
C48   C50   A    
C33   C34   A    
C45   C46   A    
C56   C58   A    
C59   H20   S    
C55   C56   A    
O11   V4    S    
C12   C13   A    
C8    Cl1   S    
C15   H1    S    
C13   C14   A    
C56   C57   A    
C21   H3    S    
C36   C37   A    
C7    C11   A    
C44   C59   A    
C35   H16   S    
C49   C53   A    
C54   C55   A    
C30   C31   T    
C26   H13   S    
C19   C22   A    
C47   C48   A    
C6    C22   A    
O3    C4    A    
C7    H5    S    
C24   C29   S    
C3    C32   S    
C25   H12   S    
O6    V2    S    
O9    V2    S    
C10   C12   A    
O2    V1    S    
C27   C28   A    
O4    C2    A    
O16   V4    S    
O15   V3    S    
O1    C2    A    
O11   C62   A    
C12   C16   A    
C51   C52   A    
C57   C60   A    
O5    V1    S    
O8    C3    A    
C43   C61   S    
C51   C57   A    
C53   H18   S    
C20   C21   A    
O7    V2    S    
C44   C60   A    
O4    V1    S    
O3    V1    S    
V1    O10   S    
C47   H24   S    
C18   C20   A    
C34   C39   S    
C18   C19   A    
C9    H6    S    
C52   H25   S    
C39   C42   T    
C36   H17   S    
C16   H8    S    
C20   H9    S    
C22   H2    S    
C55   H21   S    
C40   C41   T    
C6    C21   A    
C5    C9    A    
V3    O20   S    
C50   C51   A    
C23   H11   S    
H14   C38   S    
C45   C49   A    
C42   C62   S    
O13   C64   A    
C10   C11   A    
O13   V3    S    
C61   O16   A    
C9    C10   A    
C14   H7    S    
C29   C32   T    
