data_mof_unit_40896.cif
_audit_creation_date              2012-12-10T19:00:00-0500
_audit_creation_method            fapswitch 2.2
_symmetry_space_group_name_H-M    P1
_symmetry_Int_Tables_number       1
_space_group_crystal_system       triclinic
_cell_length_a                    10.711971
_cell_length_b                    10.625561
_cell_length_c                    10.035633
_cell_angle_alpha                 92.284227
_cell_angle_beta                  91.687231
_cell_angle_gamma                 89.194617
_cell_volume                      1140.76540536

loop_
_atom_site_label
_atom_site_type_symbol
_atom_type_description
_atom_site_fract_x
_atom_site_fract_y
_atom_site_fract_z
_atom_type_partial_charge
C1    C     C_R   0.503724 0.260732 0.498066 0.911065
C2    C     C_R   0.601771 0.062789 0.561331 0.184392
C3    C     C_R   0.494096 0.872118 0.505105 -0.093967
C4    C     C_R   0.505880 0.127879 0.494882 -0.094002
C5    C     C_R   0.483675 0.608599 0.076882 -0.118737
C6    C     C_R   0.516311 0.391395 0.923118 -0.118867
C7    C     C_R   0.483774 0.609407 0.935143 0.027244
C8    C     C_R   0.516221 0.390589 0.064858 0.027050
C9    C     C_R   0.260154 0.504383 0.497210 0.924602
C10   C     C_R   0.739852 0.495644 0.502792 0.924600
C11   C     C_R   0.130144 0.607871 0.074481 0.049678
C12   C     C_R   0.496258 0.739267 0.501931 0.911043
C13   C     C_R   0.869421 0.392455 0.925519 0.049619
C14   C     C_R   0.086013 0.580878 0.198980 -0.160461
C15   C     C_R   0.913696 0.419338 0.801052 -0.160327
C16   C     C_R   0.096340 0.459216 0.247398 0.109516
C17   C     C_R   0.903622 0.541001 0.752610 0.109404
C18   C     C_R   0.144128 0.360938 0.164086 0.046094
C19   C     C_R   0.855958 0.639382 0.835879 0.045921
C20   C     C_R   0.186085 0.387952 0.037298 -0.200950
C21   C     C_R   0.813952 0.612488 0.962681 -0.201159
C22   C     C_R   0.180751 0.511177 0.993352 -0.160303
C23   C     C_R   0.873758 0.488212 0.509848 -0.157435
C24   C     C_R   0.819029 0.489269 0.006645 -0.160368
C25   C     C_R   0.934168 0.423774 0.406051 0.104722
C26   C     C_R   0.065855 0.576327 0.593947 0.104640
C27   C     C_1   0.466064 0.730561 0.878486 0.235775
C28   C     C_1   0.533980 0.269456 0.121522 0.235856
C29   C     C_1   0.125532 0.736399 0.034598 0.211947
C30   C     C_1   0.873482 0.263903 0.965296 0.211931
C31   C     C_1   0.144743 0.231990 0.202063 0.184075
C32   C     C_1   0.855459 0.768300 0.797817 0.184166
C33   C     C_R   0.126254 0.511868 0.490157 -0.157278
C34   C     C_R   0.940869 0.554721 0.612719 -0.065684
C35   C     C_R   0.059145 0.445387 0.387284 -0.065684
C36   C     C_R   0.404835 0.066117 0.434025 -0.216723
C37   C     C_R   0.595141 0.933882 0.565966 -0.216710
C38   C     C_R   0.398225 0.937205 0.438620 0.184428
H1    H     H_    0.215617 0.530229 0.896336 0.176281
H2    H     H_    0.530007 0.304032 0.865963 0.168727
H3    H     H_    0.784100 0.470301 0.103655 0.176279
H4    H     H_    0.045165 0.655822 0.260687 0.167127
H5    H     H_    0.954407 0.344303 0.739362 0.167168
H6    H     H_    0.223047 0.313549 0.972159 0.154044
H7    H     H_    0.777110 0.686971 0.027798 0.154087
H8    H     H_    0.330352 0.118944 0.386740 0.173272
H9    H     H_    0.669622 0.881058 0.613272 0.173215
H10   H     H_    0.469976 0.695960 0.134037 0.168745
I1    I     I_    0.844737 0.270077 0.302086 -0.333884
I2    I     I_    0.155373 0.730042 0.697825 -0.334022
I3    I     I_    0.240070 0.848446 0.350162 -0.340904
I4    I     I_    0.759991 0.151528 0.649620 -0.340905
N1    N     N_R   0.499970 0.499970 0.857200 -0.103963
N2    N     N_R   0.500030 0.500030 0.142800 -0.104007
N3    N     N_1   0.451649 0.830132 0.837239 -0.155930
N4    N     N_1   0.548449 0.169912 0.162777 -0.155878
N5    N     N_1   0.121382 0.840696 0.005380 -0.121192
N6    N     N_1   0.877136 0.159585 0.994415 -0.121190
N7    N     N_1   0.142797 0.127666 0.230262 -0.133964
N8    N     N_1   0.857492 0.872599 0.769541 -0.133779
O1    O     O_R   0.499990 0.316750 0.614620 -0.617680
O2    O     O_R   0.500010 0.683250 0.385380 -0.617690
O3    O     O_R   0.499990 0.316780 0.385290 -0.610643
O4    O     O_R   0.500010 0.683220 0.614710 -0.610646
O5    O     O_R   0.316760 0.500000 0.614660 -0.606985
O6    O     O_R   0.683240 0.500000 0.385340 -0.606988
O7    O     O_R   0.316760 0.500020 0.385330 -0.608817
O8    O     O_R   0.683240 0.499980 0.614670 -0.608798
Zn1   Zn    Zn3+2 0.500000 0.499980 0.653120 0.979909
Zn2   Zn    Zn3+2 0.500000 0.500020 0.346880 0.979899

loop_
_geom_bond_atom_site_label_1
_geom_bond_atom_site_label_2
_ccdc_geom_bond_type
C2    C4    A    
C4    C36   A    
C36   H8    S    
C18   C31   S    
C10   O8    A    
C10   C23   S    
C37   H9    S    
C12   O2    A    
C5    N2    A    
C11   C22   A    
C21   H7    S    
N2    Zn2   S    
O3    Zn2   S    
C14   H4    S    
O7    Zn2   S    
N1    Zn1   S    
C23   C34   A    
C26   I2    S    
C36   C38   A    
C28   N4    T    
C15   H5    S    
O1    Zn1   S    
O4    Zn1   S    
C9    C33   S    
C24   H3    S    
C2    C37   A    
C11   C29   S    
O6    Zn2   S    
C10   O6    A    
C2    I4    S    
C9    O7    A    
C25   C35   A    
O5    Zn1   S    
C22   H1    S    
C1    O3    A    
C33   C35   A    
C20   C22   A    
C9    O5    A    
C27   N3    T    
C13   C15   A    
C16   C35   S    
C8    C28   S    
C5    H10   S    
C14   C16   A    
C20   H6    S    
C1    C4    S    
C17   C34   S    
C7    N1    A    
C6    N1    A    
C31   N7    T    
C30   N6    T    
C13   C30   S    
C6    H2    S    
C7    C27   S    
C3    C37   A    
C18   C20   A    
C16   C18   A    
C23   C25   A    
C29   N5    T    
C21   C24   A    
C8    N2    A    
C11   C14   A    
C15   C17   A    
C12   O4    A    
C32   N8    T    
C5    C7    A    
O2    Zn2   S    
C6    C8    A    
C38   I3    S    
C26   C33   A    
C17   C19   A    
C3    C12   S    
C19   C32   S    
C26   C34   A    
C13   C24   A    
C3    C38   A    
O8    Zn1   S    
C19   C21   A    
C25   I1    S    
C1    O1    A    
