data_mof_unit_5852.cif
_audit_creation_date              2012-10-26T21:04:10-0400
_audit_creation_method            fapswitch 2.2
_symmetry_space_group_name_H-M    P1
_symmetry_Int_Tables_number       1
_space_group_crystal_system       triclinic
_cell_length_a                    15.110252
_cell_length_b                    13.862094
_cell_length_c                    10.859819
_cell_angle_alpha                 89.992979
_cell_angle_beta                  90.116736
_cell_angle_gamma                 89.998683
_cell_volume                      2274.6900556

loop_
_atom_site_label
_atom_site_type_symbol
_atom_type_description
_atom_site_fract_x
_atom_site_fract_y
_atom_site_fract_z
_atom_type_partial_charge
C1    C     C_R   0.329898 0.500051 0.499475 0.551686
C2    C     C_R   0.479804 0.107168 0.392177 0.235446
C3    C     C_R   0.523051 0.209075 0.603801 0.025588
C4    C     C_R   0.477089 0.209089 0.396148 0.025354
C5    C     C_R   0.500250 0.054477 0.499914 0.083822
C6    C     C_R   0.424167 0.892751 0.464513 0.232736
C7    C     C_R   0.576133 0.892579 0.535408 0.234542
C8    C     C_R   0.427154 0.790825 0.460952 0.022395
C9    C     C_R   0.572926 0.790674 0.539061 0.022059
C10   C     C_R   0.500205 0.945329 0.499918 0.082996
C11   C     C_R   0.499979 0.499903 0.262579 0.553422
C12   C     C_R   0.670118 0.500077 0.500449 0.553314
C13   C     C_R   0.500012 0.499895 0.737421 0.555704
C14   C     C_R   0.500007 0.583342 0.061955 0.015333
C15   C     C_R   0.500044 0.583336 0.938009 0.016253
C16   C     C_R   0.499966 0.498712 0.130032 0.010009
C17   C     C_R   0.499990 0.498701 0.869968 0.011188
C18   C     C_R   0.499930 0.410696 0.064575 -0.158775
C19   C     C_R   0.499901 0.410690 0.935460 -0.158257
C20   C     C_3   0.500153 0.690582 0.929022 -0.262504
C21   C     C_3   0.500105 0.690589 0.070890 -0.262970
C22   C     C_R   0.095945 0.579391 0.441169 0.319970
C23   C     C_R   0.186063 0.423187 0.547550 -0.148511
C24   C     C_R   0.904963 0.583224 0.549820 0.322792
C25   C     C_R   0.188208 0.578765 0.445174 -0.111629
C26   C     C_R   0.811938 0.580085 0.550832 -0.131421
C27   C     C_R   0.233432 0.500569 0.497493 -0.031546
C28   C     C_R   0.766639 0.500898 0.501128 -0.025517
C29   C     C_3   0.282475 0.928452 0.518033 -0.122489
C30   C     C_3   0.717699 0.928421 0.481630 -0.133129
C31   C     C_3   0.041793 0.634908 0.260129 -0.136989
C32   C     C_3   0.917693 0.748560 0.578881 -0.090047
C33   C     C_3   0.471826 0.068586 0.799261 -0.128638
C34   C     C_R   0.813773 0.423063 0.452331 -0.148187
C35   C     C_3   0.528517 0.069121 0.200390 -0.128633
C36   C     C_R   0.094105 0.425167 0.548386 -0.174199
C37   C     C_R   0.905585 0.424880 0.451440 -0.190850
C38   C     C_R   0.048508 0.503575 0.496988 0.066754
C39   C     C_R   0.951427 0.504251 0.499819 0.063327
C40   C     C_R   0.520598 0.107144 0.607679 0.235214
Cu1   Cu    Cu3+1 0.500000 0.596430 0.500000 0.927194
Cu2   Cu    Cu3+1 0.500000 0.403570 0.500000 0.931870
H1    H     H_    0.499941 0.342101 0.112299 0.124359
H2    H     H_    0.774620 0.637799 0.593167 0.106288
H3    H     H_    0.220138 0.362293 0.588425 0.139316
H4    H     H_    0.779619 0.361421 0.413493 0.139726
H5    H     H_    0.058366 0.365928 0.590278 0.119615
H6    H     H_    0.941165 0.364508 0.411986 0.115149
H7    H     H_    0.306238 0.950434 0.611049 0.098000
H8    H     H_    0.258193 0.852738 0.519718 0.116184
H9    H     H_    0.225390 0.975268 0.494366 0.150349
H10   H     H_    0.694227 0.952832 0.389486 0.103684
H11   H     H_    0.740625 0.852279 0.477239 0.087777
H12   H     H_    0.499802 0.342092 0.887766 0.124434
H13   H     H_    0.775652 0.973452 0.506808 0.143982
H14   H     H_    0.001325 0.568648 0.246243 0.116281
H15   H     H_    0.106890 0.627585 0.213210 0.114457
H16   H     H_    0.005982 0.695682 0.216070 0.143326
H17   H     H_    0.970265 0.803070 0.594502 0.151528
H18   H     H_    0.862044 0.766591 0.641425 0.104311
H19   H     H_    0.896880 0.754762 0.480667 0.123923
H20   H     H_    0.408013 0.043769 0.758687 0.104527
H21   H     H_    0.465859 0.144130 0.832696 0.098268
H22   H     H_    0.485801 0.022318 0.880325 0.142467
H23   H     H_    0.370233 0.751578 0.427497 0.140069
H24   H     H_    0.592520 0.044710 0.240788 0.103175
H25   H     H_    0.534019 0.144714 0.166963 0.098152
H26   H     H_    0.514696 0.022798 0.119343 0.142505
H27   H     H_    0.543118 0.248034 0.685261 0.142730
H28   H     H_    0.456946 0.248059 0.314720 0.142371
H29   H     H_    0.629779 0.751324 0.572580 0.137192
H30   H     H_    0.562391 0.718856 0.888240 0.148187
H31   H     H_    0.437923 0.719013 0.111658 0.148504
H32   H     H_    0.437996 0.719012 0.887838 0.145721
H33   H     H_    0.562318 0.718876 0.112056 0.144222
H34   H     H_    0.224269 0.638428 0.404766 0.123402
N1    N     N_R   0.500000 0.258690 0.500000 -0.287391
N2    N     N_R   0.500000 0.741330 0.500000 -0.287404
O1    O     O_R   0.371460 0.581430 0.500010 -0.515003
O2    O     O_3   0.651896 0.940724 0.572168 -0.530033
O3    O     O_3   0.052592 0.655910 0.386226 -0.556452
O4    O     O_3   0.952464 0.656595 0.607371 -0.539869
O5    O     O_3   0.542211 0.058941 0.715123 -0.531627
O6    O     O_3   0.458296 0.058971 0.284699 -0.530822
O7    O     O_R   0.628540 0.581430 0.499990 -0.517059
O8    O     O_R   0.371470 0.418560 0.500010 -0.491537
O9    O     O_R   0.628530 0.418560 0.499990 -0.491060
O10   O     O_R   0.499990 0.581450 0.319660 -0.494757
O11   O     O_R   0.500010 0.581450 0.680340 -0.493478
O12   O     O_R   0.500010 0.418580 0.319660 -0.521278
O13   O     O_R   0.499990 0.418580 0.680340 -0.520825
O14   O     O_3   0.348501 0.941163 0.427899 -0.530268

loop_
_geom_bond_atom_site_label_1
_geom_bond_atom_site_label_2
_ccdc_geom_bond_type
C7    C10   A    
Cu1   O11   S    
C23   H3    S    
C34   C37   A    
Cu1   Cu2   S    
C2    O6    S    
C4    H28   S    
C26   H2    S    
C29   H7    S    
C12   O7    A    
C12   C28   S    
C14   C21   S    
C3    H27   S    
C24   C26   A    
C32   H19   S    
C18   C19   A    
C38   C39   S    
C22   C38   A    
C21   H31   S    
C24   C39   A    
C36   H5    S    
C15   C17   A    
Cu2   O13   S    
C24   O4    S    
C33   H20   S    
C22   C25   A    
C34   H4    S    
C23   C27   A    
C31   H14   S    
C30   O2    S    
C28   C34   A    
C8    H23   S    
C13   O13   A    
C8    N2    A    
C40   O5    S    
C29   H8    S    
C15   C20   S    
C30   H11   S    
C22   O3    S    
Cu1   N2    S    
C6    C8    A    
C35   H24   S    
Cu2   O12   S    
C2    C4    A    
C6    C10   A    
C11   C16   S    
C35   H25   S    
C11   O10   A    
C33   H21   S    
C20   H32   S    
C37   H6    S    
C33   O5    S    
Cu2   O8    S    
C19   H12   S    
C3    C40   A    
C1    O1    A    
C14   C16   A    
C2    C5    A    
C32   H18   S    
C3    N1    A    
C32   O4    S    
C31   H16   S    
C29   H9    S    
C1    O8    A    
C7    C9    A    
Cu1   O10   S    
C30   H10   S    
C12   O9    A    
C13   O11   A    
C9    H29   S    
Cu1   O1    S    
C35   O6    S    
C25   C27   A    
Cu1   O7    S    
C30   H13   S    
C21   H33   S    
C26   C28   A    
C31   O3    S    
C13   C17   S    
C25   H34   S    
C31   H15   S    
C36   C38   A    
C5    C10   S    
C37   C39   A    
C18   H1    S    
C11   O12   A    
C35   H26   S    
C33   H22   S    
C6    O14   S    
C17   C19   A    
C9    N2    A    
C4    N1    A    
C20   C21   S    
Cu2   N1    S    
C16   C18   A    
C23   C36   A    
C5    C40   A    
C1    C27   S    
C14   C15   A    
C20   H30   S    
Cu2   O9    S    
C32   H17   S    
C29   O14   S    
C7    O2    S    
