data_mof_unit_48831.cif
_audit_creation_date              2012-10-26T17:13:07-0400
_audit_creation_method            fapswitch 2.2
_symmetry_space_group_name_H-M    P1
_symmetry_Int_Tables_number       1
_space_group_crystal_system       triclinic
_cell_length_a                    16.842876
_cell_length_b                    16.838255
_cell_length_c                    16.855392
_cell_angle_alpha                 68.616122
_cell_angle_beta                  68.508213
_cell_angle_gamma                 68.808965
_cell_volume                      3995.85387064

loop_
_atom_site_label
_atom_site_type_symbol
_atom_type_description
_atom_site_fract_x
_atom_site_fract_y
_atom_site_fract_z
_atom_type_partial_charge
C1    C     C_R   0.306642 0.010489 0.432872 -0.019030
C2    C     C_R   0.324752 0.447002 0.959824 0.006001
C3    C     C_R   0.527884 0.402255 0.029904 -0.030934
C4    C     C_R   0.001824 0.465508 0.583604 -0.030937
C5    C     C_R   0.028012 0.531493 0.400060 -0.019234
C6    C     C_1   0.243914 0.020425 0.240904 0.354739
C7    C     C_1   0.735983 0.063726 0.735710 0.390367
C8    C     C_1   0.016388 0.241799 0.243532 0.359941
C9    C     C_1   0.063205 0.736419 0.735865 0.391254
C10   C     C_1   0.254052 0.254306 0.967524 0.414636
C11   C     C_1   0.753960 0.753089 0.967496 0.319792
C12   C     C_3   0.190166 0.153028 0.794601 -0.574851
C13   C     C_R   0.053830 0.676369 0.545543 0.002605
C14   C     C_3   0.781166 0.829386 0.240685 -0.656546
C15   C     C_3   0.157088 0.798077 0.190970 -0.564662
C16   C     C_3   0.804042 0.271067 0.776764 -0.642043
C17   C     C_3   0.793963 0.199808 0.161034 -0.621432
C18   C     C_3   0.247500 0.792359 0.834655 -0.649674
C19   C     C_3   0.138407 0.998654 0.701244 -0.606718
C20   C     C_3   0.870392 0.909232 0.362925 -0.593389
C21   C     C_3   0.718427 0.144616 0.004119 -0.628578
C22   C     C_3   0.359801 0.869698 0.915323 -0.593864
C23   C     C_3   0.010826 0.712763 0.137770 -0.635464
C24   C     C_R   0.960668 0.326265 0.443427 -0.002631
C25   C     C_3   0.900059 0.373809 0.869398 -0.597598
C26   C     C_1   0.409957 0.147837 0.746451 0.290069
C27   C     C_1   0.579169 0.857367 0.261637 0.321814
C28   C     C_1   0.150201 0.748422 0.409253 0.288983
C29   C     C_1   0.854426 0.265453 0.576253 0.329370
C30   C     C_1   0.746599 0.412438 0.149663 0.298151
C31   C     C_1   0.263513 0.584103 0.858781 0.330122
C32   C     C_1   0.190784 0.131248 0.488517 0.260371
C33   C     C_1   0.750607 0.113046 0.401144 0.328495
C34   C     C_1   0.481379 0.191460 0.132824 0.310234
C35   C     C_R   0.447345 0.994717 0.454325 0.018843
C36   C     C_1   0.401103 0.750242 0.121834 0.326403
C37   C     C_1   0.137099 0.480484 0.191075 0.249660
C38   C     C_1   0.110660 0.400346 0.749521 0.326652
C39   C     C_R   0.540615 0.022705 0.546633 0.017811
C40   C     C_R   0.998334 0.453605 0.445856 0.019488
C41   C     C_R   0.025976 0.546030 0.539249 0.017504
C42   C     C_R   0.449595 0.448091 0.001794 0.018012
C43   C     C_R   0.541428 0.539803 0.032495 0.018839
C44   C     C_R   0.029433 0.828426 0.564077 0.811306
C45   C     C_R   0.677722 0.038180 0.551255 -0.034444
C46   C     C_R   0.975932 0.171132 0.433747 0.805649
C47   C     C_R   0.828973 0.565633 0.024539 0.813225
C48   C     C_R   0.171577 0.435068 0.972873 0.802492
C49   C     C_R   0.564287 0.029139 0.828384 0.800921
C50   C     C_R   0.433775 0.975663 0.171152 0.810030
C51   C     C_R   0.430895 0.168470 0.985091 0.808148
C52   C     C_R   0.566317 0.829349 0.022464 0.812865
C53   C     C_R   0.988862 0.429976 0.167011 0.833951
C54   C     C_R   0.026727 0.565198 0.828390 0.800738
C55   C     C_R   0.167116 0.988745 0.429956 0.826218
C56   C     C_R   0.012734 0.432252 0.305683 -0.014799
C57   C     C_R   0.828498 0.026784 0.565106 0.811822
C58   C     C_R   0.399557 0.986831 0.405027 0.051395
C59   C     C_R   0.588840 0.035166 0.592723 0.044170
C60   C     C_R   0.989348 0.404616 0.398505 0.052122
C61   C     C_R   0.037525 0.592386 0.587876 0.045496
C62   C     C_R   0.402178 0.401313 0.989178 0.057779
C63   C     C_R   0.589422 0.588428 0.041130 0.045600
C64   C     C_R   0.259099 0.996803 0.387347 -0.163682
C65   C     C_R   0.729533 0.042128 0.600170 -0.152587
C66   C     C_R   0.997161 0.387289 0.258741 -0.165008
C67   C     C_R   0.038545 0.551445 0.677283 -0.034996
C68   C     C_R   0.042232 0.600360 0.729303 -0.152859
C69   C     C_R   0.388885 0.262066 0.988301 -0.161258
C70   C     C_R   0.602880 0.732110 0.031230 -0.146958
C71   C     C_R   0.598594 0.047204 0.729204 -0.169220
C72   C     C_R   0.393479 0.971330 0.267752 -0.132871
C73   C     C_R   0.731353 0.601945 0.035049 -0.158587
C74   C     C_R   0.269492 0.397196 0.963159 -0.143833
C75   C     C_R   0.048265 0.729216 0.598158 -0.170927
C76   C     C_R   0.971907 0.267729 0.393223 -0.133128
C77   C     C_R   0.452571 0.077795 0.701917 -0.054127
C78   C     C_R   0.430350 0.308411 0.009977 -0.030635
C79   C     C_R   0.537441 0.927286 0.306148 -0.018931
C80   C     C_R   0.081861 0.701238 0.451664 -0.057141
C81   C     C_R   0.925834 0.308119 0.536439 -0.025797
C82   C     C_R   0.699330 0.453392 0.082035 -0.059814
C83   C     C_R   0.304162 0.540501 0.931228 -0.024346
C84   C     C_R   0.263853 0.053697 0.500992 -0.004469
C85   C     C_R   0.709174 0.042877 0.459907 -0.024473
C86   C     C_R   0.496281 0.264792 0.055944 -0.012512
C87   C     C_R   0.457464 0.708455 0.051583 -0.023011
C88   C     C_R   0.058923 0.498285 0.262237 -0.016741
C89   C     C_R   0.549385 0.677425 0.042699 -0.038532
C90   C     C_R   0.040722 0.460708 0.709290 -0.021536
C91   C     C_R   0.300011 0.992204 0.299766 -0.104804
C92   C     C_R   0.687745 0.050219 0.687860 -0.114871
C93   C     C_R   0.991601 0.299895 0.299799 -0.109672
C94   C     C_R   0.050462 0.688122 0.687503 -0.114829
C95   C     C_R   0.305651 0.305654 0.970701 -0.122659
C96   C     C_R   0.695371 0.694996 0.015502 -0.101142
C97   C     C_R   0.672408 0.005639 0.423649 -0.040677
C98   C     C_R   0.309059 0.046174 0.559705 -0.066998
C99   C     C_R   0.002859 0.425702 0.672148 -0.042922
C100  C     C_R   0.546368 0.051086 0.676805 0.002357
C101  C     C_R   0.054494 0.556640 0.306887 -0.068437
C102  C     C_R   0.419197 0.671529 0.016728 -0.043491
C103  C     C_R   0.553931 0.309683 0.052668 -0.048984
C104  C     C_R   0.585740 0.949772 0.345274 -0.017952
C105  C     C_R   0.403724 0.059480 0.660544 -0.081999
C106  C     C_R   0.341646 0.587188 0.957450 -0.024888
C107  C     C_R   0.655469 0.403527 0.067690 -0.068301
C108  C     C_R   0.946663 0.348218 0.585138 -0.021358
C109  C     C_R   0.065570 0.658729 0.402311 -0.082205
C110  C     C_R   0.720115 0.976038 0.346373 0.181209
C111  C     C_R   0.444132 0.959506 0.326039 -0.004631
C112  C     C_R   0.263588 0.065966 0.642158 0.221984
C113  C     C_R   0.968161 0.351555 0.720768 0.189976
C114  C     C_R   0.076892 0.638452 0.261256 0.223322
C115  C     C_R   0.343014 0.719970 0.986231 0.186729
C116  C     C_R   0.634990 0.263492 0.074838 0.222119
C117  C     C_R   0.677506 0.945530 0.308585 0.184801
C118  C     C_R   0.310561 0.070982 0.693377 0.208656
C119  C     C_R   0.306253 0.678852 0.953210 0.175903
C120  C     C_R   0.687557 0.310242 0.079539 0.182668
C121  C     C_R   0.935940 0.315467 0.678213 0.175964
C122  C     C_R   0.675013 0.547215 0.052785 -0.007181
C123  C     C_R   0.078701 0.691038 0.309053 0.213705
C124  C     C_R   0.539521 0.981049 0.421767 -0.026126
C125  C     C_R   0.449082 0.031762 0.581907 -0.008429
C126  C     C_R   0.981995 0.422407 0.538332 -0.023360
C127  C     C_R   0.037426 0.580240 0.447370 -0.008347
C128  C     C_R   0.416701 0.539855 0.990371 -0.021953
C129  C     C_R   0.576308 0.448663 0.041144 -0.008440
C130  C     C_R   0.584719 0.001032 0.464899 -0.029416
C131  C     C_R   0.401977 0.021842 0.533395 -0.023669
C132  C     C_R   0.459536 0.584025 0.011918 -0.029562
Cu1   Cu    Cu3+1 0.995180 0.995180 0.424630 0.964967
Cu2   Cu    Cu3+1 0.004820 0.004820 0.575370 0.971534
Cu3   Cu    Cu3+1 0.995180 0.424630 0.995180 0.966048
Cu4   Cu    Cu3+1 0.004820 0.575370 0.004820 0.981506
Cu5   Cu    Cu3+1 0.424630 0.995180 0.995180 0.966022
Cu6   Cu    Cu3+1 0.575370 0.004820 0.004820 0.998258
H1    H     H_    0.300215 0.051752 0.827859 0.246318
H2    H     H_    0.135076 0.832521 0.129694 0.222120
H3    H     H_    0.185236 0.842230 0.201929 0.242576
H4    H     H_    0.209420 0.736176 0.182455 0.230288
H5    H     H_    0.933348 0.189755 0.763382 0.243596
H6    H     H_    0.772503 0.217241 0.795320 0.247014
H7    H     H_    0.766948 0.331054 0.735937 0.233775
H8    H     H_    0.799058 0.283949 0.838320 0.216261
H9    H     H_    0.822344 0.303058 0.049152 0.250493
H10   H     H_    0.731720 0.196126 0.214891 0.228549
H11   H     H_    0.827304 0.134486 0.146799 0.216431
H12   H     H_    0.183637 0.203154 0.730883 0.221265
H13   H     H_    0.839292 0.215694 0.183493 0.258655
H14   H     H_    0.174940 0.751536 0.966136 0.245418
H15   H     H_    0.213669 0.786794 0.792552 0.257837
H16   H     H_    0.319241 0.781075 0.799604 0.228852
H17   H     H_    0.220644 0.860408 0.842807 0.218123
H18   H     H_    0.129208 0.136145 0.657685 0.249078
H19   H     H_    0.105525 0.981753 0.773252 0.214172
H20   H     H_    0.192701 0.940514 0.684933 0.223622
H21   H     H_    0.088785 0.014271 0.665423 0.246208
H22   H     H_    0.838223 0.978608 0.243091 0.243323
H23   H     H_    0.128511 0.131052 0.828871 0.223644
H24   H     H_    0.926968 0.935333 0.349870 0.238125
H25   H     H_    0.895735 0.845480 0.345645 0.196183
H26   H     H_    0.836815 0.896018 0.434879 0.235800
H27   H     H_    0.690097 0.132835 0.138757 0.254395
H28   H     H_    0.732025 0.072024 0.017337 0.216412
H29   H     H_    0.782386 0.162169 0.979541 0.224654
H30   H     H_    0.681686 0.177538 0.952770 0.236085
H31   H     H_    0.240843 0.837087 0.989147 0.249386
H32   H     H_    0.346651 0.928573 0.937748 0.236450
H33   H     H_    0.341732 0.891281 0.852351 0.203347
H34   H     H_    0.198983 0.184543 0.836655 0.255655
H35   H     H_    0.431808 0.837031 0.902212 0.235009
H36   H     H_    0.142958 0.638107 0.128468 0.255695
H37   H     H_    0.028830 0.731527 0.064364 0.208334
H38   H     H_    0.973203 0.773611 0.159808 0.227938
H39   H     H_    0.969005 0.665987 0.163661 0.241196
H40   H     H_    0.963039 0.251067 0.841338 0.243655
H41   H     H_    0.927451 0.362534 0.924296 0.245516
H42   H     H_    0.835196 0.358306 0.897640 0.193847
H43   H     H_    0.888589 0.444952 0.832981 0.233095
H44   H     H_    0.752922 0.964355 0.177348 0.237705
H45   H     H_    0.799982 0.808847 0.179290 0.237214
H46   H     H_    0.747000 0.782318 0.296570 0.240316
H47   H     H_    0.841946 0.826194 0.253718 0.215435
H48   H     H_    0.052292 0.826224 0.301026 0.243990
N1    N     N_1   0.199393 0.042765 0.194048 -0.247396
N2    N     N_2   0.895696 0.244567 0.728023 -0.422459
N3    N     N_2   0.777354 0.265740 0.081007 -0.444135
N4    N     N_2   0.231057 0.728543 0.920136 -0.423554
N5    N     N_2   0.170757 0.075126 0.678086 -0.431067
N6    N     N_2   0.811950 0.972985 0.309856 -0.446869
N7    N     N_2   0.666241 0.170478 0.084708 -0.419534
N8    N     N_2   0.307676 0.811654 0.982894 -0.441106
N9    N     N_2   0.089983 0.673184 0.167862 -0.430253
N10   N     N_2   0.961202 0.316982 0.813374 -0.444911
N11   N     N_1   0.376509 0.204283 0.781118 -0.276480
N12   N     N_1   0.774675 0.073381 0.774355 -0.276756
N13   N     N_1   0.611405 0.801231 0.226496 -0.285513
N14   N     N_1   0.205139 0.785390 0.375920 -0.265221
N15   N     N_1   0.796677 0.232345 0.606660 -0.294434
N16   N     N_1   0.783543 0.380590 0.204251 -0.270607
N17   N     N_1   0.232171 0.617429 0.800049 -0.298555
N18   N     N_1   0.134218 0.194855 0.477965 -0.305347
N19   N     N_1   0.783634 0.169574 0.356226 -0.287770
N20   N     N_1   0.469026 0.134834 0.196240 -0.299094
N21   N     N_1   0.357349 0.783276 0.178434 -0.282425
N22   N     N_1   0.201261 0.464882 0.136161 -0.306828
N23   N     N_1   0.035919 0.196150 0.198296 -0.246744
N24   N     N_1   0.167245 0.353660 0.781211 -0.290672
N25   N     N_1   0.072323 0.775581 0.774450 -0.277076
N26   N     N_1   0.212482 0.212955 0.966769 -0.260653
N27   N     N_1   0.800495 0.799309 0.928918 -0.261954
N28   N     N_2   0.264618 0.077150 0.781834 -0.430261
N29   N     N_2   0.724216 0.918515 0.229211 -0.424306
N30   N     N_2   0.081422 0.780746 0.264465 -0.435601
O1    O     O_R   0.124540 0.978640 0.385460 -0.574167
O2    O     O_R   0.124540 0.385460 0.978640 -0.579308
O3    O     O_R   0.021360 0.875460 0.614540 -0.579491
O4    O     O_R   0.978640 0.124540 0.385460 -0.575573
O5    O     O_R   0.013780 0.867370 0.487190 -0.599939
O6    O     O_R   0.986220 0.132630 0.512810 -0.577289
O7    O     O_R   0.867370 0.487190 0.013780 -0.605808
O8    O     O_R   0.132630 0.512810 0.986220 -0.572971
O9    O     O_R   0.487190 0.013780 0.867370 -0.602151
O10   O     O_R   0.512810 0.986220 0.132630 -0.565360
O11   O     O_R   0.512810 0.132630 0.986220 -0.584340
O12   O     O_R   0.875460 0.021360 0.614540 -0.566966
O13   O     O_R   0.487190 0.867370 0.013780 -0.596278
O14   O     O_R   0.986220 0.512810 0.132630 -0.593894
O15   O     O_R   0.013780 0.487190 0.867370 -0.594820
O16   O     O_R   0.132630 0.986220 0.512810 -0.600921
O17   O     O_R   0.867370 0.013780 0.487190 -0.592120
O18   O     O_R   0.978640 0.385460 0.124540 -0.573599
O19   O     O_R   0.021360 0.614540 0.875460 -0.565384
O20   O     O_R   0.385460 0.124540 0.978640 -0.578860
O21   O     O_R   0.614540 0.875460 0.021360 -0.560997
O22   O     O_R   0.614540 0.021360 0.875460 -0.577205
O23   O     O_R   0.385460 0.978640 0.124540 -0.574692
O24   O     O_R   0.875460 0.614540 0.021360 -0.573048

loop_
_geom_bond_atom_site_label_1
_geom_bond_atom_site_label_2
_ccdc_geom_bond_type
C11   C96   S    
C65   C92   A    
C112  C118  A    
C3    C42   A    
C30   C82   S    
C40   C60   A    
C106  C119  A    
C35   C124  A    
H5    N2    S    
C41   C127  A    
C37   C88   S    
C45   C85   A    
C119  N4    S    
C12   N28   S    
C108  C121  A    
C107  C129  A    
C23   H39   S    
C47   O24   A    
C63   C122  A    
C46   C76   S    
C14   H45   S    
C69   C78   A    
C25   H42   S    
C43   C63   A    
Cu3   Cu4   S    
C12   H34   S    
C48   O2    A    
C34   N20   T    
C1    C84   A    
C33   N19   T    
C28   N14   T    
C21   H30   S    
Cu6   O21   S    
C35   C58   A    
C39   C125  A    
C108  C126  A    
C50   O23   A    
C16   H6    S    
C102  C132  A    
C97   C130  A    
C15   H2    S    
C27   C79   S    
C22   N8    S    
C9    N25   T    
C52   O13   A    
C56   C88   A    
C54   C68   S    
C4    C41   A    
H1    N28   S    
C101  C114  A    
Cu2   O3    S    
C20   H26   S    
Cu4   O19   S    
C106  C128  A    
C31   C83   S    
C77   C100  A    
C16   H8    S    
C34   C86   S    
Cu5   O9    S    
C117  N29   S    
C26   N11   T    
C50   C72   S    
H14   N4    S    
C102  C115  A    
C12   H23   S    
C15   H3    S    
C57   O12   A    
C109  C127  A    
C18   N4    S    
C71   C92   A    
C13   C75   A    
Cu2   O6    S    
H48   N30   S    
C80   C109  A    
Cu1   O5    S    
Cu2   O16   S    
C116  C120  A    
C42   C62   A    
C31   N17   T    
C22   H33   S    
C18   H16   S    
C85   C97   A    
C42   C128  A    
C53   O14   A    
C51   C69   S    
C78   C86   A    
C72   C111  A    
C20   H24   S    
H36   N9    S    
Cu3   O15   S    
C123  N30   S    
C59   C100  A    
C63   C89   A    
C2    C83   A    
C17   H13   S    
C44   O3    A    
C54   O19   A    
C30   N16   T    
C86   C103  A    
C128  C132  A    
C110  C117  A    
C25   H43   S    
C88   C101  A    
C36   C87   S    
C32   C84   S    
C98   C131  A    
C5    C101  A    
C26   C77   S    
C98   C112  A    
C114  N9    S    
C67   C68   A    
C19   H19   S    
C48   C74   S    
C43   C129  A    
C17   H10   S    
C27   N13   T    
C61   C67   A    
H22   N6    S    
C46   O4    A    
Cu5   O13   S    
C16   N2    S    
C72   C91   A    
C24   C76   A    
C81   C108  A    
C23   H38   S    
C48   O8    A    
C17   N3    S    
C90   C99   A    
C20   H25   S    
Cu4   O14   S    
C6    N1    T    
C67   C90   A    
C68   C94   A    
C41   C61   A    
C58   C111  A    
H27   N7    S    
C51   O20   A    
C36   N21   T    
Cu2   O12   S    
C32   N18   T    
C44   C75   S    
C70   C96   A    
C24   C81   A    
C29   C81   S    
C4    C126  A    
C12   H12   S    
C76   C93   A    
C87   C102  A    
C125  C131  A    
C57   O17   A    
Cu4   O8    S    
C24   C60   A    
C39   C59   A    
C55   C64   S    
C5    C127  A    
Cu6   O10   S    
Cu3   O18   S    
C124  C130  A    
C118  N28   S    
Cu1   O17   S    
C82   C107  A    
C38   N24   T    
Cu5   O20   S    
C53   C66   S    
C18   H15   S    
C47   C73   S    
C22   H32   S    
C25   N10   S    
C52   O21   A    
C11   N27   T    
C66   C93   A    
C116  N7    S    
C10   N26   T    
C55   O1    A    
C115  N8    S    
C115  C119  A    
Cu4   O24   S    
C51   O11   A    
Cu1   Cu2   S    
C37   N22   T    
C105  C118  A    
C50   O10   A    
C70   C89   A    
C114  C123  A    
C28   C80   S    
C49   O9    A    
C8    N23   T    
C1    C64   A    
C35   C131  A    
C54   O15   A    
C74   C95   A    
C22   H35   S    
C104  C117  A    
Cu5   Cu6   S    
C3    C103  A    
C14   H47   S    
C47   O7    A    
C45   C59   A    
C33   C85   S    
C3    C129  A    
C19   H20   S    
C55   O16   A    
C62   C78   A    
C17   H11   S    
C8    C93   S    
Cu1   O4    S    
C57   C65   S    
C15   N30   S    
C69   C95   A    
C2    C74   A    
C99   C113  A    
C14   H46   S    
C20   N6    S    
C25   H41   S    
H31   N8    S    
C104  C124  A    
C39   C130  A    
C105  C125  A    
C113  C121  A    
Cu3   O7    S    
C71   C100  A    
C38   C90   S    
C21   H29   S    
C83   C106  A    
C79   C111  A    
C19   H21   S    
C7    N12   T    
C49   O22   A    
C103  C116  A    
C84   C98   A    
C1    C58   A    
C112  N5    S    
C45   C65   A    
C97   C110  A    
Cu3   O2    S    
C29   N15   T    
C107  C120  A    
H44   N29   S    
H40   N10   S    
C10   C95   S    
H9    N3    S    
C56   C66   A    
C7    C92   S    
C53   O18   A    
C77   C105  A    
C113  N10   S    
C43   C132  A    
C14   N29   S    
Cu6   O22   S    
C46   O6    A    
C79   C104  A    
Cu1   O1    S    
C13   C80   A    
C52   C70   S    
C21   H28   S    
Cu6   O11   S    
H18   N5    S    
C56   C60   A    
C23   H37   S    
C13   C61   A    
C73   C122  A    
C49   C71   S    
C5    C40   A    
C23   N9    S    
C4    C99   A    
C87   C89   A    
C40   C126  A    
C16   H7    S    
C109  C123  A    
C44   O5    A    
C110  N6    S    
C64   C91   A    
C21   N7    S    
C15   H4    S    
C120  N3    S    
C2    C62   A    
C9    C94   S    
C82   C122  A    
C18   H17   S    
C6    C91   S    
C75   C94   A    
C19   N5    S    
Cu5   O23   S    
C121  N2    S    
C73   C96   A    
