data_mof_unit_6460.cif
_audit_creation_date              2012-12-10T18:29:44-0500
_audit_creation_method            fapswitch 2.2
_symmetry_space_group_name_H-M    P1
_symmetry_Int_Tables_number       1
_space_group_crystal_system       triclinic
_cell_length_a                    19.252403
_cell_length_b                    18.045928
_cell_length_c                    23.396445
_cell_angle_alpha                 89.402724
_cell_angle_beta                  90.322503
_cell_angle_gamma                 90.100749
_cell_volume                      8127.98572921

loop_
_atom_site_label
_atom_site_type_symbol
_atom_type_description
_atom_site_fract_x
_atom_site_fract_y
_atom_site_fract_z
_atom_type_partial_charge
C1    C     C_R   0.367150 0.499901 0.501180 0.949263
C2    C     C_R   0.632742 0.500039 0.500671 0.940238
C3    C     C_R   0.506787 0.444568 0.233305 0.391983
C4    C     C_R   0.473363 0.455002 0.766312 0.381581
C5    C     C_R   0.502679 0.437874 0.293694 0.293264
C6    C     C_R   0.467355 0.451075 0.706008 0.299847
C7    C     C_R   0.505818 0.502646 0.327283 -0.114841
C8    C     C_R   0.506507 0.500058 0.671655 -0.116473
C9    C     C_R   0.515752 0.571781 0.300432 -0.302294
C10   C     C_R   0.551468 0.551517 0.696741 -0.323092
C11   C     C_R   0.521552 0.577709 0.241574 -0.203864
C12   C     C_R   0.557723 0.555191 0.755659 -0.209218
C13   C     C_R   0.517223 0.514710 0.207770 0.220024
C14   C     C_R   0.518431 0.508347 0.790685 0.224480
C15   C     C_R   0.250835 0.553539 0.477844 0.270088
C16   C     C_R   0.747713 0.451003 0.471680 0.273326
C17   C     C_R   0.741878 0.546704 0.544538 0.263532
C18   C     C_R   0.258788 0.445727 0.541629 0.270936
C19   C     C_R   0.178040 0.549323 0.480058 0.325396
C20   C     C_R   0.820584 0.452651 0.475059 0.330577
C21   C     C_R   0.813704 0.540320 0.553739 0.333859
C22   C     C_R   0.186773 0.449247 0.550714 0.326138
C23   C     C_R   0.145992 0.498889 0.518101 -0.265472
C24   C     C_R   0.853572 0.495273 0.517650 -0.269347
C25   C     C_R   0.291090 0.499380 0.506382 -0.346790
C26   C     C_R   0.708668 0.499860 0.505132 -0.338339
C27   C     C_R   0.501171 0.500374 0.390431 0.871789
C28   C     C_R   0.500716 0.499733 0.609225 0.896265
C29   C     C_R   0.929616 0.495461 0.522533 0.458469
C30   C     C_R   0.070023 0.497394 0.522799 0.459364
C31   C     C_R   0.533614 0.278641 0.542424 -0.063580
C32   C     C_R   0.527573 0.722193 0.455305 -0.050988
C33   C     C_R   0.466035 0.279017 0.458056 -0.058660
C34   C     C_R   0.471064 0.720579 0.544285 -0.077918
C35   C     C_R   0.531768 0.200291 0.545535 0.290880
C36   C     C_R   0.523913 0.800148 0.452316 0.305433
C37   C     C_R   0.467338 0.200477 0.455948 0.285896
C38   C     C_R   0.472829 0.798993 0.546968 0.311824
C39   C     C_R   0.499783 0.160169 0.500929 -0.099090
C40   C     C_R   0.498481 0.840495 0.499708 -0.128594
C41   C     C_R   0.499515 0.924470 0.500318 0.479863
C42   C     C_R   0.500243 0.076653 0.501003 0.509426
C43   C     C_R   0.580420 0.493149 0.879943 0.538605
C44   C     C_R   0.470202 0.558338 0.117717 0.553260
C45   C     C_R   0.470463 0.554030 0.878547 0.604751
C46   C     C_R   0.579733 0.496704 0.119512 0.623392
C47   C     C_R   0.475021 0.567618 0.937596 -0.177123
C48   C     C_R   0.587305 0.507091 0.060005 -0.178912
C49   C     C_R   0.531834 0.537746 0.968606 -0.149657
C50   C     C_R   0.531653 0.539005 0.028918 -0.141001
C51   C     C_R   0.586906 0.503010 0.939519 -0.139774
C52   C     C_R   0.474174 0.568897 0.058069 -0.152161
C53   C     C_R   0.423872 0.608704 0.966746 0.383846
C54   C     C_R   0.647988 0.484937 0.030593 0.358085
C55   C     C_R   0.422438 0.607957 0.026742 0.375605
C56   C     C_R   0.646685 0.479657 0.970432 0.406609
Cu1   Cu    Cu3+1 0.500000 0.573360 0.500000 0.936524
Cu2   Cu    Cu3+1 0.500000 0.426640 0.500000 0.970260
H1    H     H_    0.520246 0.621752 0.325156 0.175990
H2    H     H_    0.581962 0.589085 0.670524 0.190681
H3    H     H_    0.529614 0.631678 0.221993 0.161677
H4    H     H_    0.592131 0.595926 0.774405 0.157486
H5    H     H_    0.561347 0.309618 0.574540 0.149855
H6    H     H_    0.551514 0.692386 0.420791 0.149068
H7    H     H_    0.437476 0.310508 0.426278 0.165499
H8    H     H_    0.447030 0.689089 0.578307 0.152092
N1    N     N_R   0.522770 0.517920 0.851366 -0.459547
N2    N     N_R   0.522330 0.522778 0.146775 -0.449653
N3    N     N_R   0.035047 0.432214 0.520032 -0.210872
N4    N     N_R   0.964631 0.560504 0.526320 -0.209544
N5    N     N_R   0.965961 0.431280 0.519721 -0.207960
N6    N     N_R   0.033676 0.561474 0.526292 -0.209677
N7    N     N_R   0.500000 0.316380 0.500000 -0.214309
N8    N     N_R   0.500000 0.683620 0.500000 -0.213732
N9    N     N_R   0.502882 0.038723 0.451167 -0.210137
N10   N     N_R   0.497310 0.962551 0.550254 -0.194054
N11   N     N_R   0.497734 0.036672 0.550617 -0.212449
N12   N     N_R   0.502679 0.964729 0.450918 -0.236163
O1    O     O_R   0.400150 0.561970 0.500010 -0.565618
O2    O     O_R   0.599850 0.438030 0.499990 -0.582005
O3    O     O_R   0.599850 0.561970 0.499990 -0.571045
O4    O     O_R   0.400150 0.438030 0.500010 -0.566238
O5    O     O_R   0.499980 0.561970 0.417880 -0.610482
O6    O     O_R   0.500020 0.438030 0.582120 -0.553497
O7    O     O_R   0.500020 0.561970 0.582120 -0.609329
O8    O     O_R   0.499980 0.438030 0.417880 -0.537496
O9    O     O_2   0.630088 0.457417 0.850600 -0.524767
O10   O     O_2   0.413813 0.581056 0.146601 -0.532443
O11   O     O_2   0.413511 0.574573 0.848519 -0.494509
O12   O     O_2   0.628209 0.459142 0.149900 -0.483988
O13   O     O_3   0.372846 0.647965 0.937589 -0.541296
C57   C     C_3   0.401327 0.715456 0.916767 0.084300
H9    H     H_    0.431152 0.705890 0.877018 0.168680
H10   H     H_    0.437189 0.741867 0.948161 0.079320
C58   C     C_3   0.342062 0.769134 0.903219 -0.299476
H11   H     H_    0.308135 0.745118 0.869534 0.235223
H12   H     H_    0.310395 0.777294 0.942232 0.222419
C59   C     C_3   0.369354 0.844163 0.882614 -0.948954
H13   H     H_    0.402098 0.869967 0.916235 0.255023
H14   H     H_    0.324974 0.881526 0.872923 0.263637
H15   H     H_    0.400488 0.837638 0.843210 0.261449
O14   O     O_3   0.707473 0.463749 0.059985 -0.554688
C60   C     C_3   0.741220 0.527938 0.081118 0.069524
H16   H     H_    0.709142 0.556329 0.113594 0.159968
H17   H     H_    0.751897 0.568724 0.046167 0.099090
C61   C     C_3   0.809935 0.505121 0.109101 -0.291135
H18   H     H_    0.799551 0.464966 0.144394 0.244173
H19   H     H_    0.843251 0.477559 0.077056 0.211413
C62   C     C_3   0.848614 0.571923 0.133081 -0.946249
H20   H     H_    0.860684 0.612219 0.098302 0.258303
H21   H     H_    0.898096 0.553368 0.153158 0.265024
H22   H     H_    0.816753 0.599574 0.166035 0.261275
O15   O     O_3   0.566683 0.162382 0.588811 -0.595839
C63   C     C_3   0.542567 0.183542 0.643413 0.072792
H23   H     H_    0.525292 0.132609 0.666371 0.170540
H24   H     H_    0.496697 0.221448 0.642454 0.128296
C64   C     C_3   0.602130 0.218504 0.677390 -0.336674
H25   H     H_    0.643040 0.176244 0.685516 0.229019
H26   H     H_    0.625645 0.264707 0.652428 0.213132
C65   C     C_3   0.576746 0.248407 0.734268 -0.921780
H27   H     H_    0.537443 0.292453 0.726668 0.260402
H28   H     H_    0.621061 0.272496 0.758353 0.272079
H29   H     H_    0.553388 0.203113 0.760315 0.256866
O16   O     O_3   0.551321 0.835828 0.404885 -0.597379
C66   C     C_3   0.498547 0.846898 0.363116 0.111065
H30   H     H_    0.514620 0.894868 0.336095 0.182404
H31   H     H_    0.447579 0.862095 0.382014 0.130475
C67   C     C_3   0.489880 0.779083 0.324795 -0.410298
H32   H     H_    0.541615 0.760519 0.309777 0.230412
H33   H     H_    0.465158 0.733506 0.349559 0.206833
C68   C     C_3   0.443784 0.796338 0.273123 -0.905848
H34   H     H_    0.391500 0.814313 0.287219 0.260315
H35   H     H_    0.437874 0.745853 0.246765 0.270074
H36   H     H_    0.467528 0.840766 0.246421 0.252071
O17   O     O_3   0.431255 0.161772 0.414130 -0.600790
C69   C     C_3   0.444991 0.190571 0.358898 0.068211
H37   H     H_    0.500271 0.208368 0.354250 0.150486
H38   H     H_    0.409980 0.238269 0.349845 0.155490
C70   C     C_3   0.430342 0.130490 0.314921 -0.307638
H39   H     H_    0.465873 0.082891 0.322692 0.231490
H40   H     H_    0.375966 0.110593 0.319584 0.228043
C71   C     C_3   0.440617 0.159775 0.254125 -0.943757
H41   H     H_    0.403988 0.205947 0.245031 0.257468
H42   H     H_    0.430446 0.114739 0.223195 0.261541
H43   H     H_    0.494746 0.179804 0.248327 0.265931
O18   O     O_3   0.443027 0.835469 0.592677 -0.594569
C72   C     C_3   0.472048 0.811698 0.645654 0.068218
H44   H     H_    0.492962 0.861308 0.667649 0.171190
H45   H     H_    0.516550 0.772500 0.641884 0.118753
C73   C     C_3   0.415317 0.777185 0.683082 -0.343829
H46   H     H_    0.376337 0.820241 0.693599 0.228889
H47   H     H_    0.388331 0.732368 0.659496 0.215482
C74   C     C_3   0.445510 0.744874 0.738410 -0.910235
H48   H     H_    0.482178 0.699295 0.728805 0.267880
H49   H     H_    0.402929 0.722229 0.765267 0.278467
H50   H     H_    0.473329 0.788441 0.762731 0.242066
O19   O     O_3   0.366875 0.640955 0.053896 -0.540361
C75   C     C_3   0.386157 0.712961 0.071391 0.105660
H51   H     H_    0.386667 0.751181 0.034008 0.126829
H52   H     H_    0.438300 0.713854 0.092476 0.119820
C76   C     C_3   0.332603 0.741341 0.113843 -0.276245
H53   H     H_    0.279984 0.739193 0.094110 0.223156
H54   H     H_    0.332733 0.705284 0.152639 0.251027
C77   C     C_3   0.348366 0.820902 0.131276 -0.962864
H55   H     H_    0.401253 0.824744 0.150184 0.261058
H56   H     H_    0.310058 0.839028 0.163536 0.265470
H57   H     H_    0.344927 0.858583 0.093520 0.259190
O20   O     O_3   0.699651 0.443205 0.942090 -0.546258
C78   C     C_3   0.760622 0.487019 0.936703 0.133584
H58   H     H_    0.796234 0.456386 0.908211 0.172778
H59   H     H_    0.788666 0.490698 0.977889 0.146875
C79   C     C_3   0.748867 0.564441 0.909776 -0.422999
H60   H     H_    0.722759 0.559031 0.867619 0.254799
H61   H     H_    0.715635 0.598570 0.937839 0.190489
C80   C     C_3   0.817648 0.605089 0.901318 -0.914186
H62   H     H_    0.844304 0.612682 0.943095 0.255416
H63   H     H_    0.807783 0.660462 0.881815 0.261975
H64   H     H_    0.851935 0.573387 0.872451 0.258384
O21   O     O_3   0.504520 0.382553 0.199146 -0.595575
C81   C     C_3   0.435039 0.369776 0.182277 0.023069
H65   H     H_    0.409968 0.421122 0.165115 0.171672
H66   H     H_    0.404524 0.348733 0.219357 0.142510
C82   C     C_3   0.434243 0.311854 0.135141 -0.304661
H67   H     H_    0.463529 0.333475 0.097664 0.232538
H68   H     H_    0.460234 0.260513 0.150754 0.232573
C83   C     C_3   0.360230 0.293241 0.116523 -0.917003
H69   H     H_    0.330381 0.270213 0.153139 0.255219
H70   H     H_    0.361551 0.251248 0.082198 0.258990
H71   H     H_    0.333684 0.343637 0.099754 0.267743
O22   O     O_3   0.429716 0.412114 0.800176 -0.611957
C84   C     C_3   0.468193 0.362824 0.835500 0.065347
H72   H     H_    0.470666 0.385687 0.879378 0.176727
H73   H     H_    0.522310 0.353154 0.820381 0.156756
C85   C     C_3   0.430522 0.288313 0.838109 -0.355105
H74   H     H_    0.376379 0.296788 0.852930 0.238552
H75   H     H_    0.428504 0.264085 0.794643 0.211756
C86   C     C_3   0.467114 0.234290 0.878821 -0.899449
H76   H     H_    0.521405 0.224809 0.864904 0.262915
H77   H     H_    0.439133 0.180439 0.879072 0.254567
H78   H     H_    0.467567 0.256485 0.922934 0.261891
O23   O     O_3   0.495644 0.369689 0.320532 -0.762207
H79   H     H_    0.499119 0.329668 0.292105 0.341547
O24   O     O_3   0.422689 0.401907 0.679520 -0.727661
H80   H     H_    0.400425 0.369480 0.708481 0.346161
O25   O     O_3   0.282632 0.606066 0.443178 -0.591233
C87   C     C_3   0.280205 0.675511 0.470517 0.132475
H81   H     H_    0.305688 0.672458 0.513413 0.132360
H82   H     H_    0.225601 0.694310 0.475722 0.180156
C88   C     C_3   0.318576 0.732961 0.434068 -0.347911
H83   H     H_    0.374300 0.717622 0.431391 0.227482
H84   H     H_    0.296397 0.733735 0.390092 0.227356
C89   C     C_3   0.312275 0.810231 0.459450 -0.915516
H85   H     H_    0.256991 0.827664 0.460218 0.262692
H86   H     H_    0.341717 0.850684 0.433032 0.252573
H87   H     H_    0.333433 0.810771 0.503669 0.277172
O26   O     O_3   0.714564 0.408944 0.430505 -0.596910
C90   C     C_3   0.713925 0.333813 0.448074 0.117877
H88   H     H_    0.696460 0.327458 0.493288 0.133284
H89   H     H_    0.766611 0.309383 0.443763 0.183847
C91   C     C_3   0.663463 0.291302 0.409780 -0.328887
H90   H     H_    0.610288 0.314068 0.414853 0.256799
H91   H     H_    0.678835 0.298581 0.364334 0.233145
C92   C     C_3   0.662786 0.208784 0.424693 -0.915696
H92   H     H_    0.714459 0.184037 0.416281 0.264195
H93   H     H_    0.623304 0.180142 0.398076 0.261365
H94   H     H_    0.649678 0.200119 0.470406 0.267907
O27   O     O_3   0.702706 0.592059 0.579111 -0.606325
C93   C     C_3   0.709051 0.666041 0.559529 0.134108
H95   H     H_    0.694152 0.670940 0.513496 0.143147
H96   H     H_    0.763215 0.686460 0.565214 0.177837
C94   C     C_3   0.660632 0.714800 0.594313 -0.371182
H97   H     H_    0.606543 0.694198 0.589761 0.233019
H98   H     H_    0.675462 0.711300 0.640251 0.214216
C95   C     C_3   0.663990 0.795523 0.574402 -0.905134
H99   H     H_    0.717332 0.817787 0.580341 0.263315
H100  H     H_    0.627501 0.829296 0.599815 0.254738
H101  H     H_    0.649170 0.800288 0.528584 0.266743
O28   O     O_3   0.299149 0.397624 0.574158 -0.568996
C96   C     C_3   0.292709 0.325115 0.552603 0.138069
H102  H     H_    0.309375 0.323338 0.507078 0.130077
H103  H     H_    0.238274 0.304755 0.555785 0.175110
C97   C     C_3   0.339303 0.273546 0.587983 -0.324555
H104  H     H_    0.394133 0.291852 0.583850 0.248588
H105  H     H_    0.324702 0.276761 0.633795 0.224300
C98   C     C_3   0.332819 0.193350 0.568616 -0.934508
H106  H     H_    0.279462 0.172366 0.576672 0.265748
H107  H     H_    0.370328 0.158263 0.592851 0.261686
H108  H     H_    0.344188 0.189018 0.522331 0.274485
O29   O     O_3   0.138700 0.597398 0.446612 -0.586537
C99   C     C_3   0.112555 0.560039 0.398045 0.088434
H109  H     H_    0.061205 0.584692 0.387314 0.166065
H110  H     H_    0.103157 0.499619 0.405431 0.116280
C100  C     C_3   0.161111 0.571346 0.347062 -0.321700
H111  H     H_    0.171057 0.631536 0.340541 0.237023
H112  H     H_    0.211451 0.543374 0.355853 0.237855
C101  C     C_3   0.129709 0.539480 0.292543 -0.934948
H113  H     H_    0.120274 0.479062 0.297910 0.256604
H114  H     H_    0.166193 0.548186 0.256493 0.269935
H115  H     H_    0.079889 0.567567 0.281983 0.257480
O30   O     O_3   0.859005 0.410510 0.437524 -0.587578
C102  C     C_3   0.885353 0.456031 0.392888 0.083219
H116  H     H_    0.936161 0.432563 0.379993 0.167578
H117  H     H_    0.895887 0.514353 0.405916 0.116692
C103  C     C_3   0.836187 0.455291 0.341182 -0.311835
H118  H     H_    0.824395 0.397056 0.329448 0.240702
H119  H     H_    0.786793 0.483271 0.352230 0.241058
C104  C     C_3   0.868064 0.495294 0.289847 -0.943266
H120  H     H_    0.879485 0.553947 0.300427 0.257405
H121  H     H_    0.830907 0.494250 0.253408 0.274322
H122  H     H_    0.916807 0.467484 0.276785 0.258618
O31   O     O_3   0.844890 0.581187 0.596647 -0.586301
C105  C     C_3   0.855734 0.535810 0.645671 0.086757
H123  H     H_    0.901609 0.558258 0.668772 0.168578
H124  H     H_    0.868559 0.477165 0.635309 0.117883
C106  C     C_3   0.792720 0.538513 0.685472 -0.327680
H125  H     H_    0.778174 0.597174 0.693050 0.238285
H126  H     H_    0.747947 0.509959 0.665160 0.237946
C107  C     C_3   0.807990 0.500622 0.742775 -0.917695
H127  H     H_    0.822092 0.441663 0.736256 0.260297
H128  H     H_    0.761097 0.502758 0.770130 0.283471
H129  H     H_    0.851279 0.529241 0.765105 0.251257
O32   O     O_3   0.156430 0.402007 0.590437 -0.588917
C108  C     C_3   0.144500 0.440240 0.642047 0.073970
H130  H     H_    0.099672 0.413027 0.663415 0.169877
H131  H     H_    0.129537 0.499441 0.635324 0.121064
C109  C     C_3   0.207945 0.434871 0.681838 -0.318201
H132  H     H_    0.224419 0.376045 0.686065 0.240521
H133  H     H_    0.251586 0.467479 0.663508 0.249621
C110  C     C_3   0.191982 0.464985 0.741006 -0.895302
H134  H     H_    0.176071 0.524032 0.737804 0.256828
H135  H     H_    0.239149 0.461047 0.768414 0.287921
H136  H     H_    0.149735 0.432249 0.761347 0.251792

loop_
_geom_bond_atom_site_label_1
_geom_bond_atom_site_label_2
_ccdc_geom_bond_type
C85   H75   S    
O24   H80   S    
O22   C84   S    
C108  H131  S    
C70   H40   S    
C78   H58   S    
Cu1   O1    S    
C53   C55   A    
C10   H2    S    
C58   H11   S    
C106  H126  S    
C72   H44   S    
C68   H36   S    
C67   H32   S    
C34   H8    S    
C93   H96   S    
C76   H53   S    
C58   C59   S    
C33   H7    S    
O17   C69   S    
C80   H63   S    
O25   C87   S    
C81   H65   S    
C90   C91   S    
C15   C19   A    
C96   H103  S    
C30   N6    A    
O29   C99   S    
O19   C75   S    
C17   C26   A    
C32   C36   A    
C77   H55   S    
C36   O16   S    
C96   H102  S    
O15   C63   S    
C64   H26   S    
C32   N8    A    
C100  H111  S    
C104  H122  S    
C87   H82   S    
C31   N7    A    
C85   C86   S    
C28   O6    A    
C61   H18   S    
C94   H98   S    
C99   H110  S    
O31   C105  S    
C101  H115  S    
C110  H136  S    
C7    C27   S    
C109  H133  S    
N3    N5    A    
C51   C56   A    
O23   H79   S    
C42   N11   A    
C16   O26   S    
C3    O21   S    
C24   C29   S    
C38   O18   S    
C60   H16   S    
C75   C76   S    
C88   H84   S    
O28   C96   S    
C75   H52   S    
C106  H125  S    
C65   H28   S    
C105  H123  S    
C49   C51   A    
C73   C74   S    
C101  H114  S    
C79   H61   S    
C45   N1    A    
C66   C67   S    
C50   C52   A    
C14   N1    S    
C37   O17   S    
C79   C80   S    
C74   H49   S    
C45   O11   S    
C110  H134  S    
C3    C13   A    
C81   C82   S    
Cu2   O2    S    
C47   C53   A    
C44   C52   A    
C99   C100  S    
C48   C50   A    
C85   H74   S    
C65   H27   S    
C74   H48   S    
C34   C38   A    
C98   H106  S    
C94   C95   S    
C108  C109  S    
C1    C25   S    
C78   H59   S    
C71   H43   S    
O14   C60   S    
C18   C25   A    
C95   H100  S    
C11   H3    S    
C69   C70   S    
C103  C104  S    
Cu2   O8    S    
N9    N12   A    
C91   H91   S    
C91   H90   S    
C76   H54   S    
C81   H66   S    
C63   H23   S    
C39   C42   S    
C46   C48   A    
C45   C47   A    
C105  H124  S    
C16   C26   A    
C54   C56   A    
C92   H94   S    
C97   C98   S    
C84   H72   S    
C23   C30   S    
C31   H5    S    
C36   C40   A    
C106  C107  S    
C2    O2    A    
N10   N11   A    
C32   H6    S    
C92   H92   S    
C47   C49   A    
Cu1   O5    S    
C22   O32   S    
C64   C65   S    
O13   C57   S    
C102  H117  S    
O32   C108  S    
C87   H81   S    
C103  H118  S    
C5    O23   S    
C6    C8    A    
C80   H64   S    
C99   H109  S    
C29   N4    A    
C107  H129  S    
C57   C58   S    
C33   C37   A    
C62   H22   S    
C9    H1    S    
C95   H101  S    
Cu1   N8    S    
C48   C54   A    
C86   H78   S    
C19   C23   A    
C82   H67   S    
C84   H73   S    
C43   N1    A    
C46   N2    A    
Cu2   O6    S    
C100  C101  S    
C4    O22   S    
C12   H4    S    
C97   H104  S    
C97   H105  S    
O27   C93   S    
C89   H87   S    
C16   C20   A    
C101  H113  S    
C56   O20   S    
C57   H10   S    
C88   H83   S    
C42   N9    A    
C109  H132  S    
C107  H127  S    
C60   H17   S    
O26   C90   S    
C74   H50   S    
C66   H31   S    
C9    C11   A    
C15   O25   S    
C10   C12   A    
C20   O30   S    
C53   O13   S    
C103  H119  S    
C40   C41   S    
C34   N8    A    
C86   H77   S    
C59   H13   S    
C59   H14   S    
C98   H107  S    
C66   H30   S    
C1    O1    A    
C27   O8    A    
C107  H128  S    
C44   N2    A    
C4    C6    A    
C95   H99   S    
C21   C24   A    
C83   H70   S    
C68   H34   S    
C67   C68   S    
C3    C5    A    
C72   C73   S    
C41   N12   A    
C30   N3    A    
C79   H60   S    
C21   O31   S    
C76   C77   S    
C100  H112  S    
O18   C72   S    
C33   N7    A    
C7    C9    A    
C58   H12   S    
O20   C78   S    
C109  C110  S    
C72   H45   S    
C18   C22   A    
C54   O14   S    
C77   H57   S    
C19   O29   S    
C12   C14   A    
O30   C102  S    
C68   H35   S    
C67   H33   S    
C2    C26   S    
C102  C103  S    
C63   H24   S    
C70   H39   S    
C65   H29   S    
C46   O12   S    
O21   C81   S    
C90   H89   S    
C59   H15   S    
C73   H46   S    
C82   C83   S    
C104  H120  S    
C43   O9    S    
C108  H130  S    
C17   O27   S    
Cu2   O4    S    
C90   H88   S    
C84   C85   S    
C5    C7    A    
C6    O24   S    
C37   C39   A    
C80   H62   S    
C44   O10   S    
C64   H25   S    
C41   N10   A    
C38   C40   A    
C52   C55   A    
C11   C13   A    
C87   C88   S    
C43   C51   A    
Cu1   Cu2   S    
C75   H51   S    
C61   H19   S    
C83   H71   S    
C105  C106  S    
C8    C28   S    
C35   C39   A    
C62   H21   S    
C31   C35   A    
C77   H56   S    
C57   H9    S    
C70   C71   S    
Cu1   O7    S    
C13   N2    S    
C35   O15   S    
C60   C61   S    
C73   H47   S    
C91   C92   S    
C92   H93   S    
C4    C14   A    
C86   H76   S    
Cu1   O3    S    
C17   C21   A    
C28   O7    A    
C63   C64   S    
C15   C25   A    
C1    O4    A    
C89   H86   S    
C93   H95   S    
C27   O5    A    
C96   C97   S    
C18   O28   S    
C55   O19   S    
C89   H85   S    
C82   H68   S    
C8    C10   A    
C49   C50   A    
C98   H108  S    
C69   H38   S    
C94   H97   S    
C71   H41   S    
C102  H116  S    
C22   C23   A    
C110  H135  S    
C2    O3    A    
N4    N6    A    
C78   C79   S    
C83   H69   S    
C62   H20   S    
C88   C89   S    
C20   C24   A    
C93   C94   S    
C71   H42   S    
C69   H37   S    
C104  H121  S    
Cu2   N7    S    
O16   C66   S    
C29   N5    A    
C61   C62   S    
