data_mof_unit_16481.cif
_audit_creation_date              2012-12-11T14:45:33-0500
_audit_creation_method            fapswitch 2.2
_symmetry_space_group_name_H-M    P1
_symmetry_Int_Tables_number       1
_space_group_crystal_system       triclinic
_cell_length_a                    24.541431
_cell_length_b                    7.163202
_cell_length_c                    14.567181
_cell_angle_alpha                 90.001975
_cell_angle_beta                  101.805976
_cell_angle_gamma                 90.001653
_cell_volume                      2506.66900724

loop_
_atom_site_label
_atom_site_type_symbol
_atom_type_description
_atom_site_fract_x
_atom_site_fract_y
_atom_site_fract_z
_atom_type_partial_charge
O1    O     O_R   0.319150 0.364170 0.330530 -0.550746
O2    O     O_R   0.680850 0.635830 0.669470 -0.548629
O3    O     O_R   0.180850 0.864170 0.169470 -0.550762
O4    O     O_R   0.819150 0.135830 0.830530 -0.548652
O5    O     O_R   0.210330 0.696850 0.354180 -0.540682
O6    O     O_R   0.789670 0.303150 0.645820 -0.539642
O7    O     O_R   0.289670 0.196850 0.145820 -0.540686
O8    O     O_R   0.710330 0.803150 0.854180 -0.539653
C1    C     C_R   0.196886 0.525148 0.378117 0.669782
C2    C     C_R   0.802705 0.475271 0.621121 0.661993
C3    C     C_R   0.303112 0.025146 0.121882 0.669791
C4    C     C_R   0.697295 0.975271 0.878878 0.662032
O9    O     O_R   0.320550 0.694110 0.341970 -0.506431
O10   O     O_R   0.679450 0.305890 0.658030 -0.505729
O11   O     O_R   0.179450 0.194110 0.158030 -0.506398
O12   O     O_R   0.820550 0.805890 0.841970 -0.505705
O13   O     O_R   0.291860 0.861000 0.157170 -0.535557
O14   O     O_R   0.708140 0.139000 0.842830 -0.534921
O15   O     O_R   0.208140 0.361000 0.342830 -0.535574
O16   O     O_R   0.791860 0.639000 0.657170 -0.534936
C5    C     C_R   0.341782 0.524098 0.362377 0.734938
C6    C     C_R   0.658645 0.476161 0.636342 0.724576
C7    C     C_R   0.158219 0.024088 0.137621 0.734894
C8    C     C_R   0.841356 0.976170 0.863656 0.724544
O17   O     O_3   0.240460 0.529330 0.189380 -0.377563
O18   O     O_3   0.759540 0.470670 0.810620 -0.374982
O19   O     O_3   0.259540 0.029330 0.310620 -0.377576
O20   O     O_3   0.740460 0.970670 0.689380 -0.374979
V1    V     V_3+5 0.251770 0.805510 0.261240 1.534570
V2    V     V_3+5 0.748230 0.194490 0.738760 1.533016
V3    V     V_3+5 0.248230 0.305510 0.238760 1.534570
V4    V     V_3+5 0.751770 0.694490 0.761240 1.533014
C9    C     C_R   0.102907 0.002675 0.074754 -0.163602
C10   C     C_R   0.895960 0.997808 0.928846 -0.167982
C11   C     C_R   0.397091 0.502718 0.425252 -0.163568
C12   C     C_R   0.604044 0.497769 0.571142 -0.167914
C13   C     C_R   0.960229 0.205860 0.031130 -0.021399
C14   C     C_R   0.038195 0.793287 0.974659 -0.047095
C15   C     C_R   0.539801 0.705709 0.468759 -0.021364
C16   C     C_R   0.461777 0.293443 0.525450 -0.047227
C17   C     C_R   0.906809 0.163617 0.981529 -0.190069
C18   C     C_R   0.091871 0.837463 0.021798 -0.197710
C19   C     C_R   0.593215 0.663478 0.518382 -0.190196
C20   C     C_R   0.408106 0.337612 0.478290 -0.197804
C21   C     C_R   0.939453 0.870090 0.930082 0.590345
C22   C     C_R   0.059062 0.127994 0.076668 0.625376
C23   C     C_R   0.560533 0.370138 0.569969 0.590310
C24   C     C_R   0.440955 0.627938 0.423266 0.625442
C25   C     C_R   0.993917 0.914362 0.977907 -0.046954
C26   C     C_R   0.004546 0.084232 0.028569 -0.019742
C27   C     C_R   0.506073 0.414413 0.522132 -0.046954
C28   C     C_R   0.495466 0.584181 0.471384 -0.019648
H1    H     H_    0.124875 0.738469 0.018964 0.182263
H2    H     H_    0.873883 0.263863 0.982613 0.179704
H3    H     H_    0.375087 0.238701 0.481175 0.182199
H4    H     H_    0.626156 0.763651 0.517252 0.179662
H5    H     H_    0.966883 0.335933 0.069765 0.200074
H6    H     H_    0.031504 0.662841 0.936662 0.234136
H7    H     H_    0.533163 0.835700 0.430056 0.200011
H8    H     H_    0.468451 0.163083 0.563521 0.234122
C29   C     C_R   0.667027 0.992412 0.956163 -0.107699
C30   C     C_R   0.333449 0.017126 0.044801 -0.100577
C31   C     C_R   0.832968 0.492426 0.543829 -0.107609
C32   C     C_R   0.166547 0.517134 0.455195 -0.100595
C33   C     C_R   0.658983 0.134717 0.104797 -0.032822
C34   C     C_R   0.336726 0.013039 0.878680 -0.040227
C35   C     C_R   0.841005 0.634925 0.395234 -0.032690
C36   C     C_R   0.163264 0.513095 0.621315 -0.040230
C37   C     C_R   0.692613 0.074442 0.041906 -0.102473
C38   C     C_R   0.305276 0.009243 0.950483 -0.125083
C39   C     C_R   0.807379 0.574543 0.458113 -0.102360
C40   C     C_R   0.194717 0.509278 0.549516 -0.125059
C41   C     C_R   0.609597 0.966610 0.934979 -0.172204
C42   C     C_R   0.391101 0.035884 0.067234 -0.176095
C43   C     C_R   0.890398 0.466654 0.565005 -0.172175
C44   C     C_R   0.108895 0.535875 0.432759 -0.176122
C45   C     C_R   0.574455 0.052385 0.988188 0.027531
C46   C     C_R   0.422773 0.059648 0.997670 0.014118
C47   C     C_R   0.925537 0.552461 0.511799 0.027387
C48   C     C_R   0.077220 0.559679 0.502318 0.014162
C49   C     C_R   0.599481 0.127603 0.077268 -0.070866
C50   C     C_R   0.396186 0.029730 0.902794 -0.051076
C51   C     C_R   0.900509 0.627695 0.422727 -0.070663
C52   C     C_R   0.103804 0.529801 0.597198 -0.051106
C53   C     C_R   0.515027 0.059644 0.956049 -0.091862
C54   C     C_R   0.481091 0.101017 0.021691 -0.092066
C55   C     C_R   0.984964 0.559719 0.543935 -0.091888
C56   C     C_R   0.018902 0.601046 0.478290 -0.092076
C57   C     C_R   0.506190 0.190823 0.107205 -0.129625
C58   C     C_R   0.488020 0.035064 0.860237 -0.164452
C59   C     C_R   0.993803 0.690771 0.392758 -0.129729
C60   C     C_R   0.011969 0.535190 0.639750 -0.164426
C61   C     C_R   0.564428 0.197762 0.135131 0.622831
C62   C     C_R   0.429875 0.016495 0.835267 0.631213
C63   C     C_R   0.935566 0.697692 0.364828 0.623188
C64   C     C_R   0.070113 0.516618 0.664724 0.631215
H9    H     H_    0.411031 0.030214 0.140646 0.144293
H10   H     H_    0.593076 0.883378 0.873927 0.126924
H11   H     H_    0.088966 0.530160 0.359346 0.144279
H12   H     H_    0.906925 0.383417 0.626049 0.126912
F1    F     F_    0.068746 0.286505 0.128792 -0.686304
F2    F     F_    0.929345 0.707716 0.881542 -0.690364
F3    F     F_    0.431289 0.786334 0.371055 -0.686287
F4    F     F_    0.570623 0.207851 0.618581 -0.690432
F5    F     F_    0.586246 0.280283 0.218468 -0.626048
F6    F     F_    0.406995 0.982265 0.743776 -0.629665
F7    F     F_    0.913755 0.779914 0.281415 -0.625875
F8    F     F_    0.092991 0.482443 0.756220 -0.629648
C65   C     C_2   0.243103 0.997591 0.929434 0.423706
H13   H     H_    0.221585 0.937490 0.980433 0.033244
O21   O     O_2   0.215064 0.059975 0.856980 -0.513237
C66   C     C_2   0.754628 0.093532 0.063684 0.436753
H14   H     H_    0.779752 0.004190 0.028711 0.025148
O22   O     O_2   0.778333 0.211231 0.118168 -0.507298
C67   C     C_2   0.256889 0.497626 0.570570 0.423678
H15   H     H_    0.278407 0.437515 0.519573 0.033224
O23   O     O_2   0.284928 0.560022 0.643025 -0.513239
C68   C     C_2   0.745365 0.593674 0.436367 0.436417
H16   H     H_    0.720241 0.504212 0.471278 0.025337
O24   O     O_2   0.721665 0.711536 0.381986 -0.507756
C69   C     C_2   0.686951 0.203463 0.198468 0.642053
H17   H     H_    0.706645 0.105124 0.251664 0.077639
O25   O     O_2   0.690122 0.370730 0.214887 -0.484886
C70   C     C_2   0.306473 0.001413 0.779692 0.625691
H18   H     H_    0.279273 0.883757 0.756658 0.097508
O26   O     O_2   0.309279 0.128514 0.724992 -0.494204
C71   C     C_2   0.813020 0.704057 0.301649 0.641591
H19   H     H_    0.793068 0.606008 0.248501 0.077939
O27   O     O_2   0.810085 0.871366 0.285282 -0.484774
C72   C     C_2   0.193514 0.501462 0.720304 0.625675
H20   H     H_    0.220701 0.383783 0.743337 0.097453
O28   O     O_2   0.190721 0.628581 0.775004 -0.494186
C73   C     C_2   0.472672 0.308158 0.159795 0.497671
H21   H     H_    0.433857 0.369796 0.123264 0.023222
O29   O     O_2   0.487513 0.336139 0.243920 -0.473022
C74   C     C_2   0.517870 0.061275 0.782330 0.509047
H22   H     H_    0.550787 0.164570 0.788706 0.070141
O30   O     O_2   0.507277 0.964040 0.712071 -0.467663
C75   C     C_2   0.027322 0.808054 0.340145 0.497634
H23   H     H_    0.066135 0.869732 0.376667 0.023197
O31   O     O_2   0.012483 0.835949 0.256013 -0.472997
C76   C     C_2   0.982115 0.561446 0.717653 0.509101
H24   H     H_    0.949190 0.664709 0.711259 0.069946
O32   O     O_2   0.992716 0.464284 0.787932 -0.467663

loop_
_geom_bond_atom_site_label_1
_geom_bond_atom_site_label_2
_ccdc_geom_bond_type
O17   V3    S    
C55   C56   A    
O1    C5    A    
C16   H8    S    
O19   V1    S    
C1    C32   S    
O13   V1    S    
O3    C7    A    
C2    C31   S    
C60   C64   A    
C48   C52   A    
C3    C30   S    
O15   V3    S    
C66   O22   D    
O4    V2    S    
C14   C25   A    
C53   C54   A    
C44   H11   S    
O7    C3    A    
C40   C67   S    
C50   C62   A    
C9    C18   A    
O9    V1    S    
C14   C18   A    
C65   O21   D    
C18   H1    S    
O4    C8    A    
C37   C66   S    
C67   H15   S    
O1    V3    S    
C58   C74   S    
C30   C38   A    
C12   C23   A    
O2    V4    S    
C52   C64   A    
O3    V1    S    
C68   H16   S    
C61   F5    S    
C14   H6    S    
C1    O15   A    
C62   F6    S    
C2    O16   A    
C67   O23   D    
O2    C6    A    
O14   V2    S    
C33   C69   S    
C60   C76   S    
C16   C20   A    
C35   C39   A    
C36   C40   A    
C46   C54   A    
O11   C7    A    
C15   C28   A    
C64   F8    S    
C45   C53   A    
O12   C8    A    
C55   C60   A    
C57   C61   A    
C9    C22   A    
C10   C17   A    
O10   V2    S    
C11   C24   A    
C47   C55   A    
C66   H14   S    
C58   C62   A    
C42   H9    S    
O5    V1    S    
C41   H10   S    
C22   F1    S    
O7    V3    S    
C27   C28   A    
C36   C52   A    
C57   C73   S    
C74   O30   D    
O18   V4    S    
C15   C19   A    
C29   C41   A    
C24   F3    S    
C8    C10   S    
O8    V4    S    
C72   O28   D    
C71   O27   D    
O5    C1    A    
C38   C65   S    
C35   C71   S    
C34   C50   A    
C49   C61   A    
C46   C50   A    
C33   C49   A    
C56   C59   A    
C21   C25   A    
O8    C4    A    
C15   H7    S    
C32   C44   A    
O9    C5    A    
C10   C21   A    
C51   C63   A    
C36   C72   S    
C11   C20   A    
C69   H17   S    
C63   F7    S    
C59   C75   S    
O6    V2    S    
C31   C39   A    
C73   H21   S    
C34   C70   S    
C71   H19   S    
C35   C51   A    
C75   H23   S    
C70   O26   D    
O16   V4    S    
C29   C37   A    
C3    O13   A    
C23   F4    S    
C39   C68   S    
C44   C48   A    
C74   H22   S    
C54   C57   A    
O6    C2    A    
C7    C9    S    
C23   C27   A    
C53   C58   A    
O11   V3    S    
C5    C11   S    
O12   V4    S    
C16   C27   A    
C6    C12   S    
C22   C26   A    
O10   C6    A    
O20   V2    S    
C72   H20   S    
C48   C56   A    
C65   H13   S    
C47   C51   A    
C4    C29   S    
C75   O31   D    
C20   H3    S    
C34   C38   A    
C31   C43   A    
C33   C37   A    
C13   C26   A    
C43   H12   S    
C76   O32   D    
C32   C40   A    
C13   C17   A    
C45   C49   A    
C68   O24   D    
C17   H2    S    
C69   O25   D    
C21   F2    S    
C59   C63   A    
C19   H4    S    
C24   C28   A    
C25   C26   A    
C42   C46   A    
C4    O14   A    
C73   O29   D    
C41   C45   A    
C76   H24   S    
C30   C42   A    
C12   C19   A    
C43   C47   A    
C13   H5    S    
C70   H18   S    
