data_mof_unit_59245.cif
_audit_creation_date              2012-12-10T17:43:35-0500
_audit_creation_method            fapswitch 2.2
_symmetry_space_group_name_H-M    P1
_symmetry_Int_Tables_number       1
_space_group_crystal_system       triclinic
_cell_length_a                    15.000168
_cell_length_b                    10.6282
_cell_length_c                    9.912703
_cell_angle_alpha                 89.922254
_cell_angle_beta                  89.953146
_cell_angle_gamma                 91.683905
_cell_volume                      1579.64605514

loop_
_atom_site_label
_atom_site_type_symbol
_atom_type_description
_atom_site_fract_x
_atom_site_fract_y
_atom_site_fract_z
_atom_type_partial_charge
C1    C     C_R   0.502346 0.260729 0.500105 0.852349
C2    C     C_R   0.184873 0.492569 0.377161 -0.268540
C3    C     C_R   0.230647 0.493688 0.500095 -0.074604
C4    C     C_R   0.326685 0.498474 0.500061 0.879274
C5    C     C_R   0.184683 0.489565 0.622973 -0.264564
C6    C     C_R   0.651894 0.137319 0.624232 -0.173099
C7    C     C_R   0.721881 0.074477 0.684361 -0.131508
C8    C     C_R   0.721966 0.943541 0.684196 -0.137707
C9    C     C_R   0.652099 0.874992 0.623804 -0.189447
C10   C     C_R   0.580036 0.937291 0.563686 0.094530
C11   C     C_R   0.579908 0.069207 0.563937 0.097874
C12   C     C_R   0.906945 0.488251 0.623796 0.121461
C13   C     C_R   0.508466 0.128688 0.499905 -0.086147
C14   C     C_R   0.441080 0.061887 0.432456 -0.215268
C15   C     C_R   0.441226 0.933352 0.432196 -0.198188
C16   C     C_R   0.502648 0.739452 0.499878 0.874404
C17   C     C_R   0.508745 0.872015 0.499393 -0.100220
C18   C     C_R   0.382356 0.335973 0.140424 -0.161191
C19   C     C_R   0.324068 0.255640 0.070406 -0.202869
C20   C     C_R   0.324070 0.255614 0.930761 -0.194646
C21   C     C_R   0.382393 0.335879 0.860319 -0.157870
C22   C     C_R   0.442010 0.419170 0.927875 0.168282
C23   C     C_R   0.953717 0.491788 0.253636 -0.220397
C24   C     C_R   0.442007 0.419224 0.072475 0.171851
C25   C     C_R   0.555585 0.577161 0.071306 -0.116463
C26   C     C_R   0.555563 0.577138 0.928179 -0.116267
C27   C     C_R   0.673297 0.499525 0.499951 0.865023
C28   C     C_R   0.814828 0.491587 0.622857 -0.279792
C29   C     C_R   0.769188 0.495715 0.499963 -0.073298
C30   C     C_R   0.815091 0.494938 0.377080 -0.251539
C31   C     C_R   0.907198 0.491528 0.376153 0.117275
C32   C     C_R   0.953413 0.488835 0.499983 0.061574
C33   C     C_R   0.046320 0.491003 0.253655 -0.219049
C34   C     C_R   0.092642 0.490096 0.376193 0.119326
C35   C     C_R   0.046155 0.488150 0.500008 0.060346
C36   C     C_R   0.092426 0.487002 0.623854 0.118932
C37   C     C_R   0.045855 0.484752 0.746341 -0.219251
C38   C     C_R   0.953235 0.485387 0.746310 -0.226432
H1    H     H_    0.778919 0.491474 0.717878 0.162104
H2    H     H_    0.278766 0.192764 0.876479 0.152259
H3    H     H_    0.378838 0.329712 0.753346 0.203904
H4    H     H_    0.779390 0.497556 0.282054 0.162084
H5    H     H_    0.600955 0.640207 0.874212 0.143780
H6    H     H_    0.918569 0.493464 0.158176 0.140730
H7    H     H_    0.081669 0.492115 0.158214 0.144151
H8    H     H_    0.220790 0.494699 0.282123 0.167494
H9    H     H_    0.220468 0.489299 0.718015 0.167061
H10   H     H_    0.081025 0.483492 0.841803 0.144487
H11   H     H_    0.917895 0.484570 0.841750 0.140915
H12   H     H_    0.655642 0.238999 0.623810 0.153712
H13   H     H_    0.387307 0.109534 0.382430 0.139255
H14   H     H_    0.776637 0.127596 0.730008 0.139886
H15   H     H_    0.776778 0.894912 0.729748 0.137539
H16   H     H_    0.655999 0.773573 0.622959 0.142994
H17   H     H_    0.387535 0.881298 0.382061 0.154122
H18   H     H_    0.601011 0.640218 0.124890 0.146809
H19   H     H_    0.378724 0.329866 0.247389 0.199269
H20   H     H_    0.278786 0.192790 0.125033 0.148571
N1    N     N_R   0.499150 0.498800 0.142780 -0.122525
N2    N     N_R   0.499120 0.498720 0.857170 -0.122141
O1    O     O_R   0.500000 0.316780 0.614690 -0.640883
O2    O     O_R   0.499990 0.316750 0.385360 -0.628927
O3    O     O_R   0.367850 0.499980 0.614680 -0.640094
O4    O     O_R   0.367840 0.499960 0.385350 -0.644785
O5    O     O_R   0.500010 0.683250 0.614640 -0.614156
O6    O     O_R   0.500000 0.683220 0.385310 -0.611317
O7    O     O_R   0.632160 0.500040 0.614650 -0.639025
O8    O     O_R   0.632150 0.500020 0.385320 -0.619869
Zn1   Zn    Zn3+2 0.500010 0.500020 0.653130 0.930356
Zn2   Zn    Zn3+2 0.499990 0.499980 0.346870 0.938098

loop_
_geom_bond_atom_site_label_1
_geom_bond_atom_site_label_2
_ccdc_geom_bond_type
C8    H15   S    
C26   H5    S    
C1    C13   S    
C5    C36   A    
C6    C7    A    
C16   O5    A    
O4    Zn2   S    
C27   C29   S    
C29   C30   A    
C33   H7    S    
C9    C10   A    
C4    O4    A    
C18   H19   S    
C14   H13   S    
C25   H18   S    
O7    Zn1   S    
C1    O2    A    
C2    C34   A    
C33   C34   A    
C3    C5    A    
C7    C8    A    
C38   H11   S    
C21   C22   A    
C6    H12   S    
C37   H10   S    
C12   C38   A    
C5    H9    S    
C4    O3    A    
O6    Zn2   S    
C16   O6    A    
N2    Zn1   S    
C12   C28   A    
C24   N1    A    
C21   H3    S    
N1    Zn2   S    
C28   C29   A    
C9    H16   S    
C37   C38   A    
C7    H14   S    
C2    C3    A    
C2    H8    S    
C19   H20   S    
C22   N2    A    
C30   C31   A    
C20   H2    S    
C22   C24   A    
C23   C31   A    
C12   C32   A    
C10   C11   A    
C10   C17   A    
C3    C4    S    
C32   C35   A    
O3    Zn1   S    
C11   C13   A    
C27   O7    A    
C20   C21   A    
O2    Zn2   S    
C18   C24   A    
O8    Zn2   S    
C34   C35   A    
O1    Zn1   S    
C6    C11   A    
C15   C17   A    
C18   C19   A    
C14   C15   A    
C36   C37   A    
C27   O8    A    
C25   N1    A    
C28   H1    S    
O5    Zn1   S    
C25   C26   A    
C13   C14   A    
C26   N2    A    
C31   C32   A    
C30   H4    S    
C23   H6    S    
C19   C20   A    
C16   C17   S    
C1    O1    A    
C8    C9    A    
C23   C33   A    
C35   C36   A    
C15   H17   S    
