data_mof_unit_15141.cif
_audit_creation_date              2012-12-10T17:24:14-0500
_audit_creation_method            fapswitch 2.2
_symmetry_space_group_name_H-M    P1
_symmetry_Int_Tables_number       1
_space_group_crystal_system       triclinic
_cell_length_a                    19.33132
_cell_length_b                    10.779975
_cell_length_c                    9.607519
_cell_angle_alpha                 90.1751
_cell_angle_beta                  89.916047
_cell_angle_gamma                 92.695088
_cell_volume                      1999.89628073

loop_
_atom_site_label
_atom_site_type_symbol
_atom_type_description
_atom_site_fract_x
_atom_site_fract_y
_atom_site_fract_z
_atom_type_partial_charge
C1    C     C_R   0.498338 0.262638 0.499825 0.869172
C2    C     C_R   0.291601 0.501959 0.500601 -0.047041
C3    C     C_R   0.930496 0.525297 0.495747 0.400007
C4    C     C_R   0.070290 0.513405 0.499759 0.405014
C5    C     C_R   0.818297 0.509528 0.620458 -0.176035
C6    C     C_R   0.746185 0.500904 0.622499 -0.152950
C7    C     C_R   0.708698 0.510114 0.498520 -0.114235
C8    C     C_R   0.744449 0.531549 0.372998 -0.166174
C9    C     C_R   0.816569 0.544568 0.370068 0.430581
C10   C     C_R   0.854400 0.529023 0.494816 -0.058498
C11   C     C_R   0.385194 0.120295 0.632904 -0.206567
C12   C     C_R   0.367559 0.499955 0.500173 0.759824
C13   C     C_R   0.331661 0.051650 0.698323 -0.233957
C14   C     C_R   0.331227 0.921577 0.699348 0.469221
C15   C     C_R   0.385039 0.861616 0.634386 -0.149202
C16   C     C_R   0.440350 0.929718 0.569182 0.011201
C17   C     C_R   0.440517 0.060691 0.568399 0.021094
C18   C     C_R   0.494924 0.128277 0.499224 -0.122719
C19   C     C_R   0.546896 0.067591 0.427504 0.414105
C20   C     C_R   0.545964 0.938457 0.428474 -0.276126
C21   C     C_R   0.494412 0.870383 0.500432 -0.098658
C22   C     C_R   0.592112 0.664979 0.144042 -0.183998
C23   C     C_R   0.498335 0.737024 0.500177 0.783483
C24   C     C_R   0.637283 0.745743 0.072458 -0.303717
C25   C     C_R   0.637578 0.746420 0.927854 0.421660
C26   C     C_R   0.592090 0.665329 0.856459 -0.129380
C27   C     C_R   0.545226 0.581253 0.925476 0.111424
C28   C     C_R   0.545235 0.581136 0.074788 0.137226
C29   C     C_R   0.456592 0.422143 0.074366 0.517733
C30   C     C_R   0.456921 0.422746 0.925437 -0.145269
C31   C     C_R   0.632512 0.502027 0.499773 0.813401
C32   C     C_R   0.255950 0.529543 0.623446 -0.158516
C33   C     C_R   0.183979 0.533450 0.623285 -0.126637
C34   C     C_R   0.146360 0.508777 0.500532 0.048352
C35   C     C_R   0.182123 0.480353 0.377954 -0.155416
C36   C     C_R   0.254098 0.477490 0.377868 -0.165119
Cu1   Cu    Cu3+1 0.500000 0.499990 0.640660 0.944153
Cu2   Cu    Cu3+1 0.500000 0.500010 0.359340 1.010162
H1    H     H_    0.283672 0.549419 0.719449 0.171244
H2    H     H_    0.381867 0.220108 0.631622 0.151103
H3    H     H_    0.382111 0.761247 0.633845 0.159374
H4    H     H_    0.596489 0.672479 0.253744 0.204584
H5    H     H_    0.595955 0.672574 0.746694 0.212543
H6    H     H_    0.421927 0.359936 0.868490 0.131516
H7    H     H_    0.154624 0.461271 0.281566 0.159175
N1    N     N_R   0.033188 0.472086 0.387701 -0.231731
N2    N     N_R   0.964623 0.477328 0.386035 -0.201610
N3    N     N_R   0.967421 0.565091 0.608702 -0.219129
N4    N     N_R   0.036031 0.559490 0.610534 -0.229155
N5    N     N_R   0.500660 0.501210 0.147910 -0.198545
N6    N     N_R   0.500680 0.501290 0.852040 -0.199179
O1    O     O_R   0.499990 0.319640 0.618810 -0.591796
O2    O     O_R   0.500000 0.319660 0.381240 -0.490574
O3    O     O_R   0.400140 0.499970 0.618820 -0.600275
O4    O     O_R   0.400150 0.500000 0.381250 -0.534958
O5    O     O_R   0.500000 0.680340 0.618760 -0.600790
O6    O     O_R   0.500010 0.680360 0.381190 -0.596578
O7    O     O_R   0.599850 0.500000 0.618750 -0.597746
O8    O     O_R   0.599860 0.500030 0.381180 -0.594287
H8    H     H_    0.290087 0.100132 0.746795 0.134529
O9    O     O_3   0.278660 0.850393 0.761241 -0.739086
H9    H     H_    0.244654 0.906335 0.801919 0.324654
H10   H     H_    0.586507 0.890577 0.375363 0.128992
O10   O     O_3   0.412149 0.342305 0.147128 -0.705170
H11   H     H_    0.383825 0.291719 0.080058 0.291323
H12   H     H_    0.672199 0.808018 0.130566 0.150029
O11   O     O_3   0.681694 0.825207 0.852601 -0.722297
H13   H     H_    0.710527 0.876511 0.918222 0.335278
H14   H     H_    0.157887 0.555480 0.719423 0.161846
H15   H     H_    0.280303 0.455648 0.281755 0.174595
H16   H     H_    0.845949 0.497906 0.717186 0.181451
H17   H     H_    0.719878 0.485327 0.720966 0.174751
H18   H     H_    0.716379 0.542156 0.276579 0.177787
O12   O     O_3   0.847421 0.574919 0.244386 -0.713373
H19   H     H_    0.891406 0.622831 0.262801 0.335141
O13   O     O_3   0.598901 0.136691 0.360248 -0.717300
H20   H     H_    0.631069 0.079744 0.315267 0.326063

loop_
_geom_bond_atom_site_label_1
_geom_bond_atom_site_label_2
_ccdc_geom_bond_type
C30   N6    A    
C16   C21   A    
C35   C36   A    
C25   O11   S    
C2    C12   S    
C7    C8    A    
C13   H8    S    
C4    N1    A    
C6    H17   S    
C1    C18   S    
Cu1   Cu2   S    
C31   O7    A    
C19   O13   S    
C34   C35   A    
C5    C6    A    
Cu1   N6    S    
C15   C16   A    
C3    N3    A    
C2    C32   A    
C18   C19   A    
C32   H1    S    
C31   O8    A    
C1    O2    A    
Cu1   O5    S    
C28   N5    A    
Cu2   O4    S    
C19   C20   A    
C27   N6    A    
C8    C9    A    
C9    C10   A    
Cu1   O7    S    
C33   H14   S    
C29   O10   S    
C22   C28   A    
C13   C14   A    
C30   H6    S    
C11   H2    S    
C36   H15   S    
C26   H5    S    
C33   C34   A    
C29   N5    A    
C4    C34   S    
C7    C31   S    
O12   H19   S    
O11   H13   S    
C23   O5    A    
O13   H20   S    
C15   H3    S    
Cu1   O1    S    
C16   C17   A    
C25   C26   A    
C14   O9    S    
C29   C30   A    
Cu2   O6    S    
C17   C18   A    
C26   C27   A    
C24   C25   A    
Cu1   O3    S    
N3    N4    A    
C21   C23   S    
C22   C24   A    
C9    O12   S    
C35   H7    S    
C2    C36   A    
C23   O6    A    
N1    N2    A    
C11   C17   A    
C6    C7    A    
Cu2   N5    S    
C24   H12   S    
C4    N4    A    
C32   C33   A    
C20   H10   S    
C5    C10   A    
C5    H16   S    
C3    C10   S    
O10   H11   S    
C11   C13   A    
C22   H4    S    
Cu2   O2    S    
C3    N2    A    
C8    H18   S    
O9    H9    S    
C1    O1    A    
C12   O4    A    
Cu2   O8    S    
C20   C21   A    
C27   C28   A    
C14   C15   A    
C12   O3    A    
