data_mof_unit_8655.cif
_audit_creation_date              2012-12-10T19:16:29-0500
_audit_creation_method            fapswitch 2.2
_symmetry_space_group_name_H-M    P1
_symmetry_Int_Tables_number       1
_space_group_crystal_system       triclinic
_cell_length_a                    10.620173
_cell_length_b                    9.681274
_cell_length_c                    27.734178
_cell_angle_alpha                 90.254079
_cell_angle_beta                  89.906745
_cell_angle_gamma                 90.007758
_cell_volume                      2851.50772605

loop_
_atom_site_label
_atom_site_type_symbol
_atom_type_description
_atom_site_fract_x
_atom_site_fract_y
_atom_site_fract_z
_atom_type_partial_charge
C1    C     C_R   0.257574 0.500275 0.499939 0.847527
C2    C     C_R   0.396855 0.498280 0.975023 0.046442
C3    C     C_R   0.628869 0.482851 0.973829 0.055384
C4    C     C_R   0.500469 0.499608 0.405931 0.877633
C5    C     C_R   0.512138 0.493017 0.949207 0.067372
C6    C     C_R   0.283875 0.518833 0.949037 -0.215193
C7    C     C_R   0.283638 0.525739 0.899135 -0.136598
C8    C     C_R   0.395875 0.513156 0.873320 -0.020327
C9    C     C_R   0.510544 0.497405 0.898163 -0.052071
C10   C     C_R   0.623529 0.485593 0.871839 -0.020907
C11   C     C_R   0.619631 0.488314 0.821450 0.503669
C12   C     C_R   0.504505 0.368857 0.278427 -0.094633
C13   C     C_R   0.396385 0.516185 0.822915 0.503246
C14   C     C_R   0.514068 0.377354 0.722052 -0.103896
C15   C     C_R   0.511909 0.376348 0.671988 -0.225706
C16   C     C_R   0.742654 0.500286 0.499905 0.847191
C17   C     C_R   0.492153 0.626557 0.672055 -0.226517
C18   C     C_R   0.493885 0.627094 0.722140 -0.101274
C19   C     C_R   0.505077 0.502599 0.747028 0.327656
C20   C     C_R   0.398055 0.484559 0.025800 0.051300
C21   C     C_R   0.514950 0.483822 0.050735 0.072079
C22   C     C_R   0.630289 0.486480 0.025011 0.050278
C23   C     C_R   0.510309 0.492761 0.252973 0.323003
C24   C     C_R   0.285676 0.470007 0.052592 -0.219339
C25   C     C_R   0.746071 0.486902 0.101535 0.001201
C26   C     C_R   0.740287 0.468178 0.946133 -0.212671
C27   C     C_R   0.737360 0.469808 0.896169 -0.139378
C28   C     C_R   0.500149 0.500302 0.594032 0.878619
C29   C     C_R   0.743776 0.491516 0.051349 -0.286331
C30   C     C_3   0.071579 0.652249 0.499292 -0.398172
C31   C     C_3   0.072127 0.428298 0.545797 -0.398221
C32   C     C_3   0.928688 0.652258 0.499251 -0.397649
C33   C     C_3   0.927642 0.428360 0.545796 -0.398154
C34   C     C_R   0.515999 0.481532 0.101872 -0.069623
C35   C     C_3   0.072572 0.424401 0.454469 -0.396668
C36   C     C_3   0.121322 0.501258 0.499871 0.176716
C37   C     C_3   0.878903 0.501275 0.499851 0.176630
C38   C     C_3   0.928061 0.424369 0.454466 -0.396483
C39   C     C_3   0.384800 0.081084 0.475781 -0.234042
C40   C     C_3   0.384787 0.918344 0.475793 -0.233616
C41   C     C_3   0.609595 0.081074 0.472261 -0.233622
C42   C     C_3   0.609618 0.918329 0.472277 -0.233242
C43   C     C_3   0.504875 0.081819 0.548608 -0.231030
C44   C     C_3   0.504853 0.919339 0.548607 -0.232223
C45   C     C_R   0.400995 0.474108 0.127344 -0.014608
C46   C     C_R   0.401862 0.475453 0.177589 0.504162
C47   C     C_R   0.625440 0.499421 0.178352 0.529726
C48   C     C_R   0.512259 0.619402 0.277337 -0.097617
C49   C     C_R   0.508483 0.622167 0.327445 -0.223447
C50   C     C_R   0.500851 0.371173 0.328438 -0.221331
C51   C     C_2   0.872189 0.473272 0.123893 0.517583
C52   C     C_R   0.287369 0.465155 0.102388 -0.129454
C53   C     C_R   0.631182 0.487530 0.127605 -0.051331
C54   C     C_R   0.502845 0.497897 0.353295 -0.046587
C55   C     C_R   0.501166 0.501063 0.646666 -0.044468
H1    H     H_    0.496536 0.273938 0.347543 0.151539
H2    H     H_    0.105761 0.710032 0.531548 0.171476
H3    H     H_    0.107305 0.482378 0.578633 0.166155
H4    H     H_    0.894117 0.710159 0.531461 0.172029
H5    H     H_    0.892228 0.482534 0.578618 0.166325
H6    H     H_    0.502783 0.271035 0.259345 0.137252
H7    H     H_    0.894480 0.707077 0.466551 0.170653
H8    H     H_    0.892944 0.319900 0.547162 0.171710
H9    H     H_    0.108029 0.475722 0.421261 0.167658
H10   H     H_    0.107203 0.315842 0.453903 0.170920
H11   H     H_    0.892890 0.475615 0.421244 0.167942
H12   H     H_    0.516434 0.715202 0.257392 0.136218
H13   H     H_    0.893451 0.315795 0.453920 0.170874
H14   H     H_    0.377489 0.119466 0.438140 0.146069
H15   H     H_    0.377376 0.878953 0.438164 0.147137
H16   H     H_    0.299521 0.118906 0.495043 0.145486
H17   H     H_    0.299553 0.881128 0.495098 0.144570
H18   H     H_    0.609129 0.119336 0.434500 0.146747
H19   H     H_    0.609265 0.879054 0.434525 0.146957
H20   H     H_    0.590739 0.120452 0.567233 0.145074
H21   H     H_    0.590670 0.881109 0.567240 0.146286
H22   H     H_    0.423020 0.120270 0.569850 0.147174
H23   H     H_    0.831770 0.451682 0.961699 0.140762
H24   H     H_    0.422976 0.881368 0.569829 0.145072
H25   H     H_    0.698549 0.119016 0.488752 0.145245
H26   H     H_    0.698533 0.880966 0.488815 0.144427
H27   H     H_    0.198449 0.455529 0.121304 0.197953
H28   H     H_    0.519178 0.278338 0.653205 0.148943
H29   H     H_    0.522552 0.281107 0.741529 0.134360
H30   H     H_    0.194621 0.540803 0.880857 0.189888
H31   H     H_    0.193822 0.533479 0.966240 0.138475
H32   H     H_    0.194387 0.459161 0.036123 0.136651
H33   H     H_    0.510263 0.721061 0.345850 0.150847
H34   H     H_    0.483654 0.724012 0.653309 0.148921
H35   H     H_    0.949793 0.536034 0.110919 0.018805
H36   H     H_    0.825234 0.458244 0.876651 0.191389
H37   H     H_    0.486924 0.723901 0.741673 0.134936
H38   H     H_    0.834021 0.498105 0.033756 0.123977
H39   H     H_    0.106215 0.707186 0.466636 0.170924
H40   H     H_    0.106714 0.319807 0.547134 0.171560
N1    N     N_R   0.512641 0.489463 0.201682 -0.365770
N2    N     N_R   0.507152 0.503091 0.798315 -0.359225
N3    N     N_3   0.499750 0.138610 0.498940 -0.033091
N4    N     N_3   0.499750 0.861390 0.498940 -0.032749
O1    O     O_R   0.314910 0.616040 0.499990 -0.635060
O2    O     O_2   0.287264 0.530802 0.798561 -0.553849
O3    O     O_2   0.729988 0.524688 0.204438 -0.508945
O4    O     O_2   0.727068 0.476566 0.795670 -0.553669
O5    O     O_2   0.892898 0.384602 0.154028 -0.504723
O6    O     O_R   0.314910 0.383960 0.499990 -0.634182
O7    O     O_R   0.500140 0.616020 0.428740 -0.627482
O8    O     O_R   0.500140 0.383980 0.428740 -0.627418
O9    O     O_R   0.685320 0.616040 0.499970 -0.634949
O10   O     O_R   0.685320 0.383960 0.499970 -0.634356
O11   O     O_R   0.500090 0.616050 0.571230 -0.629730
O12   O     O_R   0.500090 0.383950 0.571230 -0.630035
O13   O     O_2   0.292758 0.465116 0.202402 -0.537729
Zn1   Zn    Zn3+2 0.500150 0.654960 0.499980 0.906188
Zn2   Zn    Zn3+2 0.500150 0.345040 0.499980 0.906388

loop_
_geom_bond_atom_site_label_1
_geom_bond_atom_site_label_2
_ccdc_geom_bond_type
C10   C27   A    
C24   C52   A    
C30   C32   S    
C8    C13   A    
C22   C29   A    
C46   O13   S    
C41   C42   S    
C35   C36   S    
C43   N3    S    
C14   H29   S    
C40   N4    S    
C19   N2    S    
C7    C8    A    
C45   C46   A    
C12   C23   A    
C26   C27   A    
C50   C54   A    
C40   H15   S    
C31   H3    S    
C25   C53   A    
C31   C36   S    
C51   H35   S    
C44   N4    S    
N3    Zn2   S    
C35   H10   S    
C49   C54   A    
C30   H2    S    
C23   N1    S    
C18   C19   A    
C44   H21   S    
C20   C24   A    
C8    C9    A    
C47   N1    A    
C31   C33   S    
C27   H36   S    
C35   H9    S    
C9    C10   A    
C17   C55   A    
C16   C37   S    
C47   C53   A    
C47   O3    S    
C21   C22   A    
C43   H20   S    
C49   H33   S    
C2    C6    A    
C42   H26   S    
C41   H25   S    
C1    O1    A    
C28   C55   S    
C16   O10   A    
C44   H24   S    
C28   O12   A    
C25   C29   A    
C4    O8    A    
C42   H19   S    
O7    Zn1   S    
C2    C20   A    
C38   H11   S    
O6    Zn2   S    
C35   C38   S    
C17   H34   S    
C39   C40   S    
C39   N3    S    
C15   H28   S    
C21   C34   A    
C45   C52   A    
C28   O11   A    
C51   O5    D    
C4    O7    A    
C33   C37   S    
C15   C55   A    
O9    Zn1   S    
C43   C44   S    
C25   C51   S    
O8    Zn2   S    
C5    C9    A    
C37   C38   S    
C33   H8    S    
C17   C18   A    
C39   H14   S    
C34   C45   A    
C26   H23   S    
C32   C37   S    
C52   H27   S    
O11   Zn1   S    
O10   Zn2   S    
C48   C49   A    
C38   H13   S    
C33   H5    S    
C2    C5    A    
C13   O2    S    
C23   C48   A    
C40   H17   S    
C4    C54   S    
C14   C15   A    
C14   C19   A    
C3    C26   A    
O1    Zn1   S    
C3    C5    A    
N4    Zn1   S    
C12   C50   A    
C6    C7    A    
C43   H22   S    
C6    H31   S    
C30   C36   S    
C11   N2    A    
C18   H37   S    
C32   H7    S    
C30   H39   S    
C42   N4    S    
C29   H38   S    
C12   H6    S    
C7    H30   S    
C31   H40   S    
O12   Zn2   S    
C48   H12   S    
C13   N2    A    
C24   H32   S    
C50   H1    S    
C10   C11   A    
C16   O9    A    
C41   H18   S    
C46   N1    A    
C20   C21   A    
C34   C53   A    
C39   H16   S    
C41   N3    S    
C3    C22   A    
C11   O4    S    
C32   H4    S    
C1    C36   S    
C1    O6    A    
