data_mof_unit_15487.cif
_audit_creation_date              2012-12-11T14:40:28-0500
_audit_creation_method            fapswitch 2.2
_symmetry_space_group_name_H-M    P1
_symmetry_Int_Tables_number       1
_space_group_crystal_system       triclinic
_cell_length_a                    19.503306
_cell_length_b                    10.911029
_cell_length_c                    19.478819
_cell_angle_alpha                 90.066025
_cell_angle_beta                  97.525996
_cell_angle_gamma                 89.417357
_cell_volume                      4109.19436038

loop_
_atom_site_label
_atom_site_type_symbol
_atom_type_description
_atom_site_fract_x
_atom_site_fract_y
_atom_site_fract_z
_atom_type_partial_charge
C1    C     C_R   0.724778 0.955504 0.361590 0.546255
C2    C     C_3   0.246025 0.415616 0.569176 0.046767
C3    C     C_3   0.253603 0.918993 0.428816 0.041600
C4    C     C_3   0.752839 0.892265 0.565689 0.050838
C5    C     C_3   0.722441 0.499119 0.460171 -0.117520
C6    C     C_3   0.225978 0.545899 0.544928 -0.181679
C7    C     C_3   0.227945 0.036812 0.459770 -0.130536
C8    C     C_3   0.739488 0.018654 0.534287 -0.184795
C9    C     C_3   0.796267 0.508602 0.500864 -0.120830
C10   C     C_3   0.169107 0.491459 0.490391 -0.105181
C11   C     C_3   0.301020 0.051637 0.501969 -0.128399
C12   C     C_R   0.293036 0.000939 0.633449 0.563838
C13   C     C_3   0.683856 0.961822 0.480104 -0.082135
C14   C     C_3   0.813794 0.379161 0.477708 0.263616
C15   C     C_3   0.189839 0.361664 0.515227 0.268222
C16   C     C_3   0.325318 0.932382 0.470007 0.252476
C17   C     C_3   0.697833 0.835018 0.512024 0.270343
C18   C     C_3   0.787086 0.321218 0.540299 -0.094981
C19   C     C_3   0.242776 0.350626 0.463937 -0.095442
C20   C     C_3   0.302362 0.855029 0.528374 -0.091122
C21   C     C_3   0.753771 0.806928 0.465464 -0.127800
C22   C     C_3   0.769300 0.450649 0.563153 0.029240
C23   C     C_R   0.206348 0.503042 0.365710 0.552182
C24   C     C_3   0.222054 0.480018 0.439419 0.010086
C25   C     C_3   0.277417 0.973544 0.559899 0.016851
C26   C     C_3   0.740115 0.932990 0.434108 0.019935
C27   C     C_3   0.545426 0.270675 0.967270 0.269462
C28   C     C_3   0.495345 0.272083 0.021297 0.289564
C29   C     C_3   0.047806 0.770590 0.966792 0.270484
C30   C     C_3   0.997652 0.773295 0.020763 0.284806
C31   C     C_3   0.591017 0.172173 0.008380 -0.174889
C32   C     C_3   0.452410 0.170098 0.983013 -0.130177
C33   C     C_3   0.092952 0.671981 0.008370 -0.171224
C34   C     C_R   0.790252 0.493783 0.632469 0.555557
C35   C     C_3   0.954370 0.671556 0.982650 -0.127576
C36   C     C_3   0.540184 0.174218 0.062509 0.005570
C37   C     C_3   0.503047 0.169342 0.928770 0.021957
C38   C     C_3   0.041890 0.675037 0.062320 0.002050
C39   C     C_3   0.004973 0.669517 0.928341 0.021723
C40   C     C_R   0.535347 0.180449 0.338139 0.552740
C41   C     C_R   0.465046 0.179705 0.662124 0.536553
C42   C     C_R   0.034482 0.680402 0.337540 0.549221
C43   C     C_R   0.964553 0.679725 0.661725 0.538281
C44   C     C_3   0.497518 0.071054 0.024436 -0.143559
C45   C     C_3   0.713401 0.312932 0.499856 -0.203718
C46   C     C_3   0.547545 0.069478 0.968749 -0.162587
C47   C     C_3   0.998961 0.572202 0.024255 -0.143416
C48   C     C_3   0.049142 0.569456 0.968702 -0.160697
C49   C     C_1   0.759253 0.412870 0.900798 0.039121
C50   C     C_1   0.242736 0.409330 0.100168 0.024461
C51   C     C_1   0.276346 0.959474 0.911932 0.027887
C52   C     C_1   0.742723 0.909435 0.100138 0.025039
C53   C     C_1   0.737525 0.367440 0.027352 0.006557
C54   C     C_1   0.266307 0.359150 0.974271 0.002803
C55   C     C_1   0.246833 0.898171 0.033452 0.014313
C56   C     C_3   0.299274 0.405328 0.517737 -0.151724
C57   C     C_1   0.766333 0.859215 0.974251 0.000305
C58   C     C_1   0.748001 0.389777 0.958512 0.024569
C59   C     C_1   0.255503 0.383402 0.043097 0.009370
C60   C     C_1   0.262299 0.932043 0.967947 0.019233
C61   C     C_1   0.755508 0.883533 0.043068 0.008259
C62   C     C_1   0.729944 0.346013 0.086343 0.011897
C63   C     C_1   0.272763 0.339001 0.914681 0.012294
C64   C     C_1   0.235274 0.865179 0.089417 0.023776
C65   C     C_1   0.772794 0.838950 0.914670 0.014164
C66   C     C_R   0.727214 0.318732 0.368965 0.552078
C67   C     C_3   0.229732 0.842190 0.487026 -0.175889
C68   C     C_R   0.259602 0.364988 0.638633 0.558576
C69   C     C_R   0.241051 0.868886 0.359592 0.572569
C70   C     C_R   0.760789 0.860720 0.637576 0.558239
C71   C     C_R   0.722638 0.951021 0.164357 0.532314
C72   C     C_R   0.293578 0.993215 0.845820 0.526541
C73   C     C_R   0.222648 0.450982 0.164374 0.540448
C74   C     C_R   0.777532 0.451029 0.835648 0.549277
C75   C     C_R   0.562393 0.182185 0.136613 0.541784
C76   C     C_R   0.472381 0.178142 0.857428 0.558546
C77   C     C_R   0.063006 0.682360 0.136769 0.546302
C78   C     C_3   0.809445 0.864433 0.519647 -0.155455
C79   C     C_R   0.972953 0.678148 0.857152 0.564656
C80   C     C_R   0.722868 0.312773 0.155868 0.527524
C81   C     C_R   0.278003 0.310655 0.843768 0.527136
C82   C     C_R   0.224606 0.819316 0.155477 0.519890
C83   C     C_R   0.778037 0.810526 0.843763 0.546080
C84   C     C_1   0.486664 0.171735 0.595125 0.009739
C85   C     C_1   0.514757 0.173372 0.405568 0.035084
C86   C     C_1   0.984287 0.671747 0.593874 0.009252
C87   C     C_1   0.011458 0.673288 0.403963 0.017360
C88   C     C_1   0.505176 0.170106 0.465179 0.004953
C89   C     C_3   0.740878 0.369981 0.437493 0.038142
C90   C     C_1   0.496943 0.169151 0.535707 -0.011693
C91   C     C_1   0.000650 0.670040 0.463247 -0.017834
C92   C     C_1   0.993056 0.669073 0.533986 -0.023459
C93   C     C_3   0.695663 0.442695 0.524230 -0.087990
C94   C     C_3   0.278872 0.536120 0.491905 -0.134047
C95   C     C_3   0.204721 0.960459 0.519372 -0.084245
C96   C     C_3   0.795690 0.992309 0.486635 -0.122921
Cl1   Cl    Cl    0.896315 0.340840 0.452818 -0.528076
Cl2   Cl    Cl    0.125181 0.250984 0.525458 -0.553960
Cl3   Cl    Cl    0.405817 0.913203 0.437204 -0.552788
Cl4   Cl    Cl    0.628011 0.736704 0.524474 -0.566056
Cl5   Cl    Cl    0.576332 0.404159 0.929047 -0.534814
Cl6   Cl    Cl    0.456438 0.407828 0.050761 -0.503493
Cl7   Cl    Cl    0.081303 0.901684 0.928529 -0.526408
Cl8   Cl    Cl    0.959266 0.910052 0.049588 -0.506388
Cr1   Cr    Cr6+3 0.765830 0.160660 0.268180 1.079681
Cr2   Cr    Cr6+3 0.384070 0.324050 0.751550 1.077127
Cr3   Cr    Cr6+3 0.115930 0.824050 0.248450 1.080450
Cr4   Cr    Cr6+3 0.884070 0.824050 0.751550 1.080786
Cr5   Cr    Cr6+3 0.234170 0.160660 0.731820 1.095208
Cr6   Cr    Cr6+3 0.265830 0.660660 0.268180 1.079414
Cr7   Cr    Cr6+3 0.734170 0.660660 0.731820 1.089142
Cr8   Cr    Cr6+3 0.612110 0.009150 0.248770 1.067897
Cr9   Cr    Cr6+3 0.387890 0.009150 0.751230 1.051552
Cr10  Cr    Cr6+3 0.112110 0.509150 0.248770 1.064811
Cr11  Cr    Cr6+3 0.887890 0.509150 0.751230 1.056379
Cr12  Cr    Cr6+3 0.615930 0.324050 0.248450 1.085418
H1    H     H_    0.675969 0.236710 0.495448 0.104496
H2    H     H_    0.219523 0.624041 0.580127 0.133742
H3    H     H_    0.194518 0.103808 0.428123 0.170581
H4    H     H_    0.732969 0.096781 0.569087 0.119494
H5    H     H_    0.331598 0.136768 0.510180 0.108131
H6    H     H_    0.632123 0.001869 0.461908 0.149669
H7    H     H_    0.832116 0.587282 0.503806 0.113162
H8    H     H_    0.115369 0.525264 0.477631 0.145836
H9    H     H_    0.815371 0.250001 0.573779 0.157392
H10   H     H_    0.252068 0.276781 0.427255 0.131493
H11   H     H_    0.333175 0.780970 0.557192 0.156882
H12   H     H_    0.353006 0.369788 0.530292 0.133049
H13   H     H_    0.761788 0.728446 0.431517 0.115954
H14   H     H_    0.648132 0.168867 0.019598 0.109338
H15   H     H_    0.395115 0.168911 0.971488 0.107737
H16   H     H_    0.150175 0.671553 0.020163 0.114072
H17   H     H_    0.897054 0.671064 0.971236 0.120469
H18   H     H_    0.477611 0.989388 0.049093 0.164559
H19   H     H_    0.568729 0.986848 0.945353 0.155861
H20   H     H_    0.978597 0.490985 0.048935 0.165675
H21   H     H_    0.070112 0.486294 0.945643 0.156447
H22   H     H_    0.197757 0.759132 0.477381 0.110209
H23   H     H_    0.861063 0.824438 0.538199 0.132082
H24   H     H_    0.647513 0.468563 0.545593 0.192336
H25   H     H_    0.315580 0.606916 0.479129 0.164638
H26   H     H_    0.155238 0.971129 0.541263 0.187827
H27   H     H_    0.835555 0.057057 0.473528 0.182744
H28   H     H_    0.692955 0.565916 0.424668 0.173050
O1    O     O_R   0.783230 0.287800 0.346510 -0.441636
O2    O     O_R   0.454570 0.285140 0.836900 -0.455868
O3    O     O_R   0.045430 0.785140 0.163100 -0.441500
O4    O     O_R   0.954570 0.785140 0.836900 -0.458205
O5    O     O_R   0.677850 0.374730 0.185500 -0.477079
O6    O     O_R   0.322150 0.374730 0.814500 -0.466408
O7    O     O_R   0.177850 0.874730 0.185500 -0.485887
O8    O     O_R   0.822150 0.874730 0.814500 -0.472886
O9    O     O_3   0.664630 0.164620 0.255130 -0.341471
O10   O     O_3   0.335370 0.164620 0.744870 -0.340687
O11   O     O_3   0.164630 0.664620 0.255130 -0.340778
O12   O     O_R   0.216770 0.287800 0.653490 -0.460022
O13   O     O_3   0.835370 0.664620 0.744870 -0.320960
O14   O     O_R   0.760130 0.037060 0.338610 -0.512100
O15   O     O_R   0.239870 0.037060 0.661390 -0.472882
O16   O     O_R   0.260130 0.537060 0.338610 -0.489689
O17   O     O_R   0.739870 0.537060 0.661390 -0.481353
O18   O     O_R   0.666620 0.921370 0.332440 -0.492007
O19   O     O_R   0.333380 0.921370 0.667560 -0.498375
O20   O     O_R   0.166620 0.421370 0.332440 -0.486669
O21   O     O_R   0.833380 0.421370 0.667560 -0.503414
O22   O     O_R   0.557170 0.082420 0.312350 -0.474278
O23   O     O_R   0.283230 0.787800 0.346510 -0.469742
O24   O     O_R   0.442830 0.082420 0.687650 -0.500722
O25   O     O_R   0.057170 0.582420 0.312350 -0.492721
O26   O     O_R   0.942830 0.582420 0.687650 -0.496890
O27   O     O_R   0.548310 0.285980 0.316250 -0.504596
O28   O     O_R   0.451690 0.285980 0.683750 -0.499929
O29   O     O_R   0.048310 0.785980 0.316250 -0.494183
O30   O     O_R   0.951690 0.785980 0.683750 -0.499232
O31   O     O_R   0.680520 0.375500 0.327470 -0.495781
O32   O     O_R   0.319480 0.375500 0.672530 -0.504262
O33   O     O_R   0.180520 0.875500 0.327470 -0.505116
O34   O     O_R   0.716770 0.787800 0.653490 -0.461359
O35   O     O_R   0.819480 0.875500 0.672530 -0.506608
O36   O     O_R   0.780350 0.286970 0.193350 -0.475363
O37   O     O_R   0.219650 0.286970 0.806650 -0.494460
O38   O     O_R   0.280350 0.786970 0.193350 -0.482593
O39   O     O_R   0.719650 0.786970 0.806650 -0.492379
O40   O     O_R   0.757460 0.036290 0.196640 -0.504434
O41   O     O_R   0.242540 0.036290 0.803360 -0.472643
O42   O     O_R   0.257460 0.536290 0.196640 -0.496644
O43   O     O_R   0.742540 0.536290 0.803360 -0.492957
O44   O     O_R   0.663740 0.920540 0.179290 -0.502588
O45   O     O_R   0.554500 0.081650 0.170370 -0.491132
O46   O     O_R   0.336260 0.920540 0.820710 -0.479275
O47   O     O_R   0.163740 0.420540 0.179290 -0.501856
O48   O     O_R   0.836260 0.420540 0.820710 -0.499378
O49   O     O_R   0.445500 0.081650 0.829630 -0.525030
O50   O     O_R   0.054500 0.581650 0.170370 -0.492515
O51   O     O_R   0.945500 0.581650 0.829630 -0.508945
O52   O     O_R   0.545430 0.285140 0.163100 -0.442553

loop_
_geom_bond_atom_site_label_1
_geom_bond_atom_site_label_2
_ccdc_geom_bond_type
C19   C56   S    
C45   C93   S    
Cr10  O25   S    
Cr1   O9    S    
C21   C26   S    
C8    C13   S    
Cr2   O6    S    
C87   C91   T    
C47   H20   S    
C14   C18   S    
C20   C67   S    
Cr7   O17   S    
C81   O37   A    
C71   O44   A    
C4    C8    S    
C34   O17   A    
C35   C47   S    
C78   H23   S    
C35   H17   S    
Cr9   O24   S    
C4    C70   S    
C73   O42   A    
C68   O32   A    
C11   H5    S    
C4    C78   S    
Cr9   O46   S    
C30   C38   S    
C48   H21   S    
Cr11  O13   S    
C50   C59   T    
C80   O36   A    
C62   C80   S    
C1    O14   A    
C3    C69   S    
C23   O20   A    
C31   H14   S    
C10   H8    S    
C10   C15   S    
C31   C36   S    
C18   H9    S    
Cr8   O18   S    
C43   O30   A    
C9    C22   S    
C65   C83   S    
C20   C25   S    
C11   C25   S    
C45   H1    S    
C81   O6    A    
C41   O24   A    
C29   C33   S    
C79   O51   A    
C29   Cl7   S    
C11   C16   S    
Cr5   O12   S    
C67   H22   S    
C66   O1    A    
Cr6   O11   S    
C69   O33   A    
Cr8   O45   S    
C15   C19   S    
C2    C68   S    
Cr1   O14   S    
C78   C96   S    
Cr2   O10   S    
C31   C46   S    
Cr4   O30   S    
C21   C78   S    
C64   C82   S    
Cr7   O34   S    
C23   C24   S    
Cr11  O21   S    
C34   O21   A    
C45   C89   S    
C77   O3    A    
C40   O22   A    
C82   O7    A    
Cr3   O7    S    
C75   O52   A    
C46   H19   S    
Cr1   O1    S    
Cr1   O40   S    
Cr4   O8    S    
C55   C60   S    
Cr3   O33   S    
C67   C95   S    
Cr7   O43   S    
C94   H25   S    
C56   C94   S    
C84   C90   T    
Cr11  O26   S    
C72   O46   A    
Cr12  O5    S    
C43   O26   A    
C44   C46   S    
C70   O35   A    
C7    C11   S    
C66   C89   S    
C54   C59   S    
C55   C64   T    
C26   C96   S    
C80   O5    A    
C22   C34   S    
C41   O28   A    
C27   C31   S    
C7    H3    S    
C28   C32   S    
C20   H11   S    
C76   O49   A    
C50   C73   S    
C57   C65   T    
C91   C92   S    
C9    C14   S    
C70   O34   A    
C5    H28   S    
Cr4   O13   S    
Cr3   O29   S    
C6    C94   S    
C41   C84   S    
C27   Cl5   S    
C17   C21   S    
C49   C58   T    
C2    C6    S    
Cr12  O27   S    
C39   C79   S    
C40   C85   S    
C35   C39   S    
C77   O50   A    
C69   O23   A    
C14   C89   S    
C5    C9    S    
C29   C30   S    
C2    C15   S    
C36   C75   S    
C24   C94   S    
C8    C96   S    
Cr9   O19   S    
Cr9   O49   S    
Cr3   O3    S    
Cr6   O23   S    
Cr10  O20   S    
C47   C48   S    
C16   C20   S    
C42   O25   A    
Cr8   O22   S    
C23   O16   A    
C29   C39   S    
Cr7   O39   S    
C32   C44   S    
C83   O39   A    
C32   C37   S    
Cr5   O10   S    
C44   H18   S    
C21   H13   S    
Cr12  O9    S    
C73   O47   A    
C95   H26   S    
C74   O48   A    
Cr11  O48   S    
C30   C35   S    
C33   H16   S    
C37   C76   S    
C63   C81   S    
C1    O18   A    
C25   C95   S    
Cr8   O9    S    
C1    C26   S    
C22   C93   S    
C66   O31   A    
C36   C44   S    
C51   C72   S    
C4    C17   S    
Cr1   O36   S    
Cr5   O15   S    
C18   C45   S    
Cr10  O11   S    
Cr6   O38   S    
Cr6   O16   S    
C8    H4    S    
C14   Cl1   S    
C83   O8    A    
C85   C88   T    
Cr5   O37   S    
Cr11  O51   S    
Cr6   O42   S    
Cr10  O47   S    
Cr10  O50   S    
Cr12  O31   S    
C75   O45   A    
C18   C22   S    
C43   C86   S    
Cr2   O28   S    
C71   O40   A    
Cr9   O10   S    
C3    C67   S    
C88   C90   S    
C68   O12   A    
C42   O29   A    
Cr8   O44   S    
C5    C93   S    
C53   C58   S    
C16   Cl3   S    
C57   C61   S    
C79   O4    A    
C51   C60   T    
C38   C77   S    
C7    C95   S    
C82   O38   A    
C19   H10   S    
C3    C7    S    
C33   C38   S    
Cr2   O2    S    
C13   C17   S    
C12   C25   S    
C52   C61   T    
Cr5   O41   S    
C19   C24   S    
Cr7   O13   S    
C93   H24   S    
C86   C92   T    
C40   O27   A    
C96   H27   S    
C13   H6    S    
C38   C47   S    
C27   C37   S    
C9    H7    S    
C56   H12   S    
C12   O15   A    
C13   C26   S    
C17   Cl4   S    
C5    C89   S    
C72   O41   A    
C6    C10   S    
C74   O43   A    
C76   O2    A    
Cr12  O52   S    
C28   Cl6   S    
C28   C36   S    
C53   C62   T    
C10   C24   S    
C54   C63   T    
C30   Cl8   S    
C27   C28   S    
C52   C71   S    
C33   C48   S    
Cr2   O32   S    
C49   C74   S    
Cr4   O35   S    
C2    C56   S    
C42   C87   S    
C15   Cl2   S    
Cr4   O4    S    
C37   C46   S    
C6    H2    S    
C32   H15   S    
Cr3   O11   S    
C3    C16   S    
C39   C48   S    
C12   O19   A    
