data_mof_unit_35982.cif
_audit_creation_date              2013-03-05T15:48:44-0500
_audit_creation_method            fapswitch 2.2
_symmetry_space_group_name_H-M    P1
_symmetry_Int_Tables_number       1
_space_group_crystal_system       triclinic
_cell_length_a                    10.770596
_cell_length_b                    12.959841
_cell_length_c                    11.761104
_cell_angle_alpha                 99.125417
_cell_angle_beta                  93.849366
_cell_angle_gamma                 90.832834
_cell_volume                      1616.71315983

loop_
_atom_site_label
_atom_site_type_symbol
_atom_site_description
_atom_site_fract_x
_atom_site_fract_y
_atom_site_fract_z
_atom_type_partial_charge
O1    O     O_R   0.506640 0.354460 0.582000 -0.544613
O2    O     O_R   0.490840 0.341410 0.386200 -0.570940
C1    C     C_R   0.502095 0.299439 0.478798 0.849221
O3    O     O_R   0.325590 0.506510 0.597900 -0.532724
O4    O     O_R   0.309790 0.493450 0.402100 -0.588706
C2    C     C_R   0.260036 0.501887 0.500269 0.843693
Cu1   Cu    Cu3+1 0.509350 0.507730 0.615930 1.093970
Cu2   Cu    Cu3+1 0.490650 0.492270 0.384070 1.017605
O5    O     O_R   0.509160 0.658590 0.613800 -0.542884
O6    O     O_R   0.493360 0.645540 0.418000 -0.594962
O7    O     O_R   0.690210 0.506550 0.597900 -0.579490
O8    O     O_R   0.674410 0.493490 0.402100 -0.567766
C3    C     C_R   0.499661 0.700324 0.520590 0.888014
C4    C     C_R   0.739916 0.500718 0.499437 0.849194
C5    C     C_3   0.073799 0.413788 0.555724 -0.388659
C6    C     C_3   0.931756 0.417386 0.562824 -0.416440
C7    C     C_3   0.079254 0.614975 0.569405 0.450483
C8    C     C_3   0.061460 0.490476 0.373895 -0.387301
C9    C     C_3   0.121957 0.506968 0.500462 -0.076014
C10   C     C_3   0.877783 0.503838 0.498182 -0.070424
C11   C     C_3   0.931665 0.612610 0.560535 0.076050
C12   C     C_3   0.919543 0.480917 0.372866 -0.327697
H1    H     H_    0.875666 0.533089 0.316407 0.226976
C13   C     C_R   0.491655 0.812793 0.530216 -0.016475
C14   C     C_R   0.511429 0.186076 0.465653 -0.179068
C15   C     C_R   0.584213 0.020555 0.369599 -0.206471
C16   C     C_R   0.578155 0.128998 0.377501 0.328089
C17   C     C_R   0.451084 0.133845 0.542126 -0.220869
C18   C     C_R   0.463674 0.026947 0.538389 0.134504
C19   C     C_R   0.530004 0.969787 0.450807 0.088286
C20   C     C_R   0.542114 0.862650 0.446372 -0.147980
C21   C     C_R   0.427858 0.869738 0.618516 -0.053253
C22   C     C_R   0.412353 0.976467 0.621724 -0.102574
H2    H     H_    0.361528 0.019540 0.689597 0.181877
N1    N     N_R   0.523430 0.519360 0.790130 -0.299014
N2    N     N_R   0.476570 0.480640 0.209880 -0.191618
C23   C     C_R   0.404437 0.386057 0.024150 -0.177744
C24   C     C_R   0.410344 0.399255 0.145087 0.106610
C25   C     C_R   0.535732 0.552515 0.157278 0.111663
C26   C     C_R   0.530626 0.542909 0.035314 -0.056099
C27   C     C_R   0.466628 0.457701 0.967375 -0.017550
C28   C     C_R   0.466948 0.445530 0.844613 0.473210
C29   C     C_R   0.584739 0.603603 0.858670 0.488067
C30   C     C_R   0.589709 0.615414 0.980108 -0.311724
H3    H     H_    0.118599 0.413831 0.643072 0.272485
N3    N     N_R   0.127064 0.707031 0.523276 0.140894
O9    O     O_R   0.104903 0.800620 0.575505 -0.254777
O10   O     O_R   0.202169 0.698388 0.440330 -0.388374
N4    N     N_R   0.876534 0.699253 0.508561 0.135243
O11   O     O_R   0.807492 0.765609 0.569011 -0.299413
O12   O     O_R   0.897468 0.712789 0.404148 -0.332525
H4    H     H_    0.591949 0.818094 0.378562 0.160878
H5    H     H_    0.387398 0.831254 0.682983 0.212773
H6    H     H_    0.635883 0.976467 0.302977 0.190909
N5    N     N_R   0.644354 0.179628 0.298872 0.136112
O13   O     O_R   0.647751 0.135752 0.191680 -0.314671
O14   O     O_R   0.718284 0.259358 0.338017 -0.395459
H7    H     H_    0.393247 0.176372 0.603996 0.229557
N6    N     N_R   0.417543 0.350125 0.779515 0.117094
O15   O     O_R   0.473038 0.263905 0.792964 -0.384481
O16   O     O_R   0.302860 0.345347 0.736919 -0.398859
H8    H     H_    0.098029 0.338511 0.503080 0.190902
N7    N     N_R   0.649855 0.680236 0.809692 0.155509
O17   O     O_R   0.768915 0.670448 0.802313 -0.325839
O18   O     O_R   0.604777 0.773462 0.816984 -0.323339
H9    H     H_    0.350833 0.320097 0.976263 0.200621
H10   H     H_    0.640410 0.681800 0.030990 0.194315
H11   H     H_    0.362601 0.343440 0.187182 0.133042
H12   H     H_    0.587902 0.616823 0.210155 0.126975
H13   H     H_    0.889189 0.339790 0.524589 0.220251
H14   H     H_    0.909378 0.432253 0.654904 0.230577
N8    N     N_R   0.126982 0.625536 0.692341 0.115033
O19   O     O_R   0.073339 0.576984 0.765451 -0.354059
O20   O     O_R   0.225620 0.683545 0.729698 -0.308443
H15   H     H_    0.900977 0.621691 0.649115 0.201951
H16   H     H_    0.086335 0.554963 0.327335 0.254916
H17   H     H_    0.095928 0.417629 0.323620 0.187249
H18   H     H_    0.889367 0.400187 0.332718 0.234495

loop_
_geom_bond_atom_site_label_1
_geom_bond_atom_site_label_2
_geom_bond_distance
_ccdc_geom_bond_type
N5    O13   1.301321 A    
N7    O18   1.301001 A    
C27   C28   1.427564 A    
C20   H4    1.085347 S    
C11   N4    1.474949 S    
C29   N7    1.423201 S    
Cu1   Cu2   2.696041 S    
C14   C17   1.395840 A    
Cu1   O7    1.973599 S    
C2    C9    1.489745 S    
C15   C16   1.396460 A    
C23   C24   1.402417 A    
C17   C18   1.387993 A    
C19   C20   1.389534 A    
O7    C4    1.300007 A    
C16   N5    1.435788 S    
C24   H11   1.081536 S    
C5    C6    1.538730 S    
C18   C22   1.399923 A    
C8    C9    1.565531 S    
Cu2   N2    2.025446 S    
N1    C28   1.387842 A    
O5    C3    1.295918 A    
N4    O12   1.301521 A    
N1    C29   1.380670 A    
C6    C10   1.549519 S    
N6    O15   1.301406 A    
O1    Cu1   1.962402 S    
C6    H14   1.112768 S    
O3    Cu1   1.975891 S    
C15   H6    1.084394 S    
N3    O10   1.300965 A    
N6    O16   1.298225 A    
C4    C10   1.486005 S    
C1    C14   1.458358 S    
C6    H13   1.113195 S    
C7    N3    1.485857 S    
C12   H18   1.111781 S    
O3    C2    1.299490 A    
C25   C26   1.417271 A    
C7    C11   1.585561 S    
C3    C13   1.448249 S    
O1    C1    1.304062 A    
C5    C9    1.557484 S    
C29   C30   1.409374 A    
C13   C21   1.400979 A    
C18   C19   1.411500 A    
Cu2   O8    1.975889 S    
C23   H9    1.081913 S    
C22   H2    1.083847 S    
C25   H12   1.082648 S    
N8    O20   1.302394 A    
C26   C27   1.398960 A    
C10   C12   1.554605 S    
C15   C19   1.396083 A    
N5    O14   1.299864 A    
C5    H3    1.105193 S    
C21   H5    1.082360 S    
Cu1   O5    1.959280 S    
N3    O9    1.302768 A    
C8    H16   1.108362 S    
C8    C12   1.530831 S    
Cu1   N1    2.025561 S    
N2    C25   1.369281 A    
O2    Cu2   1.959280 S    
O8    C4    1.293340 A    
N8    O19   1.302631 A    
O6    C3    1.296295 A    
C28   N6    1.422673 S    
O4    Cu2   1.973597 S    
C17   H7    1.079330 S    
C14   C16   1.418035 A    
C11   H15   1.103140 S    
C21   C22   1.390515 A    
N2    C24   1.360944 A    
O2    C1    1.291774 A    
C13   C20   1.396094 A    
O4    C2    1.294952 A    
C8    H17   1.114158 S    
C7    C9    1.592822 S    
C5    H8    1.113881 S    
C23   C27   1.412546 A    
N7    O17   1.297776 A    
C26   C30   1.393226 A    
C10   C11   1.566184 S    
C7    N8    1.486236 S    
Cu2   O6    1.962402 S    
N4    O11   1.301394 A    
C12   H1    1.109489 S    
C30   H10   1.084288 S    
