data_mof_unit_40943.cif
_audit_creation_date              2012-12-10T20:46:50-0500
_audit_creation_method            fapswitch 2.2
_symmetry_space_group_name_H-M    P1
_symmetry_Int_Tables_number       1
_space_group_crystal_system       triclinic
_cell_length_a                    12.898728
_cell_length_b                    8.930981
_cell_length_c                    8.124983
_cell_angle_alpha                 90.0
_cell_angle_beta                  95.626934
_cell_angle_gamma                 89.999971
_cell_volume                      931.474069049

loop_
_atom_site_label
_atom_site_type_symbol
_atom_type_description
_atom_site_fract_x
_atom_site_fract_y
_atom_site_fract_z
_atom_type_partial_charge
C1    C     C_R   0.500000 0.218066 0.500000 0.944392
C2    C     C_R   0.867568 0.426023 0.704365 0.452977
C3    C     C_R   0.134596 0.467739 0.592431 -0.266345
C4    C     C_R   0.865404 0.467738 0.407569 -0.266331
C5    C     C_R   0.027632 0.456256 0.579031 0.093572
C6    C     C_R   0.972368 0.456255 0.420969 0.093575
C7    C     C_1   0.500000 0.065227 0.500000 -0.118027
C8    C     C_1   0.500000 0.934803 0.500000 -0.146150
C9    C     C_R   0.500000 0.781930 0.500000 0.925715
C10   C     C_R   0.298277 0.487367 0.469231 0.916847
C11   C     C_R   0.701723 0.487367 0.530769 0.916845
C12   C     C_R   0.812698 0.460632 0.549484 -0.207782
C13   C     C_R   0.187302 0.460632 0.450516 -0.207776
C14   C     C_R   0.024790 0.440525 0.279739 -0.226415
C15   C     C_R   0.975210 0.440527 0.720261 -0.226432
C16   C     C_R   0.132432 0.426022 0.295636 0.452966
H1    H     H_    0.823453 0.480688 0.286458 0.233150
H2    H     H_    0.176547 0.480691 0.713542 0.233146
H3    H     H_    0.982032 0.432461 0.159135 0.225086
H4    H     H_    0.017968 0.432464 0.840866 0.225072
H5    H     H_    0.855274 0.205850 0.081946 0.383640
H6    H     H_    0.144713 0.205898 0.918020 0.383630
N1    N     N_1   0.500020 0.500000 0.073640 0.032336
N2    N     N_1   0.499980 0.500000 0.926360 0.032336
O1    O     O_R   0.499990 0.285340 0.636850 -0.597332
O2    O     O_2   0.717423 0.248650 0.807329 -0.288857
O3    O     O_3   0.892756 0.237887 0.987174 -0.525945
O4    O     O_2   0.230389 0.469290 0.024142 -0.340199
O5    O     O_2   0.282578 0.248651 0.192670 -0.288836
O6    O     O_3   0.107245 0.237885 0.012826 -0.525927
O7    O     O_R   0.500010 0.714660 0.363150 -0.617382
O8    O     O_R   0.500010 0.285340 0.363150 -0.597333
O9    O     O_R   0.499990 0.714660 0.636850 -0.617382
O10   O     O_R   0.346350 0.500000 0.614250 -0.629692
O11   O     O_R   0.653650 0.500000 0.385750 -0.629692
O12   O     O_R   0.346360 0.500000 0.340500 -0.551265
O13   O     O_R   0.653640 0.500000 0.659500 -0.551265
O14   O     O_2   0.769610 0.469290 0.975859 -0.340185
S1    S     S_3+6 0.807627 0.345883 0.871433 0.015152
S2    S     S_3+6 0.192374 0.345882 0.128567 0.015160
Zn1   Zn    Zn3+2 0.499990 0.500000 0.682780 1.095476
Zn2   Zn    Zn3+2 0.500010 0.500000 0.317220 1.095477

loop_
_geom_bond_atom_site_label_1
_geom_bond_atom_site_label_2
_ccdc_geom_bond_type
C1    O1    A    
C11   C12   S    
C2    C15   A    
O7    Zn2   S    
C4    C12   A    
O12   Zn2   S    
C3    C13   A    
N1    N2    T    
C2    C12   A    
C11   O11   A    
H5    O3    S    
O6    S2    S    
C7    C8    T    
C10   O10   A    
C9    O9    A    
N2    Zn1   S    
O10   Zn1   S    
C5    C6    A    
N1    Zn2   S    
C16   S2    S    
C4    H1    S    
C2    S1    S    
O5    S2    D    
C10   O12   A    
O13   Zn1   S    
O14   S1    D    
C14   C16   A    
O2    S1    D    
C5    C15   A    
C6    C14   A    
C9    O7    A    
O9    Zn1   S    
C3    H2    S    
C4    C6    A    
C13   C16   A    
O1    Zn1   S    
C11   O13   A    
O11   Zn2   S    
O4    S2    D    
C8    C9    S    
O8    Zn2   S    
H6    O6    S    
C1    C7    S    
C14   H3    S    
C1    O8    A    
O3    S1    S    
C15   H4    S    
C3    C5    A    
C10   C13   S    
