data_mof_unit_12695.cif
_audit_creation_date              2012-12-10T18:12:36-0500
_audit_creation_method            fapswitch 2.2
_symmetry_space_group_name_H-M    P1
_symmetry_Int_Tables_number       1
_space_group_crystal_system       triclinic
_cell_length_a                    12.660331
_cell_length_b                    13.140063
_cell_length_c                    15.707568
_cell_angle_alpha                 91.025546
_cell_angle_beta                  102.812186
_cell_angle_gamma                 82.499371
_cell_volume                      2526.04550543

loop_
_atom_site_label
_atom_site_type_symbol
_atom_type_description
_atom_site_fract_x
_atom_site_fract_y
_atom_site_fract_z
_atom_type_partial_charge
C1    C     C_R   0.439113 0.690868 0.485260 0.852001
C2    C     C_3   0.517327 0.492751 0.919914 0.156309
C3    C     C_3   0.507105 0.394128 0.026365 -0.165716
C4    C     C_3   0.504126 0.489670 0.083676 0.149413
C5    C     C_3   0.601609 0.430644 0.991929 -0.152068
C6    C     C_3   0.599021 0.525978 0.051402 -0.199376
C7    C     C_1   0.515578 0.491241 0.828482 -0.105650
C8    C     C_1   0.500529 0.491005 0.174055 -0.087167
C9    C     C_R   0.707122 0.062740 0.445453 -0.206754
C10   C     C_R   0.595826 0.200112 0.501047 -0.045094
C11   C     C_R   0.296397 0.838449 0.482983 -0.197381
C12   C     C_R   0.502175 0.498507 0.661997 0.916280
C13   C     C_R   0.266366 0.943496 0.486861 -0.166878
C14   C     C_R   0.341761 0.010388 0.483039 -0.192175
C15   C     C_R   0.447146 0.972710 0.469975 0.084153
C16   C     C_R   0.470326 0.867853 0.452260 0.084141
C17   C     C_R   0.530237 0.035633 0.473582 0.075017
C18   C     C_R   0.626560 0.998545 0.444600 0.177196
C19   C     C_R   0.640029 0.898634 0.414084 -0.261517
C20   C     C_R   0.562934 0.833827 0.417911 -0.202668
C21   C     C_R   0.520949 0.133970 0.507360 -0.265398
C22   C     C_R   0.690866 0.164205 0.472213 -0.206373
C23   C     C_R   0.560762 0.308837 0.508598 0.854650
C24   C     C_R   0.400236 0.799946 0.470067 -0.111134
C25   C     C_R   0.093205 0.333962 0.394527 -0.316087
C26   C     C_R   0.793645 0.635102 0.597931 0.000489
C27   C     C_R   0.895702 0.666181 0.621820 -0.291378
C28   C     C_R   0.982934 0.614569 0.590528 0.013689
C29   C     C_R   0.964601 0.532690 0.529141 -0.047956
C30   C     C_R   0.857102 0.503931 0.508456 0.220473
C31   C     C_R   0.044268 0.477644 0.487043 -0.019178
C32   C     C_R   0.016269 0.392097 0.433309 0.204263
C33   C     C_R   0.911037 0.366064 0.416686 -0.296577
C34   C     C_R   0.499138 0.498890 0.338206 0.886454
C35   C     C_R   0.832296 0.422903 0.451936 -0.199810
C36   C     C_R   0.149703 0.504185 0.492708 -0.054525
C37   C     C_R   0.197344 0.361007 0.407778 0.004758
C38   C     C_3   0.420211 0.551093 0.011456 0.004115
C39   C     C_3   0.514661 0.587903 0.977939 0.005593
C40   C     C_1   0.509183 0.493486 0.752067 -0.196884
C41   C     C_1   0.498558 0.494356 0.249083 -0.184322
C42   C     C_3   0.422730 0.455670 0.952750 -0.220038
H1    H     H_    0.453674 0.162276 0.536877 0.151742
H2    H     H_    0.239487 0.787252 0.492361 0.162865
H3    H     H_    0.314343 0.091176 0.487585 0.132850
H4    H     H_    0.575708 0.757429 0.392152 0.176894
H5    H     H_    0.073015 0.268044 0.354650 0.141606
H6    H     H_    0.907725 0.728150 0.668092 0.158700
H7    H     H_    0.671513 0.554254 0.093844 0.142937
H8    H     H_    0.503280 0.314911 0.047798 0.134266
H9    H     H_    0.350564 0.425812 0.911295 0.137173
H10   H     H_    0.749729 0.215154 0.466834 0.150566
H11   H     H_    0.780466 0.035587 0.422637 0.132268
N1    N     N_R   0.222180 0.444680 0.455580 -0.105412
N2    N     N_R   0.776980 0.554790 0.543960 -0.130966
O1    O     O_R   0.366730 0.627160 0.478790 -0.613840
O2    O     O_R   0.544830 0.662520 0.507160 -0.625131
O3    O     O_R   0.410960 0.482330 0.609040 -0.600367
O4    O     O_R   0.589060 0.517690 0.637410 -0.614684
O5    O     O_R   0.455170 0.337480 0.492840 -0.620530
O6    O     O_R   0.633270 0.372840 0.521210 -0.635469
O7    O     O_R   0.410940 0.482310 0.362590 -0.609670
O8    O     O_R   0.589040 0.517670 0.390960 -0.635853
Zn1   Zn    Zn3+2 0.381080 0.476390 0.481050 0.943934
Zn2   Zn    Zn3+2 0.618920 0.523610 0.518950 0.924229
C43   C     C_R   0.529073 0.697850 0.962554 0.092108
C44   C     C_R   0.518810 0.770172 0.028238 -0.157098
C45   C     C_R   0.531902 0.872554 0.016330 -0.138152
C46   C     C_R   0.556643 0.903483 0.939201 -0.110314
C47   C     C_R   0.569091 0.831866 0.874210 -0.145351
C48   C     C_R   0.556126 0.729350 0.885925 -0.177361
H12   H     H_    0.499785 0.747285 0.088464 0.136738
H13   H     H_    0.522948 0.927881 0.066954 0.129402
H14   H     H_    0.566771 0.982777 0.929998 0.122056
H15   H     H_    0.589192 0.855710 0.814755 0.131444
H16   H     H_    0.567866 0.675779 0.835083 0.141169
H17   H     H_    0.185956 0.972985 0.496465 0.137816
H18   H     H_    0.258792 0.315716 0.379990 0.135945
H19   H     H_    0.888646 0.302484 0.374482 0.148468
H20   H     H_    0.177333 0.571664 0.524181 0.155243
H21   H     H_    0.727170 0.673854 0.624039 0.152273
C49   C     C_R   0.312058 0.609429 0.019706 0.095308
C50   C     C_R   0.268888 0.700453 0.971759 -0.153827
C51   C     C_R   0.166882 0.751726 0.977653 -0.125021
C52   C     C_R   0.106402 0.712036 0.030547 -0.113177
C53   C     C_R   0.147366 0.620362 0.076875 -0.135638
C54   C     C_R   0.249206 0.568729 0.070903 -0.140170
H22   H     H_    0.312498 0.731309 0.928541 0.140913
H23   H     H_    0.134351 0.821880 0.940623 0.131131
H24   H     H_    0.027343 0.751728 0.034918 0.126085
H25   H     H_    0.099847 0.588862 0.116942 0.132092
H26   H     H_    0.278426 0.496659 0.105783 0.135938
C55   C     C_R   0.089847 0.643284 0.634667 0.100434
C56   C     C_R   0.157789 0.579506 0.700618 -0.131683
C57   C     C_R   0.252112 0.612823 0.750805 -0.115029
C58   C     C_R   0.280345 0.708777 0.734658 -0.121082
C59   C     C_R   0.212811 0.772818 0.669299 -0.141335
C60   C     C_R   0.117197 0.740701 0.619763 -0.194114
H27   H     H_    0.135858 0.505700 0.714865 0.128074
H28   H     H_    0.301896 0.565002 0.803333 0.138330
H29   H     H_    0.353442 0.734274 0.773638 0.131883
H30   H     H_    0.233715 0.847913 0.657951 0.138888
H31   H     H_    0.063879 0.791876 0.570587 0.129246
H32   H     H_    0.751699 0.401775 0.434029 0.208714
H33   H     H_    0.676459 0.381788 0.982507 0.135741
H34   H     H_    0.711141 0.869914 0.388816 0.148916

loop_
_geom_bond_atom_site_label_1
_geom_bond_atom_site_label_2
_ccdc_geom_bond_type
C27   H6    S    
O8    Zn2   S    
C3    C42   S    
C55   C56   A    
C57   C58   A    
C4    C8    S    
C26   N2    A    
C59   C60   A    
C5    H33   S    
C52   C53   A    
C10   C22   A    
C26   C27   A    
C30   C35   A    
C50   C51   A    
C28   C29   A    
C1    O1    A    
C38   C42   S    
C53   H25   S    
C31   C36   A    
C5    C6    S    
C9    C22   A    
C60   H31   S    
C11   C24   A    
C34   O7    A    
C44   H12   S    
O7    Zn1   S    
C2    C7    S    
C25   C37   A    
C21   H1    S    
C12   O4    A    
C2    C39   S    
C19   C20   A    
C45   C46   A    
C7    C40   T    
O1    Zn1   S    
C47   C48   A    
C25   H5    S    
C59   H30   S    
C42   H9    S    
C12   O3    A    
C25   C32   A    
C50   H22   S    
C16   C24   A    
C13   C14   A    
C38   C49   S    
C56   C57   A    
C34   C41   S    
N2    Zn2   S    
C3    H8    S    
C14   H3    S    
C10   C21   A    
O3    Zn1   S    
C23   O5    A    
C13   H17   S    
C44   C45   A    
C46   H14   S    
C8    C41   T    
C4    C6    S    
C35   H32   S    
C36   H20   S    
C53   C54   A    
C18   C19   A    
C45   H13   S    
C17   C21   A    
C28   C55   S    
C12   C40   S    
C29   C30   A    
C1    O2    A    
C43   C48   A    
C14   C15   A    
C16   C20   A    
C58   C59   A    
C17   C18   A    
C11   H2    S    
C51   C52   A    
C37   N1    A    
C4    C38   S    
C26   H21   S    
C39   C43   S    
C49   C54   A    
C2    C5    S    
C9    H11   S    
C51   H23   S    
C3    C4    S    
C48   H16   S    
C47   H15   S    
C54   H26   S    
C22   H10   S    
C30   N2    A    
C15   C17   A    
C57   H28   S    
C31   C32   A    
C33   H19   S    
O2    Zn2   S    
C3    C5    S    
C52   H24   S    
C10   C23   S    
C37   H18   S    
O5    Zn1   S    
C32   C33   A    
C29   C31   A    
O4    Zn2   S    
C11   C13   A    
C38   C39   S    
N1    Zn1   S    
C56   H27   S    
C2    C42   S    
C34   O8    A    
C33   C35   A    
C43   C44   A    
C6    H7    S    
C46   C47   A    
C36   N1    A    
C19   H34   S    
O6    Zn2   S    
C9    C18   A    
C23   O6    A    
C1    C24   S    
C49   C50   A    
C27   C28   A    
C6    C39   S    
C58   H29   S    
C55   C60   A    
C20   H4    S    
C15   C16   A    
