data_mof_unit_24035.cif
_audit_creation_date              2012-12-10T16:51:16-0500
_audit_creation_method            fapswitch 2.2
_symmetry_space_group_name_H-M    P1
_symmetry_Int_Tables_number       1
_space_group_crystal_system       triclinic
_cell_length_a                    27.856095
_cell_length_b                    8.664023
_cell_length_c                    7.485519
_cell_angle_alpha                 103.490375
_cell_angle_beta                  94.415838
_cell_angle_gamma                 93.671861
_cell_volume                      1745.26184509

loop_
_atom_site_label
_atom_site_type_symbol
_atom_type_description
_atom_site_fract_x
_atom_site_fract_y
_atom_site_fract_z
_atom_type_partial_charge
C1    C     C_R   0.498437 0.199535 0.452735 0.870953
C2    C     C_R   0.501563 0.800465 0.547265 0.870954
C3    C     C_R   0.102194 0.505703 0.505286 -0.079679
C4    C     C_R   0.897806 0.494287 0.494737 -0.079679
C5    C     C_R   0.124089 0.362227 0.448214 -0.008257
C6    C     C_R   0.875911 0.637763 0.551812 -0.008257
C7    C     C_R   0.095592 0.217978 0.393353 -0.109921
C8    C     C_R   0.904408 0.782011 0.606681 -0.109922
C9    C     C_R   0.131612 0.651190 0.565160 -0.081482
C10   C     C_R   0.868389 0.348801 0.434856 -0.081484
C11   C     C_R   0.354909 0.508025 0.508147 -0.088562
C12   C     C_R   0.645091 0.491974 0.491855 -0.088565
C13   C     C_R   0.970883 0.353106 0.436969 0.006266
C14   C     C_R   0.029117 0.646885 0.563056 0.006267
C15   C     C_R   0.977875 0.644718 0.557234 0.066471
C16   C     C_R   0.022125 0.355272 0.442795 0.066471
C17   C     C_R   0.949043 0.497234 0.496668 0.074121
C18   C     C_R   0.050957 0.502756 0.503357 0.074121
C19   C     C_R   0.940515 0.211298 0.368097 -0.252444
C20   C     C_R   0.059486 0.788693 0.631923 -0.252444
C21   C     C_R   0.890493 0.207402 0.365634 0.211870
C22   C     C_R   0.109508 0.792589 0.634383 0.211868
C23   C     C_R   0.407669 0.503665 0.502997 0.812796
C24   C     C_R   0.592331 0.496335 0.497003 0.812799
C25   C     C_R   0.045829 0.213984 0.392324 -0.210164
C26   C     C_R   0.954172 0.786006 0.607712 -0.210162
C27   C     C_2   0.497550 0.031012 0.426723 -0.304606
C28   C     C_2   0.502450 0.968988 0.573277 -0.304605
C29   C     C_R   0.174407 0.365139 0.450337 0.566012
C30   C     C_R   0.825594 0.634851 0.549686 0.566012
C31   C     C_R   0.181996 0.648197 0.554377 0.570142
C32   C     C_R   0.818004 0.351794 0.445630 0.570144
C33   C     C_R   0.283144 0.568650 0.667979 -0.117003
C34   C     C_R   0.716857 0.431358 0.332023 -0.117004
C35   C     C_R   0.333372 0.572432 0.672154 0.147280
C36   C     C_R   0.666629 0.427580 0.327844 0.147283
C37   C     C_R   0.324991 0.446533 0.343127 -0.204684
C38   C     C_R   0.675008 0.553450 0.656881 -0.204679
C39   C     C_R   0.274988 0.446765 0.340494 -0.080550
C40   C     C_R   0.725011 0.553214 0.659517 -0.080550
C41   C     C_R   0.253815 0.506705 0.503163 0.295351
C42   C     C_R   0.746186 0.493287 0.496846 0.295358
Cu1   Cu    Cu3+1 0.505380 0.517380 0.684380 1.127235
Cu2   Cu    Cu3+1 0.494620 0.482620 0.315620 1.127234
H1    H     H_    0.340228 0.397357 0.215239 0.206824
H2    H     H_    0.659771 0.602615 0.784771 0.206829
H3    H     H_    0.252638 0.400075 0.211791 0.171328
H4    H     H_    0.747360 0.599891 0.788225 0.171323
H5    H     H_    0.111709 0.106098 0.351669 0.202758
H6    H     H_    0.888292 0.893890 0.648369 0.202757
H7    H     H_    0.733368 0.383772 0.206596 0.170494
H8    H     H_    0.266634 0.616246 0.793405 0.170498
H9    H     H_    0.954345 0.099585 0.309384 0.158561
H10   H     H_    0.045656 0.900407 0.690633 0.158560
H11   H     H_    0.027327 0.096595 0.353280 0.143013
H12   H     H_    0.972674 0.903394 0.646765 0.143013
H13   H     H_    0.492798 0.957830 0.286208 0.213287
H14   H     H_    0.507202 0.042170 0.713792 0.213286
N1    N     N_R   0.202190 0.506640 0.501484 -0.470219
N2    N     N_R   0.797810 0.493351 0.498529 -0.470220
N3    N     N_2   0.486510 0.456430 0.038510 0.122302
N4    N     N_2   0.513490 0.543570 0.961490 0.122304
O1    O     O_R   0.503500 0.286120 0.619780 -0.551240
O2    O     O_R   0.496500 0.713880 0.380220 -0.551240
O3    O     O_R   0.494410 0.256780 0.308360 -0.560610
O4    O     O_R   0.505590 0.743220 0.691640 -0.560609
O5    O     O_R   0.434810 0.514700 0.655690 -0.534444
O6    O     O_R   0.565190 0.485300 0.344310 -0.534444
O7    O     O_R   0.425720 0.485350 0.344280 -0.566000
O8    O     O_R   0.574280 0.514650 0.655720 -0.566001
O9    O     O_2   0.195533 0.227277 0.402915 -0.490310
O10   O     O_2   0.804468 0.772713 0.597115 -0.490310
O11   O     O_2   0.789176 0.215255 0.408460 -0.467719
O12   O     O_2   0.210824 0.784736 0.591534 -0.467720
Cl1   Cl    Cl    0.442969 0.316508 0.907115 -0.464228
Cl2   Cl    Cl    0.557030 0.683494 0.092885 -0.464227
I1    I     I_    0.628323 0.310198 0.069301 -0.240687
I2    I     I_    0.371681 0.689838 0.930684 -0.240679
I3    I     I_    0.853880 0.979481 0.235639 -0.254266
I4    I     I_    0.146121 0.020508 0.764380 -0.254269

loop_
_geom_bond_atom_site_label_1
_geom_bond_atom_site_label_2
_ccdc_geom_bond_type
C8    C26   A    
C14   C18   A    
C34   C42   A    
C24   O8    A    
C39   C41   A    
Cu2   O2    S    
C33   H8    S    
C34   H7    S    
C19   C21   A    
C36   I1    S    
C9    C22   A    
C31   N1    A    
C3    C18   A    
C40   H4    S    
C23   O5    A    
C11   C37   A    
C23   O7    A    
C29   N1    A    
C30   N2    A    
C1    O3    A    
C12   C36   A    
C19   H9    S    
C40   C42   A    
N4    Cl2   S    
Cu2   O3    S    
C1    O1    A    
C2    O2    A    
C5    C29   A    
C10   C21   A    
C13   C19   A    
Cu1   O1    S    
C14   C20   A    
C7    H5    S    
C20   H10   S    
C27   H13   S    
C42   N2    S    
C32   O11   S    
C5    C7    A    
C9    C31   A    
C15   C26   A    
C6    C8    A    
C3    C5    A    
N3    Cl1   S    
Cu1   Cu2   S    
Cu1   O5    S    
C3    C9    A    
C21   I3    S    
Cu2   O7    S    
C41   N1    S    
C4    C17   A    
C4    C6    A    
C6    C30   A    
C20   C22   A    
Cu1   O8    S    
Cu2   O6    S    
C32   N2    A    
C37   H1    S    
C8    H6    S    
C39   H3    S    
C16   C25   A    
C15   C17   A    
C25   H11   S    
C2    O4    A    
C26   H12   S    
C30   O10   S    
C28   H14   S    
Cu2   N3    S    
C12   C24   S    
C35   I2    S    
C7    C25   A    
C13   C17   A    
C33   C41   A    
C11   C35   A    
C22   I4    S    
C37   C39   A    
C38   C40   A    
Cu1   O4    S    
C11   C23   S    
C33   C35   A    
C34   C36   A    
C12   C38   A    
N3    N4    D    
C31   O12   S    
C38   H2    S    
C24   O6    A    
C10   C32   A    
C16   C18   A    
C13   C16   A    
C27   C28   D    
C1    C27   S    
C14   C15   A    
C2    C28   S    
C4    C10   A    
Cu1   N4    S    
C29   O9    S    
