data_mof_unit_13764.cif
_audit_creation_date              2012-12-10T20:44:06-0500
_audit_creation_method            fapswitch 2.2
_symmetry_space_group_name_H-M    P1
_symmetry_Int_Tables_number       1
_space_group_crystal_system       triclinic
_cell_length_a                    17.4263
_cell_length_b                    10.642759
_cell_length_c                    9.846824
_cell_angle_alpha                 89.641457
_cell_angle_beta                  89.96299
_cell_angle_gamma                 89.602024
_cell_volume                      1826.15034923

loop_
_atom_site_label
_atom_site_type_symbol
_atom_type_description
_atom_site_fract_x
_atom_site_fract_y
_atom_site_fract_z
_atom_type_partial_charge
C1    C     C_R   0.503594 0.260345 0.500382 0.963892
C2    C     C_R   0.115450 0.421608 0.498671 0.136760
C3    C     C_R   0.461538 0.065099 0.593112 0.085934
C4    C     C_R   0.353186 0.496776 0.500125 0.840670
C5    C     C_R   0.509502 0.128227 0.503320 -0.253129
C6    C     C_R   0.564348 0.061748 0.425407 0.436746
C7    C     C_R   0.559530 0.931450 0.422821 -0.298455
C8    C     C_R   0.503447 0.871281 0.500440 -0.174430
C9    C     C_R   0.459030 0.937169 0.592808 0.149983
C10   C     C_3   0.373945 0.935532 0.611792 -0.474099
C11   C     C_3   0.376797 0.077886 0.612383 -0.483012
C12   C     C_R   0.886050 0.429693 0.496283 -0.006170
C13   C     C_R   0.442880 0.440983 0.071793 0.163705
C14   C     C_R   0.552463 0.567146 0.071533 -0.099140
C15   C     C_R   0.552484 0.567121 0.927437 -0.100422
C16   C     C_R   0.499135 0.739719 0.499640 0.911707
C17   C     C_R   0.442708 0.441610 0.929026 0.181444
C18   C     C_3   0.422628 0.305909 0.922352 -0.525632
C19   C     C_3   0.424268 0.303964 0.077180 -0.135261
C20   C     C_R   0.646948 0.499408 0.499827 0.936967
C21   C     C_R   0.847804 0.442397 0.620014 -0.195635
C22   C     C_R   0.769935 0.469425 0.621596 -0.142893
C23   C     C_1   0.966672 0.414628 0.498967 0.077080
C24   C     C_R   0.730060 0.484323 0.498960 -0.092511
C25   C     C_R   0.769002 0.473114 0.374719 -0.209720
C26   C     C_R   0.847085 0.445096 0.372287 0.504095
C27   C     C_3   0.346527 0.277950 0.144920 -0.380740
C28   C     C_3   0.326651 0.138104 0.139072 -0.365088
C29   C     C_3   0.250803 0.112114 0.211195 -0.835290
C30   C     C_1   0.034830 0.411953 0.499678 0.000209
C31   C     C_R   0.155295 0.419475 0.621366 -0.167173
C32   C     C_R   0.233042 0.446550 0.622350 -0.195037
C33   C     C_R   0.270738 0.476418 0.500325 -0.034575
C34   C     C_R   0.230022 0.477619 0.377397 -0.231101
C35   C     C_R   0.152383 0.450082 0.376738 -0.115735
H1    H     H_    0.878417 0.432544 0.715348 0.163344
H2    H     H_    0.468917 0.247801 0.876197 0.224227
H3    H     H_    0.740934 0.477087 0.718554 0.175802
H4    H     H_    0.472042 0.246330 0.119590 0.235258
H5    H     H_    0.738331 0.484033 0.279782 0.198367
H6    H     H_    0.126005 0.399483 0.716134 0.146635
H7    H     H_    0.263495 0.443664 0.718199 0.153950
H8    H     H_    0.257946 0.500285 0.282149 0.155705
H9    H     H_    0.120800 0.453953 0.281978 0.179023
H10   H     H_    0.254322 0.139949 0.319570 0.257650
H11   H     H_    0.203343 0.165261 0.161435 0.272433
H12   H     H_    0.598950 0.876758 0.361434 0.198929
H13   H     H_    0.237956 0.010196 0.206320 0.256037
H14   H     H_    0.322022 0.107892 0.031535 0.233275
H15   H     H_    0.372792 0.081849 0.189077 0.230530
H16   H     H_    0.350212 0.305554 0.253140 0.228732
H17   H     H_    0.300286 0.334805 0.095839 0.201584
H18   H     H_    0.862889 0.431761 0.001846 0.381851
H19   H     H_    0.654057 0.281648 0.189144 0.391300
H20   H     H_    0.343112 0.896778 0.522629 0.200487
H21   H     H_    0.357317 0.894438 0.711535 0.207865
H22   H     H_    0.347691 0.122421 0.523651 0.197061
H23   H     H_    0.361776 0.118798 0.712487 0.203201
H24   H     H_    0.595690 0.619363 0.125642 0.156286
H25   H     H_    0.595752 0.619288 0.872578 0.155584
H26   H     H_    0.364866 0.292425 0.877111 0.186731
N1    N     N_R   0.499490 0.499140 0.142800 -0.109239
N2    N     N_R   0.499490 0.499180 0.857150 -0.105760
O1    O     O_R   0.500010 0.316790 0.614690 -0.615831
O2    O     O_2   0.936144 0.306803 0.209164 -0.282334
O3    O     O_3   0.831432 0.439743 0.085221 -0.567220
O4    O     O_2   0.684074 0.214334 0.442354 -0.324220
O5    O     O_2   0.696279 0.039018 0.284268 -0.263817
O6    O     O_3   0.610036 0.227570 0.213523 -0.563331
O7    O     O_R   0.500000 0.316760 0.385350 -0.583420
O8    O     O_R   0.389120 0.500020 0.614710 -0.619215
O9    O     O_R   0.389110 0.499990 0.385370 -0.636984
O10   O     O_R   0.500000 0.683240 0.614650 -0.613982
O11   O     O_R   0.499990 0.683210 0.385310 -0.621060
O12   O     O_R   0.610890 0.500010 0.614630 -0.623801
O13   O     O_R   0.610880 0.499980 0.385290 -0.611197
O14   O     O_2   0.951864 0.535244 0.200163 -0.314842
S1    S     S_3+6 0.894624 0.430960 0.214100 0.022541
S2    S     S_3+6 0.641959 0.135627 0.341146 0.034667
Zn1   Zn    Zn3+2 0.500010 0.500020 0.653130 0.962176
Zn2   Zn    Zn3+2 0.499990 0.499980 0.346870 0.971077

loop_
_geom_bond_atom_site_label_1
_geom_bond_atom_site_label_2
_ccdc_geom_bond_type
C2    C35   A    
C15   H25   S    
C7    C8    A    
C21   H1    S    
O14   S1    D    
C14   H24   S    
C12   C23   S    
C26   S1    S    
C16   O11   A    
C28   C29   S    
C18   H2    S    
C18   C19   S    
C25   H5    S    
C5    C6    A    
C22   H3    S    
C20   O13   A    
C34   C35   A    
O7    Zn2   S    
C28   H15   S    
C13   N1    A    
C20   C24   S    
C8    C9    A    
C11   H23   S    
C19   C27   S    
C9    C10   S    
O9    Zn2   S    
O5    S2    D    
C8    C16   S    
C21   C22   A    
O1    Zn1   S    
O8    Zn1   S    
C27   H16   S    
C17   C18   S    
N2    Zn1   S    
O3    S1    S    
C13   C19   S    
C29   H13   S    
C16   O10   A    
C23   C30   T    
O4    S2    D    
C24   C25   A    
C25   C26   A    
C12   C21   A    
C20   O12   A    
C12   C26   A    
C2    C31   A    
C7    H12   S    
H18   O3    S    
C28   H14   S    
C31   C32   A    
C33   C34   A    
C35   H9    S    
C19   H4    S    
C3    C9    A    
N1    Zn2   S    
C1    C5    S    
O6    S2    S    
O11   Zn2   S    
C1    O1    A    
C4    O9    A    
C10   H21   S    
C27   H17   S    
O12   Zn1   S    
C4    C33   S    
C15   N2    A    
O2    S1    D    
C31   H6    S    
C34   H8    S    
C3    C5    A    
O13   Zn2   S    
C18   H26   S    
C6    C7    A    
C1    O7    A    
C13   C17   A    
C29   H11   S    
C2    C30   S    
C32   C33   A    
C17   N2    A    
C6    S2    S    
H19   O6    S    
O10   Zn1   S    
C22   C24   A    
C10   H20   S    
C3    C11   S    
C10   C11   S    
C29   H10   S    
C27   C28   S    
C32   H7    S    
C14   C15   A    
C11   H22   S    
C4    O8    A    
C14   N1    A    
