data_mof_unit_16079.cif
_audit_creation_date              2012-12-10T16:46:06-0500
_audit_creation_method            fapswitch 2.2
_symmetry_space_group_name_H-M    P1
_symmetry_Int_Tables_number       1
_space_group_crystal_system       triclinic
_cell_length_a                    10.738512
_cell_length_b                    8.663393
_cell_length_c                    7.507882
_cell_angle_alpha                 103.134985
_cell_angle_beta                  94.303821
_cell_angle_gamma                 92.171093
_cell_volume                      677.194671672

loop_
_atom_site_label
_atom_site_type_symbol
_atom_type_description
_atom_site_fract_x
_atom_site_fract_y
_atom_site_fract_z
_atom_type_partial_charge
C1    C     C_R   0.491894 0.199924 0.453569 0.927446
C2    C     C_3   0.877513 0.475319 0.497320 -0.141442
C3    C     C_3   0.927805 0.638185 0.467018 -0.499973
C4    C     C_3   0.923270 0.343949 0.336971 0.276197
C5    C     C_2   0.486070 0.031449 0.428116 -0.295766
C6    C     C_2   0.502858 0.968283 0.572992 -0.308616
C7    C     C_R   0.260490 0.497428 0.501918 0.773108
C8    C     C_R   0.502810 0.800050 0.546825 0.879799
C9    C     C_R   0.738757 0.484259 0.496433 0.875642
C10   C     C_3   0.081902 0.446284 0.680766 -0.434818
C11   C     C_3   0.940159 0.462947 0.689747 0.323009
C12   C     C_3   0.072057 0.650259 0.485183 -0.410722
C13   C     C_3   0.066785 0.358094 0.338209 -0.393302
C14   C     C_3   0.123037 0.489265 0.503285 0.014207
Cu1   Cu    Cu3+1 0.514070 0.517380 0.684380 1.009830
Cu2   Cu    Cu3+1 0.485930 0.482620 0.315620 0.976770
H1    H     H_    0.131444 0.525873 0.805532 0.168804
H2    H     H_    0.886679 0.373621 0.210690 0.183814
H3    H     H_    0.106018 0.685540 0.362835 0.189599
H4    H     H_    0.893021 0.652874 0.328630 0.234243
H5    H     H_    0.470924 0.959218 0.288684 0.176833
H6    H     H_    0.518040 0.040499 0.712447 0.188563
H7    H     H_    0.403021 0.376404 0.948797 0.222277
H8    H     H_    0.595934 0.624862 0.051447 0.260368
H9    H     H_    0.107416 0.323009 0.680321 0.217753
H10   H     H_    0.930339 0.579581 0.786139 0.132882
H11   H     H_    0.106630 0.744412 0.608171 0.193086
H12   H     H_    0.893200 0.738565 0.568576 0.230901
H13   H     H_    0.091397 0.386782 0.207465 0.204661
H14   H     H_    0.109657 0.244144 0.343642 0.171292
N1    N     N_2   0.464720 0.456420 0.038520 -0.233951
N2    N     N_2   0.535280 0.543580 0.961480 -0.203318
O1    O     O_R   0.509140 0.286130 0.619770 -0.578629
O2    O     O_R   0.485380 0.256770 0.308360 -0.576586
O3    O     O_R   0.329570 0.514650 0.655700 -0.604705
O4    O     O_R   0.305810 0.485300 0.344290 -0.596209
O5    O     O_R   0.514620 0.743230 0.691640 -0.575810
O6    O     O_R   0.490860 0.713870 0.380230 -0.586415
O7    O     O_R   0.694190 0.514700 0.655710 -0.524795
O8    O     O_R   0.670430 0.485350 0.344300 -0.588307
S1    S     S_3+6 0.868332 0.323092 0.802877 0.031347
O9    O     O_2   0.780411 0.200751 0.676894 -0.197387
O10   O     O_2   0.966617 0.241371 0.894134 -0.285832
O11   O     O_3   0.783276 0.428576 0.960997 -0.576713
H15   H     H_    0.721531 0.349945 0.986135 0.384257
S2    S     S_3+6 0.871840 0.138270 0.306786 0.037643
O12   O     O_2   0.733006 0.121946 0.312216 -0.266905
O13   O     O_2   0.902900 0.048147 0.121104 -0.260682
O14   O     O_3   0.944589 0.056481 0.466543 -0.476039
H16   H     H_    0.015136 0.001061 0.407731 0.332591

loop_
_geom_bond_atom_site_label_1
_geom_bond_atom_site_label_2
_ccdc_geom_bond_type
C2    C4    S    
H8    N2    S    
S1    O9    D    
N1    N2    D    
C4    H2    S    
C2    C3    S    
C1    O1    A    
C3    H4    S    
C4    S2    S    
C13   C14   S    
Cu2   O4    S    
Cu2   N1    S    
S1    O10   D    
S2    O14   S    
Cu1   O7    S    
C8    O6    A    
Cu2   O8    S    
C1    C5    S    
C2    C11   S    
C10   H9    S    
C13   H13   S    
C3    H12   S    
C12   C14   S    
C1    O2    A    
C11   S1    S    
C10   C11   S    
C7    C14   S    
C10   C14   S    
C5    C6    D    
S1    O11   S    
S2    O13   D    
C8    O5    A    
C10   H1    S    
Cu1   Cu2   S    
C6    H6    S    
C13   H14   S    
C9    O7    A    
C5    H5    S    
O11   H15   S    
C12   H3    S    
O14   H16   S    
C7    O4    A    
Cu1   O3    S    
C4    C13   S    
S2    O12   D    
Cu1   O5    S    
C6    C8    S    
C3    C12   S    
C12   H11   S    
C11   H10   S    
Cu2   O2    S    
C2    C9    S    
C7    O3    A    
Cu1   O1    S    
C9    O8    A    
Cu2   O6    S    
H7    N1    S    
Cu1   N2    S    
