data_mof_unit_68513.cif
_audit_creation_date              2012-12-10T16:47:30-0500
_audit_creation_method            fapswitch 2.2
_symmetry_space_group_name_H-M    P1
_symmetry_Int_Tables_number       1
_space_group_crystal_system       triclinic
_cell_length_a                    10.633288
_cell_length_b                    8.771772
_cell_length_c                    7.47501
_cell_angle_alpha                 102.451889
_cell_angle_beta                  94.549235
_cell_angle_gamma                 93.306412
_cell_volume                      676.664223391

loop_
_atom_site_label
_atom_site_type_symbol
_atom_type_description
_atom_site_fract_x
_atom_site_fract_y
_atom_site_fract_z
_atom_type_partial_charge
C1    C     C_R   0.496217 0.200035 0.453772 0.880705
C2    C     C_R   0.503783 0.799965 0.546228 0.880706
C3    C     C_R   0.259285 0.488357 0.500107 0.783982
C4    C     C_R   0.740714 0.511643 0.499893 0.783982
C5    C     C_3   0.030218 0.392900 0.594885 0.056753
C6    C     C_3   0.969782 0.607100 0.405114 0.056754
C7    C     C_3   0.937077 0.362464 0.419264 -0.230735
C8    C     C_3   0.062923 0.637536 0.580736 -0.230735
C9    C     C_3   0.877933 0.514579 0.497981 -0.027399
C10   C     C_3   0.122067 0.485421 0.502019 -0.027399
C11   C     C_3   0.969702 0.544367 0.674268 -0.186122
C12   C     C_3   0.030297 0.455633 0.325732 -0.186122
C13   C     C_2   0.494497 0.032673 0.427714 -0.372451
C14   C     C_2   0.505503 0.967327 0.572286 -0.372451
Cu1   Cu    Cu3+1 0.514140 0.517380 0.684380 0.931546
Cu2   Cu    Cu3+1 0.485860 0.482620 0.315620 0.931546
H1    H     H_    0.877439 0.255017 0.350840 0.138317
H2    H     H_    0.122561 0.744983 0.649159 0.138317
H3    H     H_    0.944599 0.581696 0.817434 0.159189
H4    H     H_    0.055401 0.418304 0.182566 0.159189
H5    H     H_    0.420280 0.359829 0.948191 0.220503
H6    H     H_    0.579720 0.640171 0.051810 0.220503
H7    H     H_    0.484148 0.962563 0.287638 0.176338
H8    H     H_    0.515852 0.037437 0.712362 0.176338
N1    N     N_2   0.464560 0.456420 0.038510 -0.232352
N2    N     N_2   0.535440 0.543580 0.961490 -0.232351
O1    O     O_R   0.509190 0.286130 0.619780 -0.580503
O2    O     O_R   0.490810 0.713870 0.380220 -0.580503
O3    O     O_R   0.485310 0.256770 0.308360 -0.600133
O4    O     O_R   0.514690 0.743230 0.691640 -0.600133
O5    O     O_R   0.328790 0.514640 0.655680 -0.591973
O6    O     O_R   0.671210 0.485360 0.344320 -0.591973
O7    O     O_R   0.304910 0.485280 0.344260 -0.588023
O8    O     O_R   0.695090 0.514720 0.655740 -0.588023
C15   C     C_R   0.058270 0.273211 0.705690 0.092207
C16   C     C_R   0.157826 0.302503 0.846009 -0.168195
C17   C     C_R   0.190068 0.185031 0.937743 -0.171047
C18   C     C_R   0.121286 0.039741 0.892197 -0.124813
C19   C     C_R   0.014091 0.016103 0.766182 -0.164958
C20   C     C_R   0.981933 0.132674 0.674506 -0.147429
H9    H     H_    0.209468 0.416063 0.884970 0.160062
H10   H     H_    0.267460 0.206167 0.045002 0.154309
H11   H     H_    0.148024 0.947609 0.959970 0.145077
H12   H     H_    0.955174 0.907519 0.739349 0.146752
H13   H     H_    0.898146 0.111542 0.578160 0.140393
C21   C     C_R   0.941730 0.726789 0.294310 0.092207
C22   C     C_R   0.018067 0.867325 0.325494 -0.147429
C23   C     C_R   0.985909 0.983897 0.233818 -0.164959
C24   C     C_R   0.878714 0.960260 0.107803 -0.124813
C25   C     C_R   0.809932 0.814969 0.062257 -0.171046
C26   C     C_R   0.842174 0.697497 0.153991 -0.168196
H14   H     H_    0.101854 0.888457 0.421839 0.140393
H15   H     H_    0.044826 0.092481 0.260651 0.146752
H16   H     H_    0.851976 0.052391 0.040030 0.145077
H17   H     H_    0.732539 0.793834 0.954998 0.154308
H18   H     H_    0.790532 0.583938 0.115030 0.160062

loop_
_geom_bond_atom_site_label_1
_geom_bond_atom_site_label_2
_ccdc_geom_bond_type
Cu2   O2    S    
C2    O2    A    
Cu1   O5    S    
C22   H14   S    
Cu2   N1    S    
Cu2   O7    S    
Cu2   O6    S    
Cu1   O8    S    
Cu1   O1    S    
C25   H17   S    
C2    O4    A    
C12   H4    S    
C6    C9    S    
C1    O3    A    
C15   C20   A    
C4    C9    S    
C18   H11   S    
C3    C10   S    
C13   C14   D    
C3    O5    A    
C9    C11   S    
C11   H3    S    
C16   H9    S    
C4    O6    A    
C10   C12   S    
C8    C11   S    
C5    C15   S    
C8    C10   S    
C23   C24   A    
C17   C18   A    
C5    C11   S    
C6    C12   S    
C23   H15   S    
C2    C14   S    
C24   C25   A    
C4    O8    A    
C7    C12   S    
Cu2   O3    S    
C1    C13   S    
C3    O7    A    
C19   H12   S    
Cu1   Cu2   S    
C19   C20   A    
C22   C23   A    
C7    C9    S    
C5    C10   S    
C18   C19   A    
C20   H13   S    
C13   H7    S    
Cu1   O4    S    
C5    C7    S    
C26   H18   S    
H6    N2    S    
C14   H8    S    
C17   H10   S    
C1    O1    A    
H5    N1    S    
C21   C22   A    
C16   C17   A    
Cu1   N2    S    
C6    C8    S    
C6    C21   S    
C25   C26   A    
N1    N2    D    
C21   C26   A    
C8    H2    S    
C24   H16   S    
C7    H1    S    
C15   C16   A    
