data_mof_unit_48501.cif
_audit_creation_date              2012-12-10T20:51:45-0500
_audit_creation_method            fapswitch 2.2
_symmetry_space_group_name_H-M    P1
_symmetry_Int_Tables_number       1
_space_group_crystal_system       triclinic
_cell_length_a                    8.093758
_cell_length_b                    8.914586
_cell_length_c                    16.466918
_cell_angle_alpha                 89.617298
_cell_angle_beta                  96.865351
_cell_angle_gamma                 89.675244
_cell_volume                      1179.55888417

loop_
_atom_site_label
_atom_site_type_symbol
_atom_type_description
_atom_site_fract_x
_atom_site_fract_y
_atom_site_fract_z
_atom_type_partial_charge
C1    C     C_R   0.500387 0.217942 0.500478 0.925152
C2    C     C_R   0.514235 0.352666 0.134107 0.159441
C3    C     C_R   0.595574 0.564595 0.912565 0.221871
C4    C     C_R   0.421907 0.461950 0.086032 0.223807
C5    C     C_R   0.694103 0.456521 0.879000 0.138411
C6    C     C_R   0.321757 0.567107 0.120859 0.138554
C7    C     C_R   0.669335 0.430150 0.793906 0.022108
C8    C     C_R   0.338372 0.582728 0.206802 0.015688
C9    C     C_1   0.500635 0.065202 0.500688 -0.202323
C10   C     C_1   0.499839 0.934782 0.500594 -0.203686
C11   C     C_3   0.627725 0.243502 0.271279 -0.852703
C12   C     C_R   0.499795 0.782049 0.500157 0.928273
C13   C     C_3   0.356859 0.747747 0.722370 -0.832615
C14   C     C_3   0.598430 0.225688 0.093581 -0.893082
C15   C     C_3   0.417560 0.798979 0.901422 -0.905219
C16   C     C_3   0.821476 0.367661 0.935190 -0.915345
C17   C     C_3   0.201312 0.664278 0.065494 -0.910734
C18   C     C_3   0.761051 0.300559 0.757634 -0.387668
C19   C     C_3   0.645857 0.166683 0.736583 -0.354514
C20   C     C_3   0.740456 0.036855 0.702984 -0.854826
C21   C     C_3   0.245795 0.709308 0.245145 -0.382007
C22   C     C_3   0.360798 0.841746 0.269712 -0.360453
C23   C     C_R   0.525460 0.498897 0.655179 0.899759
C24   C     C_3   0.265056 0.969358 0.304756 -0.856032
C25   C     C_R   0.474455 0.501249 0.344865 0.894665
C26   C     C_R   0.551425 0.520800 0.744022 -0.172736
C27   C     C_R   0.448774 0.483945 0.255820 -0.165264
C28   C     C_R   0.471136 0.643998 0.777659 0.110792
C29   C     C_R   0.527648 0.362588 0.219844 0.120921
C30   C     C_R   0.496737 0.667209 0.862734 0.170204
H1    H     H_    0.607523 0.243841 0.336400 0.239155
H2    H     H_    0.451981 0.804050 0.968574 0.256003
H3    H     H_    0.461237 0.905529 0.876246 0.233272
H4    H     H_    0.279923 0.792659 0.889039 0.245387
H5    H     H_    0.790644 0.246458 0.932640 0.243007
H6    H     H_    0.947388 0.385242 0.916581 0.238111
H7    H     H_    0.829280 0.403587 0.999869 0.260427
H8    H     H_    0.197330 0.635088 0.000007 0.260544
H9    H     H_    0.072724 0.647403 0.080737 0.236061
H10   H     H_    0.235995 0.784220 0.072586 0.243417
H11   H     H_    0.792836 0.072409 0.646597 0.270171
H12   H     H_    0.590751 0.129631 0.249875 0.230690
H13   H     H_    0.843046 0.997717 0.749271 0.257882
H14   H     H_    0.654892 0.941871 0.687736 0.250855
H15   H     H_    0.593752 0.127945 0.792532 0.224570
H16   H     H_    0.540723 0.199647 0.690220 0.212914
H17   H     H_    0.818802 0.337767 0.703413 0.223393
H18   H     H_    0.868992 0.259830 0.799706 0.210531
H19   H     H_    0.165739 0.012676 0.257941 0.258435
H20   H     H_    0.208080 0.929681 0.359071 0.272232
H21   H     H_    0.350848 0.062610 0.323776 0.251341
H22   H     H_    0.464246 0.805622 0.316237 0.214960
H23   H     H_    0.762389 0.258732 0.266854 0.247630
H24   H     H_    0.415285 0.884007 0.215135 0.222315
H25   H     H_    0.138760 0.752413 0.203266 0.210428
H26   H     H_    0.186328 0.668238 0.298061 0.223335
H27   H     H_    0.240593 0.687838 0.700056 0.254385
H28   H     H_    0.320182 0.851570 0.752088 0.234214
H29   H     H_    0.419302 0.784537 0.669392 0.221274
H30   H     H_    0.735030 0.229246 0.111368 0.246395
H31   H     H_    0.549685 0.116181 0.112103 0.232493
H32   H     H_    0.574277 0.229632 0.025958 0.256106
N1    N     N_1   0.073640 0.500030 0.499990 -0.038014
N2    N     N_1   0.926360 0.499970 0.500010 -0.036816
N3    N     N_2   0.572500 0.551649 0.995565 -0.170902
N4    N     N_2   0.445066 0.477496 0.003216 -0.170507
O1    O     O_R   0.636850 0.285340 0.500000 -0.618635
O2    O     O_R   0.363150 0.714660 0.500000 -0.614715
O3    O     O_R   0.363100 0.285350 0.500000 -0.610102
O4    O     O_R   0.636900 0.714650 0.500000 -0.611698
O5    O     O_R   0.652140 0.498630 0.616140 -0.622102
O6    O     O_R   0.347860 0.501370 0.383860 -0.621546
O7    O     O_R   0.378390 0.498650 0.616130 -0.610591
O8    O     O_R   0.621610 0.501350 0.383870 -0.605571
Zn1   Zn    Zn3+2 0.682780 0.499990 0.500010 0.965366
Zn2   Zn    Zn3+2 0.317220 0.500010 0.499990 0.963459

loop_
_geom_bond_atom_site_label_1
_geom_bond_atom_site_label_2
_ccdc_geom_bond_type
C3    C30   A    
C2    C4    A    
C19   H15   S    
C13   C28   S    
C13   H29   S    
C25   C27   S    
C13   H27   S    
C14   H30   S    
C9    C10   T    
C15   H4    S    
C26   C28   A    
C19   C20   S    
C11   H23   S    
C16   H7    S    
O6    Zn2   S    
C7    C18   S    
C18   H17   S    
C3    C5    A    
C24   H21   S    
C28   C30   A    
C20   H11   S    
C19   H16   S    
C11   H1    S    
C15   H2    S    
C22   H24   S    
C25   O6    A    
C21   C22   S    
C16   H6    S    
C4    N4    S    
C12   O2    A    
C21   H26   S    
C3    N3    S    
C7    C26   A    
C10   C12   S    
O3    Zn2   S    
C2    C29   A    
C6    C8    A    
C22   H22   S    
C1    O1    A    
N2    Zn1   S    
C23   O7    A    
C8    C21   S    
C17   H8    S    
N3    N4    D    
C16   H5    S    
C24   H20   S    
C2    C14   S    
O7    Zn2   S    
C22   C24   S    
O5    Zn1   S    
O2    Zn2   S    
N1    Zn2   S    
N1    N2    T    
C14   H32   S    
C1    C9    S    
C23   O5    A    
O4    Zn1   S    
C20   H13   S    
O1    Zn1   S    
C27   C29   A    
C11   C29   S    
C15   C30   S    
C4    C6    A    
C25   O8    A    
O8    Zn1   S    
C23   C26   S    
C24   H19   S    
C5    C7    A    
C6    C17   S    
C17   H9    S    
C18   C19   S    
C21   H25   S    
C12   O4    A    
C11   H12   S    
C20   H14   S    
C8    C27   A    
C14   H31   S    
C15   H3    S    
C1    O3    A    
C13   H28   S    
C5    C16   S    
C17   H10   S    
C18   H18   S    
