data_mof_unit_56445.cif
_audit_creation_date              2012-12-10T18:43:04-0500
_audit_creation_method            fapswitch 2.2
_symmetry_space_group_name_H-M    P1
_symmetry_Int_Tables_number       1
_space_group_crystal_system       triclinic
_cell_length_a                    8.731791
_cell_length_b                    19.463547
_cell_length_c                    18.178586
_cell_angle_alpha                 90.868708
_cell_angle_beta                  97.921207
_cell_angle_gamma                 90.303044
_cell_volume                      3059.56538643

loop_
_atom_site_label
_atom_site_type_symbol
_atom_type_description
_atom_site_fract_x
_atom_site_fract_y
_atom_site_fract_z
_atom_type_partial_charge
C1    C     C_R   0.495133 0.367623 0.499111 0.852703
C2    C     C_R   0.504857 0.632376 0.500888 0.852850
C3    C     C_R   0.483476 0.965077 0.565095 -0.163228
C4    C     C_R   0.516400 0.034916 0.434939 -0.163240
C5    C     C_R   0.483850 0.036631 0.565283 -0.165455
C6    C     C_R   0.516019 0.963362 0.434750 -0.165479
C7    C     C_R   0.500164 0.072089 0.500187 0.121590
C8    C     C_R   0.499702 0.927905 0.499844 0.121560
C9    C     C_R   0.380816 0.469866 0.712689 0.085273
C10   C     C_R   0.619167 0.530148 0.287311 0.085420
C11   C     C_R   0.378445 0.469297 0.789791 -0.273940
C12   C     C_R   0.621543 0.530716 0.210210 -0.273867
C13   C     C_R   0.500114 0.499718 0.838528 0.101354
C14   C     C_R   0.499895 0.500280 0.161472 0.101409
C15   C     C_R   0.622240 0.529819 0.806987 -0.265058
C16   C     C_R   0.377785 0.470164 0.193013 -0.265146
C17   C     C_R   0.620144 0.529184 0.729598 0.158612
C18   C     C_R   0.379878 0.470799 0.270403 0.158737
C19   C     C_R   0.559331 0.556255 0.966073 -0.164386
C20   C     C_R   0.440682 0.443742 0.033926 -0.164396
C21   C     C_R   0.559349 0.556394 0.043385 -0.176512
C22   C     C_R   0.440662 0.443604 0.956614 -0.176532
C23   C     C_R   0.203603 0.500088 0.481039 0.914968
C24   C     C_R   0.796397 0.499912 0.518961 0.915235
C25   C     C_R   0.500018 0.500140 0.078674 0.116361
C26   C     C_R   0.499993 0.499857 0.921325 0.116332
C27   C     C_2   0.037877 0.499979 0.470529 -0.326273
C28   C     C_2   0.962123 0.500020 0.529471 -0.326333
C29   C     C_R   0.424021 0.742361 0.442911 -0.241138
C30   C     C_R   0.575848 0.257636 0.557116 -0.241034
C31   C     C_R   0.420673 0.813815 0.441908 -0.151314
C32   C     C_R   0.579160 0.186181 0.558132 -0.151300
C33   C     C_R   0.502883 0.852270 0.500231 0.023105
C34   C     C_R   0.496995 0.147725 0.499797 0.023232
C35   C     C_R   0.590349 0.818386 0.558949 -0.213750
C36   C     C_R   0.409621 0.181612 0.441054 -0.213737
C37   C     C_R   0.596306 0.746679 0.560430 0.450324
C38   C     C_R   0.403718 0.253319 0.439554 0.450449
C39   C     C_R   0.509445 0.707928 0.502165 -0.157499
C40   C     C_R   0.490518 0.292071 0.497835 -0.157424
Cu1   Cu    Cu3+1 0.499960 0.500000 0.573360 0.996474
Cu2   Cu    Cu3+1 0.500040 0.500000 0.426640 0.996629
H1    H     H_    0.977983 0.499797 0.413971 0.170355
H2    H     H_    0.022016 0.500203 0.586029 0.170271
H3    H     H_    0.720233 0.552828 0.841810 0.137707
H4    H     H_    0.279805 0.447143 0.158192 0.137605
H5    H     H_    0.715533 0.552064 0.706478 0.175979
H6    H     H_    0.284502 0.447907 0.293521 0.176029
H7    H     H_    0.603583 0.601087 0.941203 0.142893
H8    H     H_    0.396432 0.398910 0.058795 0.142780
H9    H     H_    0.603579 0.601334 0.075377 0.132779
H10   H     H_    0.396429 0.398665 0.924621 0.132756
H11   H     H_    0.357292 0.713805 0.397715 0.166077
H12   H     H_    0.642542 0.286191 0.602324 0.166092
H13   H     H_    0.351694 0.839039 0.396152 0.144111
H14   H     H_    0.648081 0.160960 0.603906 0.144099
H15   H     H_    0.656554 0.848263 0.603147 0.189599
H16   H     H_    0.343461 0.151735 0.396842 0.189363
H17   H     H_    0.468764 0.938730 0.615734 0.144997
H18   H     H_    0.531132 0.061260 0.384303 0.144956
H19   H     H_    0.468776 0.064249 0.615925 0.136137
H20   H     H_    0.531099 0.935743 0.384109 0.136143
H21   H     H_    0.286741 0.445945 0.676164 0.123471
H22   H     H_    0.713225 0.554082 0.323837 0.123448
H23   H     H_    0.280799 0.445948 0.810861 0.131670
H24   H     H_    0.719178 0.554077 0.189141 0.131662
N1    N     N_R   0.499980 0.500020 0.683620 -0.185377
N2    N     N_R   0.500020 0.499980 0.316380 -0.185356
O1    O     O_R   0.499930 0.400180 0.561970 -0.607548
O2    O     O_R   0.500070 0.599820 0.438030 -0.607538
O3    O     O_R   0.500010 0.400190 0.438070 -0.516146
O4    O     O_R   0.499990 0.599810 0.561930 -0.516304
O5    O     O_R   0.274810 0.500000 0.547650 -0.598970
O6    O     O_R   0.725190 0.500000 0.452350 -0.598912
O7    O     O_R   0.274880 0.500000 0.423750 -0.587350
O8    O     O_R   0.725120 0.500000 0.576250 -0.587329
S1    S     S_3+6 0.718238 0.708935 0.634598 -0.020465
O9    O     O_2   0.620298 0.683664 0.690516 -0.306656
O10   O     O_2   0.805156 0.649939 0.606299 -0.331672
O11   O     O_3   0.846038 0.767284 0.675971 -0.541639
H25   H     H_    0.906129 0.742619 0.717539 0.377466
S2    S     S_3+6 0.281999 0.291059 0.365317 -0.020373
O12   O     O_2   0.195013 0.350081 0.393498 -0.330031
O13   O     O_2   0.380175 0.316290 0.309485 -0.308076
O14   O     O_3   0.154252 0.232719 0.323903 -0.541511
H26   H     H_    0.097615 0.256712 0.280885 0.377228

loop_
_geom_bond_atom_site_label_1
_geom_bond_atom_site_label_2
_ccdc_geom_bond_type
C38   C40   A    
Cu1   Cu2   S    
Cu1   N1    S    
S1    O9    D    
C30   H12   S    
Cu2   O7    S    
C1    O3    A    
Cu1   O1    S    
C19   C21   A    
C36   H16   S    
C20   C25   A    
C18   N2    A    
Cu2   O2    S    
C19   C26   A    
C20   H8    S    
C1    C40   S    
C2    C39   S    
C31   C33   A    
C23   C27   S    
C38   S2    S    
Cu2   N2    S    
C4    H18   S    
C23   O5    A    
C4    C7    A    
C2    O4    A    
S1    O10   D    
C37   C39   A    
C17   N1    A    
Cu2   O6    S    
C5    H19   S    
C24   C28   S    
C4    C6    A    
C3    C8    A    
C16   H4    S    
C5    C7    A    
C24   O8    A    
C6    C8    A    
O14   H26   S    
C12   H24   S    
C28   H2    S    
C1    O1    A    
C32   C34   A    
C9    N1    A    
C19   H7    S    
C29   C39   A    
C30   C40   A    
C9    C11   A    
C10   C12   A    
Cu1   O4    S    
C12   C14   A    
S2    O13   D    
C13   C15   A    
C7    C34   S    
C14   C16   A    
C13   C26   S    
C15   H3    S    
C21   H9    S    
C23   O7    A    
C22   H10   S    
S1    O11   S    
C15   C17   A    
C21   C25   A    
C35   C37   A    
C9    H21   S    
C10   H22   S    
C17   H5    S    
C20   C22   A    
O11   H25   S    
C3    C5    A    
C18   H6    S    
C10   N2    A    
S2    O14   S    
C35   H15   S    
C6    H20   S    
C36   C38   A    
C29   C31   A    
Cu1   O8    S    
C30   C32   A    
C11   C13   A    
C24   O6    A    
C29   H11   S    
Cu2   O3    S    
C33   C35   A    
C34   C36   A    
C8    C33   S    
C14   C25   S    
Cu1   O5    S    
C27   H1    S    
C37   S1    S    
C16   C18   A    
S2    O12   D    
C22   C26   A    
C27   C28   D    
C31   H13   S    
C2    O2    A    
C32   H14   S    
C11   H23   S    
C3    H17   S    
