data_mof_unit_63029.cif
_audit_creation_date              2012-12-10T19:47:48-0500
_audit_creation_method            fapswitch 2.2
_symmetry_space_group_name_H-M    P1
_symmetry_Int_Tables_number       1
_space_group_crystal_system       triclinic
_cell_length_a                    18.305008
_cell_length_b                    18.263489
_cell_length_c                    18.37301
_cell_angle_alpha                 120.058627
_cell_angle_beta                  90.124374
_cell_angle_gamma                 119.815475
_cell_volume                      4346.81379189

loop_
_atom_site_label
_atom_site_type_symbol
_atom_type_description
_atom_site_fract_x
_atom_site_fract_y
_atom_site_fract_z
_atom_type_partial_charge
Br1   Br    Br    0.815952 0.672353 0.964461 -0.408911
Br2   Br    Br    0.226426 0.367113 0.030551 -0.407344
Br3   Br    Br    0.066333 0.484922 0.313548 -0.437572
Br4   Br    Br    0.339925 0.754301 0.513796 -0.302134
Br5   Br    Br    0.145439 0.402339 0.529453 -0.411534
Br6   Br    Br    0.256478 0.650362 0.636344 -0.368156
Br7   Br    Br    0.855348 0.709066 0.754302 -0.494609
Br8   Br    Br    0.199864 0.129382 0.197022 -0.308260
Br9   Br    Br    0.072697 0.872919 0.067635 -0.309141
Br10  Br    Br    0.356583 0.869048 0.211559 -0.416691
Br11  Br    Br    0.538389 0.284610 0.152226 -0.382812
Br12  Br    Br    0.660481 0.313285 0.539620 -0.469640
Br13  Br    Br    0.832350 0.776919 0.453848 -0.415676
Br14  Br    Br    0.578839 0.871814 0.561717 -0.276844
Br15  Br    Br    0.703582 0.129649 0.693936 -0.359239
C1    C     C_R   0.639962 0.779931 0.638558 0.534135
C2    C     C_R   0.170140 0.945787 0.172729 0.168647
C3    C     C_R   0.187274 0.891382 0.196168 0.023368
C4    C     C_R   0.358540 0.220231 0.360118 0.525931
C5    C     C_R   0.249003 0.946548 0.279159 -0.061736
C6    C     C_3   0.319501 0.938116 0.308247 0.117349
C7    C     C_3   0.379525 0.057101 0.366992 0.213296
C8    C     C_R   0.785278 0.568974 0.337487 -0.012121
C9    C     C_R   0.694317 0.491189 0.303132 0.036472
C10   C     C_R   0.658908 0.407400 0.211099 0.144214
C11   C     C_R   0.714023 0.410597 0.157996 -0.103743
C12   C     C_3   0.642057 0.440105 0.739683 -0.046393
C13   C     C_R   0.804436 0.494569 0.194866 0.006790
C14   C     C_R   0.837730 0.570350 0.285771 -0.004189
C15   C     C_3   0.917568 0.675579 0.357741 0.032887
C16   C     C_R   0.361246 0.501362 0.641366 0.565556
C17   C     C_3   0.857930 0.674480 0.417825 0.245224
C18   C     C_R   0.778684 0.946447 0.750830 -0.019822
C19   C     C_R   0.696963 0.891569 0.687249 0.010285
C20   C     C_R   0.676669 0.945668 0.666467 0.178664
C21   C     C_R   0.730887 0.055063 0.721536 0.154203
C22   C     C_R   0.805487 0.108444 0.795608 0.017193
C23   C     C_3   0.699214 0.503217 0.702353 0.045665
C24   C     C_R   0.831768 0.052626 0.803967 0.026249
C25   C     C_3   0.860819 0.057153 0.883306 -0.030950
C26   C     C_3   0.801680 0.938977 0.823827 -0.238173
C27   C     C_R   0.292100 0.581257 0.340602 0.028724
C28   C     C_R   0.639645 0.497848 0.359865 0.549230
C29   C     C_R   0.315581 0.511645 0.304148 -0.000186
C30   C     C_R   0.298592 0.453874 0.211761 -0.089410
C31   C     C_R   0.245203 0.452004 0.155882 0.151590
C32   C     C_R   0.206339 0.507345 0.193610 0.057861
C33   C     C_R   0.235597 0.575602 0.286118 -0.015035
C34   C     C_3   0.801233 0.500581 0.801569 -0.005974
C35   C     C_3   0.188799 0.600940 0.351557 0.042389
C36   C     C_3   0.254161 0.611250 0.413731 0.088463
C37   C     C_R   0.264595 0.550917 0.712938 0.012050
C38   C     C_R   0.313160 0.509377 0.704962 0.058200
C39   C     C_R   0.318496 0.481721 0.763437 0.076729
C40   C     C_R   0.360563 0.501701 0.359369 0.538701
C41   C     C_R   0.263751 0.481221 0.817981 0.077799
C42   C     C_R   0.204854 0.508793 0.813490 0.047853
C43   C     C_R   0.212067 0.550754 0.766164 -0.024251
C44   C     C_3   0.141738 0.532083 0.704358 -0.008605
C45   C     C_3   0.828355 0.613284 0.846143 0.059171
C46   C     C_3   0.201049 0.534190 0.645329 0.291639
C47   C     C_R   0.860169 0.499511 0.139742 0.532414
C48   C     C_R   0.141290 0.501014 0.861319 0.539813
C49   C     C_R   0.138101 0.779679 0.139760 0.567284
C50   C     C_R   0.860121 0.220017 0.858531 0.557519
C51   C     C_R   0.142168 0.500455 0.140212 0.566784
C52   C     C_R   0.641315 0.502462 0.643731 0.532495
C53   C     C_R   0.858703 0.499422 0.858243 0.527872
C54   C     C_3   0.745917 0.453591 0.646666 0.034175
C55   C     C_3   0.807386 0.453601 0.705038 -0.049599
C56   C     C_3   0.701222 0.430961 0.790086 -0.194081
C57   C     C_3   0.773251 0.616290 0.784622 0.018181
C58   C     C_R   0.301635 0.052757 0.332679 -0.062221
C59   C     C_R   0.295851 0.108646 0.305015 -0.002253
C60   C     C_R   0.224699 0.055149 0.227599 0.176402
H1    H     H_    0.786288 0.498535 0.620738 0.218450
H2    H     H_    0.742967 0.902678 0.842678 0.143034
H3    H     H_    0.323151 0.406147 0.182067 0.199048
H4    H     H_    0.196874 0.674424 0.374598 0.184986
H5    H     H_    0.223347 0.554543 0.430852 0.210448
H6    H     H_    0.076899 0.455789 0.674446 0.172247
H7    H     H_    0.900736 0.665502 0.859797 0.208337
H8    H     H_    0.586175 0.360397 0.683355 0.192949
H9    H     H_    0.678103 0.348655 0.752041 0.155074
H10   H     H_    0.433567 0.181426 0.498335 0.266138
H11   H     H_    0.346531 0.071184 0.478915 0.223547
H12   H     H_    0.692837 0.451329 0.856092 0.206001
H13   H     H_    0.436388 0.079419 0.276090 0.256884
H14   H     H_    0.490077 0.183554 0.381740 0.251639
H15   H     H_    0.970556 0.610995 0.385767 0.278475
H16   H     H_    0.036260 0.741616 0.445251 0.273071
H17   H     H_    0.848002 0.683720 0.533090 0.300777
H18   H     H_    0.874587 0.602529 0.468753 0.233765
H19   H     H_    0.760904 0.065664 0.931458 0.249593
H20   H     H_    0.840723 0.088275 0.001819 0.270496
H21   H     H_    0.423187 0.503664 0.831543 0.236342
H22   H     H_    0.341276 0.378001 0.749399 0.246658
H23   H     H_    0.740270 0.653251 0.822045 0.203838
H24   H     H_    0.332080 0.502048 0.921542 0.253230
H25   H     H_    0.250263 0.376616 0.838837 0.260328
H26   H     H_    0.932108 0.585408 0.741446 0.276691
H27   H     H_    0.934506 0.486270 0.724252 0.265396
H28   H     H_    0.194250 0.689168 0.782009 0.291834
H29   H     H_    0.098107 0.612341 0.695935 0.283896
H30   H     H_    0.562045 0.494368 0.767277 0.264295
H31   H     H_    0.562415 0.441029 0.818500 0.248785
H32   H     H_    0.299927 0.903941 0.346673 0.155247
H33   H     H_    0.685821 0.347216 0.087932 0.183607
H34   H     H_    0.936863 0.733244 0.342572 0.184300
H35   H     H_    0.933506 0.092189 0.905897 0.204732
H36   H     H_    0.840583 0.905131 0.809998 0.198509
H37   H     H_    0.782672 0.371956 0.675674 0.210378
N1    N     N_3   0.404125 0.102003 0.462729 -0.527160
N2    N     N_3   0.603858 0.489387 0.800414 -0.610699
N3    N     N_3   0.457394 0.103339 0.341696 -0.464452
N4    N     N_3   0.992593 0.673625 0.382104 -0.568853
N5    N     N_3   0.886878 0.674333 0.492338 -0.556070
N6    N     N_3   0.829816 0.102495 0.955803 -0.600980
N7    N     N_3   0.378299 0.453412 0.766528 -0.604993
N8    N     N_3   0.267020 0.451961 0.876656 -0.548539
N9    N     N_3   0.898426 0.505219 0.701950 -0.600898
N10   N     N_3   0.131855 0.617725 0.746278 -0.575667
O1    O     O_3   0.500000 0.500000 0.500000 -0.484841
O2    O     O_R   0.945140 0.268320 0.884430 -0.524011
O3    O     O_R   0.116800 0.560590 0.177500 -0.522946
O4    O     O_R   0.676800 0.731580 0.616070 -0.515443
O5    O     O_R   0.822390 0.439230 0.883130 -0.526364
O6    O     O_R   0.116800 0.439160 0.056060 -0.489832
O7    O     O_R   0.943840 0.560660 0.883130 -0.531151
O8    O     O_R   0.115490 0.731510 0.054770 -0.484763
O9    O     O_R   0.823160 0.268340 0.883890 -0.505506
O10   O     O_R   0.945140 0.560620 0.176740 -0.504605
O11   O     O_R   0.116030 0.439190 0.884430 -0.497845
O12   O     O_R   0.384470 0.439280 0.616070 -0.509436
O13   O     O_R   0.384470 0.268410 0.445190 -0.551504
O14   O     O_R   0.383920 0.560720 0.615530 -0.503814
O15   O     O_R   0.554810 0.439290 0.323210 -0.492591
O16   O     O_R   0.383160 0.560750 0.443890 -0.494517
O17   O     O_R   0.677560 0.560680 0.616830 -0.506476
O18   O     O_R   0.383160 0.439320 0.322450 -0.525130
O19   O     O_R   0.556120 0.439250 0.616830 -0.555099
O20   O     O_R   0.676800 0.560710 0.445190 -0.536470
O21   O     O_R   0.554810 0.731590 0.615530 -0.497497
O22   O     O_R   0.383920 0.268420 0.323210 -0.483321
O23   O     O_3   0.999960 0.499910 0.999960 -0.484164
O24   O     O_R   0.823160 0.439210 0.054770 -0.542052
O25   O     O_R   0.115490 0.560640 0.883890 -0.523747
O26   O     O_R   0.116030 0.731490 0.176740 -0.538033
Zn1   Zn    Zn3+2 0.457010 0.413240 0.543760 0.956850
Zn2   Zn    Zn3+2 0.456230 0.586760 0.542990 1.048572
Zn3   Zn    Zn3+2 0.456230 0.413270 0.369490 1.043052
Zn4   Zn    Zn3+2 0.630520 0.586730 0.543760 0.990414
Zn5   Zn    Zn3+2 0.042950 0.586670 0.956190 1.013887
Zn6   Zn    Zn3+2 0.043720 0.586650 0.130470 1.006158
Zn7   Zn    Zn3+2 0.043720 0.413150 0.956960 1.025151
Zn8   Zn    Zn3+2 0.869430 0.413180 0.956190 1.000203

loop_
_geom_bond_atom_site_label_1
_geom_bond_atom_site_label_2
_ccdc_geom_bond_type
C25   N6    S    
Br12  C54   S    
H14   N3    S    
C4    O22   A    
C34   C53   S    
C58   C59   A    
Br13  C17   S    
C20   C21   A    
C29   C40   S    
C17   N5    S    
C35   H4    S    
O1    Zn1   S    
O16   Zn2   S    
O19   Zn1   S    
C57   H23   S    
C30   C31   A    
Br2   C31   S    
C18   C24   A    
C34   C45   S    
C27   C29   A    
H31   N2    S    
H11   N1    S    
C8    C14   A    
Br6   C46   S    
O9    Zn8   S    
O22   Zn3   S    
C47   O24   A    
C37   C46   S    
C26   H2    S    
H29   N10   S    
C45   C57   S    
C12   C23   S    
C4    O13   A    
O17   Zn4   S    
H16   N4    S    
C54   H1    S    
C19   C20   A    
C50   O2    A    
O20   Zn4   S    
C36   H5    S    
H21   N7    S    
O6    Zn7   S    
C1    C19   S    
H24   N8    S    
C31   C32   A    
O23   Zn8   S    
O4    Zn4   S    
O21   Zn2   S    
C51   O6    A    
C22   C50   S    
O10   Zn6   S    
C8    C9    A    
C30   H3    S    
H25   N8    S    
H15   N4    S    
C15   C17   S    
H27   N9    S    
C52   O17   A    
C32   C51   S    
C27   C36   S    
O23   Zn5   S    
C44   N10   S    
C33   C35   S    
O1    Zn2   S    
H20   N6    S    
C6    C7    S    
C49   O26   A    
C41   N8    S    
C53   O7    A    
O26   Zn6   S    
C16   O12   A    
O25   Zn5   S    
C48   O25   A    
C50   O9    A    
Br3   C35   S    
C42   C48   S    
C23   C57   S    
C7    N1    S    
Br10  C6    S    
C39   C41   A    
C44   C46   S    
C59   C60   A    
Br4   C36   S    
C47   O10   A    
H30   N2    S    
C1    O21   A    
C9    C10   A    
Br1   C45   S    
C11   H33   S    
Br7   C57   S    
C25   H35   S    
C15   H34   S    
C35   C36   S    
C43   C44   S    
O13   Zn1   S    
O12   Zn1   S    
Br8   C60   S    
H26   N9    S    
C40   O18   A    
C15   N4    S    
O23   Zn7   S    
H22   N7    S    
H17   N5    S    
C7    N3    S    
C14   C15   S    
C32   C33   A    
O18   Zn3   S    
C5    C6    S    
C2    C3    A    
Br5   C46   S    
C27   C33   A    
C37   C38   A    
C16   C38   S    
C40   O16   A    
C53   O5    A    
C6    H32   S    
C37   C43   A    
C56   H12   S    
O23   Zn6   S    
Br9   C2    S    
C25   C26   S    
C49   O8    A    
C34   C55   S    
C34   C56   S    
C41   C42   A    
C52   O19   A    
C48   O11   A    
Br15  C21   S    
Br14  C20   S    
C12   C56   S    
O3    Zn6   S    
C56   H9    S    
O1    Zn4   S    
C13   C14   A    
O11   Zn7   S    
O1    Zn3   S    
C29   C30   A    
C44   H6    S    
C16   O14   A    
O5    Zn8   S    
O14   Zn2   S    
C38   C39   A    
C11   C13   A    
H18   N5    S    
C51   O3    A    
C18   C26   S    
C8    C17   S    
C45   H7    S    
H13   N3    S    
C12   H8    S    
C10   C11   A    
C22   C24   A    
O7    Zn5   S    
H19   N6    S    
C55   N9    S    
C3    C49   S    
C42   C43   A    
H10   N1    S    
C18   C19   A    
C5    C58   A    
C28   O15   A    
O8    Zn5   S    
C3    C5    A    
C4    C59   S    
C54   C55   S    
C55   H37   S    
C23   C54   S    
C24   C25   S    
C12   N2    S    
O24   Zn8   S    
C23   C52   S    
C21   C22   A    
C26   H36   S    
O2    Zn7   S    
C2    C60   A    
C9    C28   S    
Br11  C10   S    
O15   Zn3   S    
C28   O20   A    
C7    C58   S    
C39   N7    S    
H28   N10   S    
C1    O4    A    
C13   C47   S    
