data_mof_unit_67905.cif
_audit_creation_date              2012-12-10T17:49:42-0500
_audit_creation_method            fapswitch 2.2
_symmetry_space_group_name_H-M    P1
_symmetry_Int_Tables_number       1
_space_group_crystal_system       triclinic
_cell_length_a                    10.646303
_cell_length_b                    10.663916
_cell_length_c                    9.982802
_cell_angle_alpha                 93.752673
_cell_angle_beta                  90.889563
_cell_angle_gamma                 92.958517
_cell_volume                      1129.21966673

loop_
_atom_site_label
_atom_site_type_symbol
_atom_type_description
_atom_site_fract_x
_atom_site_fract_y
_atom_site_fract_z
_atom_type_partial_charge
C1    C     C_R   0.513450 0.261001 0.495878 0.943898
C2    C     C_R   0.572537 0.070833 0.601210 -0.166061
C3    C     C_R   0.523351 0.125884 0.488486 -0.116973
C4    C     C_R   0.258336 0.508030 0.499022 0.925713
C5    C     C_R   0.446641 0.054764 0.394064 -0.351425
C6    C     C_R   0.422873 0.926971 0.408244 0.490012
C7    C     C_R   0.473326 0.874014 0.520793 -0.122366
C8    C     C_R   0.349986 0.329733 0.137894 -0.139219
C9    C     C_R   0.282591 0.231125 0.075814 -0.360598
C10   C     C_R   0.264380 0.224976 0.939704 0.168489
C11   C     C_R   0.329788 0.313197 0.858548 0.523758
C12   C     C_3   0.960748 0.619379 0.449630 0.066630
C13   C     C_R   0.416833 0.412783 0.923318 -0.028726
C14   C     C_R   0.420758 0.416385 0.068403 0.085119
C15   C     C_R   0.581513 0.574494 0.078248 -0.188065
C16   C     C_R   0.491651 0.740161 0.505852 0.897732
C17   C     C_R   0.584054 0.573280 0.934822 0.330951
C18   C     C_R   0.742445 0.502931 0.500751 0.937058
C19   C     C_3   0.041353 0.407887 0.545737 -0.257237
C20   C     C_3   0.955908 0.414702 0.421129 0.155967
C21   C     C_3   0.877699 0.510045 0.500551 -0.196410
C22   C     C_3   0.963207 0.504898 0.626348 -0.150542
C23   C     C_3   0.037589 0.523015 0.369731 0.506947
C24   C     C_3   0.046132 0.612858 0.573461 0.215164
C25   C     C_3   0.991652 0.218614 0.291368 -0.876155
C26   C     C_3   0.647444 0.026645 0.093563 -0.361954
C27   C     C_3   0.331723 0.850970 0.834427 -0.283688
C28   C     C_3   0.357389 0.857774 0.193665 -0.185995
C29   C     C_3   0.044766 0.189574 0.888530 -0.833173
C30   C     C_3   0.271682 0.193241 0.655631 -0.265383
C31   C     C_3   0.735699 0.754584 0.935765 -0.859880
C32   C     C_3   0.013125 0.789775 0.732821 -0.841807
C33   C     C_3   0.995854 0.822337 0.348218 -0.742017
C34   C     C_3   0.123660 0.516940 0.495072 -0.189721
C35   C     C_3   0.993245 0.525100 0.141686 -0.355660
C36   C     C_3   0.835560 0.137828 0.586491 -0.325309
C37   C     C_3   0.765967 0.294061 0.957709 -0.800264
C38   C     C_R   0.652853 0.140401 0.694864 0.507114
C39   C     C_R   0.633623 0.129788 0.831345 0.011229
C40   C     C_R   0.571146 0.018548 0.871356 0.304854
C41   C     C_R   0.522682 0.926612 0.771027 0.468201
C42   C     C_R   0.525918 0.952250 0.631376 -0.245271
H1    H     H_    0.649672 0.632494 0.139074 0.147026
H2    H     H_    0.062305 0.266744 0.229665 0.270619
H3    H     H_    0.641650 0.119024 0.150199 0.202877
H4    H     H_    0.739825 0.019932 0.043398 0.166850
H5    H     H_    0.644466 0.956036 0.170329 0.175523
H6    H     H_    0.289984 0.893029 0.746193 0.142834
H7    H     H_    0.324441 0.916693 0.923902 0.165066
H8    H     H_    0.276501 0.763104 0.853350 0.208511
H9    H     H_    0.291932 0.787651 0.138270 0.184281
H10   H     H_    0.454395 0.829129 0.172532 0.201019
H11   H     H_    0.340379 0.950806 0.155428 0.165255
H12   H     H_    0.344288 0.334321 0.243109 0.235312
H13   H     H_    0.164712 0.052976 0.933041 0.211439
H14   H     H_    0.973602 0.117335 0.846459 0.245517
H15   H     H_    0.044580 0.272577 0.826868 0.268421
H16   H     H_    0.019866 0.218440 0.992804 0.245267
H17   H     H_    0.172005 0.159430 0.657971 0.170871
H18   H     H_    0.334548 0.121964 0.691114 0.154472
H19   H     H_    0.284280 0.202688 0.547107 0.148759
H20   H     H_    0.751361 0.580472 0.835838 0.229082
H21   H     H_    0.815000 0.735563 0.003963 0.207896
H22   H     H_    0.662546 0.801250 0.994099 0.293868
H23   H     H_    0.232966 0.164479 0.136202 0.166785
H24   H     H_    0.769685 0.818316 0.859126 0.250059
H25   H     H_    0.161866 0.774658 0.599816 0.224441
H26   H     H_    0.062326 0.872959 0.786435 0.227463
H27   H     H_    0.971592 0.729488 0.808813 0.253416
H28   H     H_    0.937651 0.822937 0.667897 0.263180
H29   H     H_    0.828842 0.712630 0.341825 0.219295
H30   H     H_    0.068164 0.856667 0.424579 0.263975
H31   H     H_    0.944607 0.904695 0.318841 0.212359
H32   H     H_    0.041871 0.780679 0.258073 0.274069
H33   H     H_    0.025219 0.578482 0.055648 0.190731
H34   H     H_    0.082109 0.324938 0.584163 0.174394
H35   H     H_    0.902801 0.563251 0.175221 0.147651
H36   H     H_    0.977630 0.425457 0.104381 0.186901
H37   H     H_    0.804785 0.114159 0.480588 0.204543
H38   H     H_    0.849413 0.049377 0.637712 0.133466
H39   H     H_    0.928597 0.186471 0.587522 0.198876
H40   H     H_    0.580475 0.242373 0.996291 0.245287
H41   H     H_    0.756681 0.383218 0.019492 0.212849
H42   H     H_    0.821767 0.316374 0.869010 0.291957
H43   H     H_    0.814287 0.228623 0.019879 0.225945
H44   H     H_    0.932230 0.496433 0.731071 0.149905
H45   H     H_    0.397796 0.100586 0.316612 0.169729
H46   H     H_    0.838091 0.329479 0.269148 0.234935
H47   H     H_    0.942075 0.140628 0.229143 0.231362
H48   H     H_    0.040679 0.177933 0.375979 0.242815
N1    N     N_R   0.498800 0.498800 0.142780 -0.117370
N2    N     N_R   0.498760 0.498720 0.857170 -0.106277
N3    N     N_2   0.901888 0.306645 0.341088 -0.291361
N4    N     N_2   0.167101 0.137670 0.888661 -0.322362
N5    N     N_2   0.683156 0.638776 0.870107 -0.248719
N6    N     N_2   0.101308 0.719703 0.653443 -0.295687
N7    N     N_2   0.907986 0.731529 0.401951 -0.318866
N8    N     N_2   0.642552 0.241261 0.918561 -0.266996
O1    O     O_R   0.500000 0.316780 0.614690 -0.558629
O2    O     O_3   0.457459 0.821703 0.813323 -0.541622
O3    O     O_3   0.331137 0.856738 0.331202 -0.635096
O4    O     O_3   0.294565 0.313659 0.724383 -0.568396
O5    O     O_3   0.089017 0.536095 0.241485 -0.575892
O6    O     O_3   0.750052 0.217290 0.652277 -0.593529
O7    O     O_R   0.499990 0.316750 0.385360 -0.673557
O8    O     O_R   0.313960 0.499980 0.614650 -0.547156
O9    O     O_R   0.313940 0.499960 0.385310 -0.604872
O10   O     O_R   0.500010 0.683250 0.614640 -0.557745
O11   O     O_R   0.500000 0.683220 0.385310 -0.610353
O12   O     O_R   0.686060 0.500040 0.614690 -0.603848
O13   O     O_R   0.686040 0.500020 0.385350 -0.663922
O14   O     O_3   0.542100 0.002224 0.005092 -0.616019
Zn1   Zn    Zn3+2 0.500010 0.500020 0.653130 1.045307
Zn2   Zn    Zn3+2 0.499990 0.499980 0.346870 0.940878

loop_
_geom_bond_atom_site_label_1
_geom_bond_atom_site_label_2
_ccdc_geom_bond_type
C27   H6    S    
C31   H24   S    
C20   N3    S    
C19   C34   S    
C25   N3    S    
C18   C21   S    
C28   H10   S    
C41   C42   A    
C19   C20   S    
C1    O1    A    
C40   O14   S    
H29   N7    S    
C12   C23   S    
C35   H33   S    
C25   H48   S    
C37   H43   S    
C19   H34   S    
C35   O5    S    
C24   N6    S    
C38   C39   A    
C28   H9    S    
C6    O3    S    
C10   N4    S    
C7    C42   A    
C38   O6    S    
C33   H30   S    
C28   O3    S    
C23   O5    S    
H20   N5    S    
C8    C9    A    
C30   H18   S    
C37   H42   S    
C17   N5    S    
O13   Zn2   S    
N2    Zn1   S    
C26   H3    S    
C27   H8    S    
C32   H26   S    
C13   C14   A    
H40   N8    S    
C17   N2    A    
H13   N4    S    
C25   H2    S    
C37   N8    S    
C16   O11   A    
C4    O9    A    
C4    C34   S    
C27   O2    S    
O8    Zn1   S    
C31   H21   S    
O7    Zn2   S    
C19   C22   S    
C18   O13   A    
C36   H38   S    
C8    H12   S    
C39   C40   A    
C26   H4    S    
C39   N8    S    
C32   H28   S    
C4    O8    A    
C12   C21   S    
C35   H35   S    
C24   C34   S    
C1    C3    S    
O10   Zn1   S    
O9    Zn2   S    
C2    C38   A    
C20   C23   S    
C36   H39   S    
C23   C34   S    
C30   H17   S    
C30   O4    S    
C41   O2    S    
C20   C21   S    
O12   Zn1   S    
C12   N7    S    
C6    C7    A    
O11   Zn2   S    
C26   H5    S    
C33   H31   S    
C40   C41   A    
C32   N6    S    
C29   H15   S    
C13   N2    A    
H25   N6    S    
C22   C24   S    
C26   O14   S    
C9    C10   A    
C15   C17   A    
H46   N3    S    
C7    C16   S    
C8    C14   A    
C31   H22   S    
C18   O12   A    
C3    C5    A    
C36   H37   S    
O1    Zn1   S    
C28   H11   S    
C32   H27   S    
C29   H14   S    
C12   C24   S    
C35   H36   S    
C25   H47   S    
N1    Zn2   S    
C36   O6    S    
C2    C3    A    
C15   H1    S    
C11   C13   A    
C5    C6    A    
C2    C42   A    
C31   N5    S    
C29   N4    S    
C11   O4    S    
C33   N7    S    
C22   H44   S    
C9    H23   S    
C14   N1    A    
C10   C11   A    
C16   O10   A    
C15   N1    A    
C5    H45   S    
C33   H32   S    
C29   H16   S    
C30   H19   S    
C37   H41   S    
C21   C22   S    
C27   H7    S    
C1    O7    A    
