data_mof_unit_24950.cif
_audit_creation_date              2012-10-26T19:41:11-0400
_audit_creation_method            fapswitch 2.2
_symmetry_space_group_name_H-M    P1
_symmetry_Int_Tables_number       1
_space_group_crystal_system       triclinic
_cell_length_a                    11.652975
_cell_length_b                    11.133147
_cell_length_c                    9.995743
_cell_angle_alpha                 112.338531
_cell_angle_beta                  96.505614
_cell_angle_gamma                 93.502962
_cell_volume                      1184.06844917

loop_
_atom_site_label
_atom_site_type_symbol
_atom_type_description
_atom_site_fract_x
_atom_site_fract_y
_atom_site_fract_z
_atom_type_partial_charge
C1    C     C_R   0.493672 0.254290 0.440168 0.532534
C2    C     C_2   0.514874 0.885400 0.593060 -0.110099
C3    C     C_2   0.511493 0.070239 0.517880 0.219920
C4    C     C_2   0.477902 0.931972 0.490747 0.249914
C5    C     C_2   0.505927 0.522619 0.088690 0.469973
C6    C     C_2   0.479016 0.504496 0.926760 0.488544
C7    C     C_3   0.295636 0.874395 0.355056 -0.002637
C8    C     C_3   0.226812 0.785013 0.409523 -0.245969
C9    C     C_3   0.100577 0.813310 0.412857 -0.499520
C10   C     C_3   0.679935 0.170754 0.671089 0.020122
C11   C     C_3   0.730173 0.260306 0.828214 -0.237671
C12   C     C_R   0.506673 0.745515 0.560122 0.520444
C13   C     C_3   0.862585 0.281096 0.848839 -0.509005
C14   C     C_3   0.283962 0.527568 0.899171 0.012701
C15   C     C_3   0.199489 0.476673 0.977598 -0.284720
C16   C     C_3   0.097241 0.556999 0.009300 -0.503802
C17   C     C_3   0.696176 0.600782 0.192517 0.072249
C18   C     C_3   0.771481 0.705942 0.326811 -0.226388
C19   C     C_3   0.769507 0.843066 0.326736 -0.400586
C20   C     C_3   0.702038 0.723151 0.908486 0.077878
C21   C     C_3   0.821977 0.673416 0.917248 -0.298759
C22   C     C_3   0.906207 0.741845 0.854149 -0.485043
C23   C     C_R   0.284588 0.499267 0.501734 0.524649
C24   C     C_3   0.345978 0.245910 0.048791 0.081004
C25   C     C_3   0.370395 0.103934 0.010482 -0.250385
C26   C     C_3   0.268217 0.021424 0.028196 -0.504356
C27   C     C_R   0.715018 0.496590 0.497184 0.504400
C28   C     C_1   0.162867 0.497702 0.504081 -0.052630
C29   C     C_1   0.836316 0.493468 0.493305 -0.059956
C30   C     C_1   0.059774 0.495551 0.501136 -0.068068
C31   C     C_1   0.939236 0.493474 0.495635 -0.070114
C32   C     C_2   0.487742 0.114293 0.409380 -0.130713
Cu1   Cu    Cu3+1 0.519790 0.521810 0.644910 1.001613
Cu2   Cu    Cu3+1 0.480210 0.478190 0.355090 0.988951
H1    H     H_    0.558085 0.950444 0.700878 0.089344
H2    H     H_    0.707447 0.216282 0.596236 0.139821
H3    H     H_    0.715524 0.074973 0.644179 0.096523
H4    H     H_    0.695971 0.356508 0.856023 0.175069
H5    H     H_    0.702569 0.216463 0.904180 0.173644
H6    H     H_    0.898985 0.186337 0.824005 0.143155
H7    H     H_    0.895757 0.346106 0.964086 0.138519
H8    H     H_    0.891999 0.327420 0.775995 0.150336
H9    H     H_    0.231198 0.531470 0.801946 0.172010
H10   H     H_    0.319318 0.630963 0.969931 0.115783
H11   H     H_    0.163847 0.374416 0.907135 0.160831
H12   H     H_    0.456144 0.046336 0.298187 0.095319
H13   H     H_    0.244606 0.481206 0.083145 0.174741
H14   H     H_    0.127120 0.663273 0.056776 0.144268
H15   H     H_    0.049927 0.533404 0.088185 0.144335
H16   H     H_    0.036603 0.531702 0.906420 0.150928
H17   H     H_    0.732964 0.594442 0.095569 0.130891
H18   H     H_    0.707000 0.501081 0.186614 0.116444
H19   H     H_    0.740017 0.708226 0.428145 0.166527
H20   H     H_    0.862162 0.681106 0.329820 0.095090
H21   H     H_    0.806692 0.849775 0.232442 0.139571
H22   H     H_    0.822515 0.914820 0.428425 0.098433
H23   H     H_    0.258638 0.852689 0.239884 0.135137
H24   H     H_    0.679354 0.869942 0.323147 0.209139
H25   H     H_    0.714570 0.829196 0.978777 0.113078
H26   H     H_    0.681310 0.721763 0.801131 0.202032
H27   H     H_    0.860975 0.697117 0.031721 0.131560
H28   H     H_    0.814770 0.565998 0.856300 0.179487
H29   H     H_    0.870980 0.728096 0.740814 0.148258
H30   H     H_    0.991335 0.702834 0.852080 0.149574
H31   H     H_    0.920874 0.848316 0.922545 0.132198
H32   H     H_    0.276650 0.244982 0.963307 0.123753
H33   H     H_    0.313327 0.284618 0.155339 0.172883
H34   H     H_    0.283876 0.978543 0.418571 0.117389
H35   H     H_    0.387374 0.061160 0.895329 0.172974
H36   H     H_    0.449400 0.100250 0.081474 0.185412
H37   H     H_    0.251681 0.060361 0.143514 0.137661
H38   H     H_    0.288631 0.919119 0.998338 0.151423
H39   H     H_    0.188680 0.021525 0.955587 0.139898
H40   H     H_    0.229375 0.681557 0.336143 0.193368
H41   H     H_    0.266477 0.799752 0.521804 0.158115
H42   H     H_    0.095818 0.916677 0.485069 0.147893
H43   H     H_    0.054672 0.749339 0.456781 0.151474
H44   H     H_    0.056550 0.794009 0.300992 0.141409
N1    N     N_2   0.450460 0.445430 0.137370 -0.086330
N2    N     N_2   0.549540 0.554570 0.862630 -0.068847
O1    O     O_R   0.510560 0.332330 0.577400 -0.416604
O2    O     O_3   0.557506 0.154609 0.659489 -0.542741
O3    O     O_3   0.370662 0.441621 0.850984 -0.543081
O4    O     O_3   0.579088 0.629885 0.187574 -0.501813
O5    O     O_3   0.612921 0.667271 0.961026 -0.522433
O6    O     O_3   0.447099 0.319293 0.043821 -0.501302
O7    O     O_R   0.489440 0.667670 0.422600 -0.398556
O8    O     O_R   0.477140 0.295500 0.332650 -0.513072
O9    O     O_R   0.522860 0.704500 0.667350 -0.544687
O10   O     O_R   0.353910 0.518430 0.622380 -0.473769
O11   O     O_R   0.646090 0.481570 0.377620 -0.502210
O12   O     O_R   0.320490 0.481600 0.377630 -0.540637
O13   O     O_R   0.679510 0.518400 0.622370 -0.530328
O14   O     O_3   0.413643 0.849758 0.357501 -0.543767

loop_
_geom_bond_atom_site_label_1
_geom_bond_atom_site_label_2
_ccdc_geom_bond_type
C2    H1    S    
C19   H22   S    
C27   C29   S    
C26   H38   S    
C15   H13   S    
C2    C12   S    
C17   H17   S    
C13   H7    S    
C7    C8    S    
C10   H3    S    
C16   H16   S    
C5    C6    S    
C1    O1    A    
C15   C16   S    
C26   H39   S    
C18   C19   S    
Cu2   O11   S    
C13   H6    S    
C24   H33   S    
C22   H29   S    
C8    C9    S    
C27   O11   A    
C9    H42   S    
C5    N1    D    
C21   H27   S    
C18   H19   S    
C24   H32   S    
C9    H44   S    
C1    O8    A    
C7    H34   S    
C21   C22   S    
C26   H37   S    
C16   H14   S    
C14   O3    S    
C17   H18   S    
C13   H8    S    
Cu1   Cu2   S    
C19   H24   S    
C12   O9    A    
C16   H15   S    
C5    O4    S    
C9    H43   S    
C25   C26   S    
C10   O2    S    
C8    H41   S    
C11   H4    S    
C2    C4    D    
C22   H31   S    
N2    O5    S    
Cu1   O9    S    
Cu2   N1    S    
C6    N2    D    
C20   O5    S    
C3    O2    S    
C8    H40   S    
C17   C18   S    
C23   O10   A    
Cu2   O8    S    
C23   C28   S    
C24   C25   S    
C20   H25   S    
C11   H5    S    
C21   H28   S    
C4    O14   S    
C27   O13   A    
C20   H26   S    
C15   H11   S    
C3    C4    S    
C14   H10   S    
C19   H21   S    
C7    O14   S    
C6    O3    S    
C12   O7    A    
C23   O12   A    
C32   H12   S    
Cu1   O13   S    
Cu1   N2    S    
C17   O4    S    
C28   C30   T    
C29   C31   T    
Cu1   O10   S    
C11   C13   S    
C30   C31   S    
Cu1   O1    S    
Cu2   O7    S    
C1    C32   S    
C3    C32   D    
Cu2   O12   S    
C10   C11   S    
C18   H20   S    
C22   H30   S    
C25   H35   S    
C20   C21   S    
C14   C15   S    
C10   H2    S    
C25   H36   S    
C24   O6    S    
C7    H23   S    
N1    O6    S    
C14   H9    S    
