data_mof_unit_41969.cif
_audit_creation_date              2012-12-10T16:51:33-0500
_audit_creation_method            fapswitch 2.2
_symmetry_space_group_name_H-M    P1
_symmetry_Int_Tables_number       1
_space_group_crystal_system       triclinic
_cell_length_a                    7.906217
_cell_length_b                    8.524486
_cell_length_c                    12.424994
_cell_angle_alpha                 94.190981
_cell_angle_beta                  103.017163
_cell_angle_gamma                 92.834277
_cell_volume                      811.825734264

loop_
_atom_site_label
_atom_site_type_symbol
_atom_type_description
_atom_site_fract_x
_atom_site_fract_y
_atom_site_fract_z
_atom_type_partial_charge
C1    C     C_R   0.046289 0.794761 0.504892 0.832612
C2    C     C_R   0.186579 0.609595 0.821420 -0.072966
C3    C     C_2   0.078482 0.958077 0.536542 0.272985
C4    C     C_R   0.114046 0.537220 0.707128 0.885207
C5    C     C_2   0.940492 0.042998 0.504855 -0.435002
C6    C     C_R   0.960756 0.206989 0.508584 1.005914
C7    C     C_R   0.890641 0.491973 0.291225 0.905560
C8    C     C_R   0.840016 0.428553 0.985626 -0.184611
C9    C     C_R   0.828993 0.498843 0.173460 -0.050404
C10   C     C_R   0.076304 0.674262 0.882328 -0.246898
C11   C     C_R   0.136731 0.720080 0.993882 -0.169505
C12   C     C_R   0.427101 0.632906 0.987440 -0.067301
C13   C     C_R   0.305610 0.691067 0.050856 0.353650
C14   C     C_R   0.366657 0.618200 0.870219 0.057924
C15   C     C_R   0.598729 0.578570 0.027296 0.077361
C16   C     C_R   0.690352 0.510070 0.950423 0.157121
C17   C     C_R   0.638156 0.533575 0.839615 -0.233898
C18   C     C_R   0.488267 0.606956 0.804054 -0.101317
C19   C     C_R   0.683976 0.584415 0.137996 -0.170624
C20   C     C_R   0.906963 0.419320 0.097668 -0.167159
H1    H     H_    0.020127 0.353322 0.124958 0.176603
H2    H     H_    0.268577 0.080073 0.333543 0.404143
H3    H     H_    0.325846 0.478830 0.211899 0.362342
H4    H     H_    0.309625 0.974870 0.825082 0.384035
H5    H     H_    0.816762 0.991062 0.454275 0.200314
H6    H     H_    0.530969 0.648059 0.561585 0.173285
H7    H     H_    0.714375 0.498416 0.780928 0.178405
H8    H     H_    0.905546 0.373359 0.926446 0.167351
H9    H     H_    0.647592 0.659743 0.199021 0.245389
H10   H     H_    0.942779 0.691130 0.843464 0.189328
H11   H     H_    0.044340 0.769798 0.036744 0.206904
H12   H     H_    0.463207 0.646142 0.722286 0.179477
N1    N     N_2   0.434800 0.456690 0.470850 0.140981
N2    N     N_2   0.565200 0.543310 0.529150 -0.127218
O1    O     O_R   0.893060 0.738880 0.507150 -0.637251
O2    O     O_2   0.517845 0.163782 0.502963 -0.229561
O3    O     O_3   0.263267 0.196037 0.335671 -0.536184
O4    O     O_2   0.477708 0.862132 0.237864 -0.280577
O5    O     O_2   0.176924 0.776624 0.230246 -0.332872
O6    O     O_3   0.400605 0.565950 0.258983 -0.519878
O7    O     O_2   0.413334 0.927854 0.636060 -0.307183
O8    O     O_2   0.308546 0.187933 0.668585 -0.243872
O9    O     O_3   0.201232 0.959652 0.766024 -0.591231
O10   O     O_R   0.172250 0.711130 0.488470 -0.578258
O11   O     O_R   0.944700 0.520730 0.667600 -0.655241
O12   O     O_R   0.223890 0.492980 0.648920 -0.618075
O13   O     O_R   0.827750 0.288870 0.511530 -0.543986
O14   O     O_R   0.106940 0.261120 0.492850 -0.539414
O15   O     O_R   0.776110 0.507020 0.351080 -0.551903
O16   O     O_R   0.055300 0.479270 0.332400 -0.569914
O17   O     O_2   0.578564 0.269090 0.335640 -0.266014
S1    S     S_3+6 0.457654 0.269862 0.412586 0.208458
S2    S     S_3+6 0.340285 0.729467 0.197376 -0.005190
S3    S     S_3+6 0.258230 0.014471 0.651251 0.044290
Zn1   Zn    Zn3+2 0.813580 0.518530 0.512470 1.082590
Zn2   Zn    Zn3+2 0.186420 0.481470 0.487530 1.141282

loop_
_geom_bond_atom_site_label_1
_geom_bond_atom_site_label_2
_ccdc_geom_bond_type
C2    C4    S    
O10   Zn2   S    
O9    S3    S    
O2    S1    D    
C12   C15   A    
O14   Zn2   S    
C1    O10   A    
N1    Zn2   S    
N1    N2    D    
C11   H11   S    
N2    Zn1   S    
C8    C16   A    
C8    C20   A    
O8    S3    D    
N1    S1    S    
C15   C19   A    
C12   C13   A    
C11   C13   A    
O11   Zn1   S    
O5    S2    D    
O4    S2    D    
C6    O14   A    
C5    H5    S    
C12   C14   A    
C17   C18   A    
C13   S2    S    
C4    O11   A    
C5    C6    S    
C2    C14   A    
C3    S3    S    
O7    S3    D    
C18   H12   S    
C10   C11   A    
O3    S1    S    
O1    Zn1   S    
H3    O6    S    
C17   H7    S    
C3    C5    D    
O17   S1    D    
C20   H1    S    
C7    O15   A    
C8    H8    S    
O13   Zn1   S    
O6    S2    S    
C6    O13   A    
O12   Zn2   S    
C7    C9    S    
H4    O9    S    
C10   H10   S    
C4    O12   A    
C9    C20   A    
C1    O1    A    
H6    N2    S    
O15   Zn1   S    
H2    O3    S    
C14   C18   A    
C9    C19   A    
C2    C10   A    
O16   Zn2   S    
C15   C16   A    
C7    O16   A    
C16   C17   A    
C1    C3    S    
C19   H9    S    
