data_mof_unit_34777.cif
_audit_creation_date              2012-12-10T16:59:20-0500
_audit_creation_method            fapswitch 2.2
_symmetry_space_group_name_H-M    P1
_symmetry_Int_Tables_number       1
_space_group_crystal_system       triclinic
_cell_length_a                    13.063612
_cell_length_b                    13.081343
_cell_length_c                    18.01744
_cell_angle_alpha                 110.13807
_cell_angle_beta                  73.092733
_cell_angle_gamma                 91.211886
_cell_volume                      2755.10248064

loop_
_atom_site_label
_atom_site_type_symbol
_atom_type_description
_atom_site_fract_x
_atom_site_fract_y
_atom_site_fract_z
_atom_type_partial_charge
C1    C     C_R   0.216325 0.542513 0.531900 0.752850
C2    C     C_R   0.504613 0.365910 0.919112 -0.188839
C3    C     C_R   0.556355 0.298166 0.944867 0.176645
C4    C     C_R   0.782110 0.456537 0.468802 0.676760
C5    C     C_R   0.574747 0.341591 0.022910 -0.088336
C6    C     C_R   0.520214 0.444299 0.079263 -0.023450
C7    C     C_R   0.641546 0.284942 0.048259 0.362690
C8    C     C_R   0.638259 0.320425 0.131769 0.293297
C9    C     C_R   0.501617 0.467311 0.165080 0.074261
C10   C     C_2   0.897313 0.440062 0.456970 0.357153
C11   C     C_2   0.931707 0.482903 0.523698 -0.350227
C12   C     C_R   0.377789 0.697152 0.868430 -0.375617
C13   C     C_2   0.098809 0.555067 0.546740 0.195610
C14   C     C_2   0.046157 0.467201 0.517174 0.455067
C15   C     C_2   0.540257 0.897220 0.531256 0.381522
C16   C     C_R   0.473184 0.216557 0.474085 0.849362
C17   C     C_2   0.518192 0.929638 0.473958 -0.267184
C18   C     C_2   0.464521 0.100273 0.463194 -0.351885
C19   C     C_2   0.540694 0.039166 0.470517 0.274993
C20   C     C_R   0.528551 0.782516 0.523955 0.677097
C21   C     C_R   0.551315 0.433402 0.277335 0.914698
C22   C     C_R   0.449595 0.566508 0.723414 0.865294
C23   C     C_R   0.477011 0.527274 0.843202 0.389267
C24   C     C_R   0.432898 0.596574 0.813111 -0.198246
C25   C     C_R   0.566717 0.409372 0.189778 -0.179905
C26   C     C_R   0.369580 0.731300 0.952568 0.465282
C27   C     C_3   0.810099 0.232439 0.959316 0.125834
C28   C     C_3   0.887507 0.134599 0.897936 -0.825413
C29   C     C_3   0.052120 0.285910 0.503539 0.124734
C30   C     C_3   0.127008 0.181544 0.465511 -0.809436
C31   C     C_3   0.068438 0.728837 0.551857 0.112276
C32   C     C_3   0.988766 0.829862 0.595808 -0.821910
C33   C     C_3   0.928915 0.306622 0.326342 0.112883
C34   C     C_R   0.454979 0.553493 0.929750 -0.092145
C35   C     C_3   0.020068 0.237230 0.252135 -0.773814
C36   C     C_3   0.650939 0.076938 0.472089 -0.728537
C37   C     C_3   0.645053 0.923970 0.619945 0.104180
C38   C     C_3   0.710318 0.011586 0.660273 -0.849086
C39   C     C_3   0.402762 0.537870 0.229970 -0.889986
C40   C     C_3   0.658328 0.174767 0.170029 0.149192
C41   C     C_3   0.714426 0.135838 0.219847 -0.869582
C42   C     C_3   0.580603 0.178600 0.891646 -0.802741
C43   C     C_3   0.214249 0.836947 0.032226 0.091888
C44   C     C_3   0.166725 0.950809 0.092428 -0.819532
C45   C     C_R   0.411988 0.661303 0.982849 -0.000370
C46   C     C_3   0.653582 0.465857 0.778228 0.151320
C47   C     C_3   0.730003 0.368243 0.715030 -0.816319
C48   C     C_R   0.482601 0.478919 0.964226 0.043838
C49   C     C_R   0.485215 0.517900 0.047209 0.122098
C50   C     C_R   0.460438 0.630573 0.093513 -0.242359
C51   C     C_R   0.417381 0.699182 0.064077 -0.187508
H1    H     H_    0.392939 0.783598 0.104067 0.186357
H2    H     H_    0.854657 0.089308 0.846593 0.248041
H3    H     H_    0.965969 0.162773 0.871606 0.206669
H4    H     H_    0.900140 0.078886 0.929719 0.264670
H5    H     H_    0.976386 0.266242 0.487266 0.151136
H6    H     H_    0.034499 0.314281 0.572239 0.105883
H7    H     H_    0.203164 0.197931 0.481493 0.258535
H8    H     H_    0.088311 0.118372 0.489835 0.192134
H9    H     H_    0.145210 0.150220 0.396983 0.256510
H10   H     H_    0.064786 0.691732 0.486960 0.133382
H11   H     H_    0.150337 0.754806 0.550816 0.153430
H12   H     H_    0.875920 0.531230 0.583432 0.135019
H13   H     H_    0.990906 0.870132 0.660538 0.261909
H14   H     H_    0.009621 0.888594 0.562670 0.200789
H15   H     H_    0.906285 0.806429 0.596761 0.249067
H16   H     H_    0.873276 0.341828 0.303178 0.168054
H17   H     H_    0.885883 0.252050 0.358701 0.104720
H18   H     H_    0.076635 0.200149 0.273335 0.259094
H19   H     H_    0.987262 0.170860 0.210026 0.197493
H20   H     H_    0.064166 0.288498 0.217510 0.260641
H21   H     H_    0.708082 0.007337 0.460243 0.219068
H22   H     H_    0.684334 0.111694 0.422660 0.188349
H23   H     H_    0.484443 0.874474 0.428180 0.090331
H24   H     H_    0.646557 0.138569 0.533629 0.271414
H25   H     H_    0.703150 0.860378 0.566525 0.124315
H26   H     H_    0.600284 0.887077 0.665722 0.152081
H27   H     H_    0.656042 0.081532 0.709338 0.270251
H28   H     H_    0.760318 0.977518 0.688091 0.211919
H29   H     H_    0.763661 0.041478 0.613090 0.246183
H30   H     H_    0.426757 0.613274 0.270760 0.216543
H31   H     H_    0.344423 0.558990 0.202386 0.249115
H32   H     H_    0.357169 0.492181 0.268741 0.259086
H33   H     H_    0.668455 0.107846 0.109493 0.186714
H34   H     H_    0.391144 0.065292 0.453589 0.121706
H35   H     H_    0.571125 0.192316 0.205388 0.134778
H36   H     H_    0.704844 0.201177 0.280954 0.233135
H37   H     H_    0.678652 0.062293 0.230248 0.212112
H38   H     H_    0.801317 0.114775 0.185692 0.257785
H39   H     H_    0.555824 0.127145 0.930558 0.266520
H40   H     H_    0.535432 0.154953 0.845603 0.216526
H41   H     H_    0.667475 0.160678 0.857286 0.252107
H42   H     H_    0.190612 0.778271 0.065517 0.136636
H43   H     H_    0.179719 0.815783 0.979617 0.146326
H44   H     H_    0.187619 0.011321 0.060914 0.264476
H45   H     H_    0.346009 0.752441 0.845881 0.205821
H46   H     H_    0.077918 0.952267 0.115212 0.202423
H47   H     H_    0.198663 0.973827 0.146246 0.252914
H48   H     H_    0.672468 0.487814 0.837961 0.129313
H49   H     H_    0.667742 0.535678 0.755512 0.131697
H50   H     H_    0.713489 0.344330 0.654473 0.277684
H51   H     H_    0.814315 0.389687 0.706427 0.186865
H52   H     H_    0.719559 0.297950 0.736991 0.248435
H53   H     H_    0.474104 0.667295 0.153021 0.171244
H54   H     H_    0.482378 0.329100 0.863075 0.210788
H55   H     H_    0.846275 0.276740 0.009143 0.169237
H56   H     H_    0.800047 0.287305 0.925893 0.126553
O1    O     O_3   0.500000 0.500000 0.500000 -0.482115
O2    O     O_R   0.474570 0.394560 0.317400 -0.659153
O3    O     O_R   0.403380 0.624270 0.695980 -0.655650
O4    O     O_R   0.609140 0.497770 0.314440 -0.629877
O5    O     O_R   0.512900 0.483390 0.672170 -0.588074
O6    O     O_3   0.710885 0.195324 0.992363 -0.604795
O7    O     O_3   0.102356 0.364942 0.471438 -0.560252
O8    O     O_3   0.041064 0.655499 0.595116 -0.625715
O9    O     O_3   0.972021 0.390996 0.378964 -0.573284
O10   O     O_3   0.571678 0.972794 0.595143 -0.599051
O11   O     O_3   0.705162 0.268046 0.157215 -0.608054
O12   O     O_R   0.526170 0.271940 0.521690 -0.624581
O13   O     O_3   0.327019 0.836446 0.003799 -0.608694
O14   O     O_3   0.546751 0.437545 0.787327 -0.599674
O15   O     O_R   0.451880 0.756290 0.574830 -0.633279
O16   O     O_R   0.271960 0.460780 0.472050 -0.593538
O17   O     O_R   0.749980 0.510990 0.431420 -0.625860
O18   O     O_R   0.262540 0.611050 0.579000 -0.629914
O19   O     O_R   0.715520 0.417170 0.517520 -0.671132
O20   O     O_R   0.426070 0.262540 0.438550 -0.640985
O21   O     O_R   0.595870 0.709230 0.464930 -0.652323
Zn1   Zn    Zn3+2 0.562560 0.419520 0.551940 0.961497
Zn2   Zn    Zn3+2 0.419550 0.406100 0.433160 0.986315
Zn3   Zn    Zn3+2 0.611810 0.553570 0.428930 0.967020
Zn4   Zn    Zn3+2 0.406080 0.620810 0.585960 0.969524

loop_
_geom_bond_atom_site_label_1
_geom_bond_atom_site_label_2
_ccdc_geom_bond_type
C40   O11   S    
C46   H48   S    
C3    C42   S    
C50   H53   S    
C47   H50   S    
C31   H10   S    
C41   H38   S    
C29   O7    S    
C6    C9    A    
C9    C25   A    
C7    C8    A    
C23   O14   S    
C29   C30   S    
C1    O18   A    
C20   O21   A    
C11   H12   S    
C19   C36   S    
C5    C6    A    
C11   C14   S    
C38   H28   S    
C45   C51   A    
C40   H35   S    
C9    C39   S    
C43   H43   S    
C4    O17   A    
C18   C19   D    
C31   O8    S    
C40   H33   S    
O1    Zn3   S    
C21   C25   S    
C26   C45   A    
C17   C19   S    
C44   H47   S    
C35   H19   S    
C22   O3    A    
C30   H9    S    
C23   C24   A    
C46   O14   S    
O3    Zn4   S    
O5    Zn1   S    
C20   O15   A    
C43   O13   S    
C35   H20   S    
C47   H51   S    
C13   C14   D    
C8    C25   A    
C31   H11   S    
O15   Zn4   S    
C21   O4    A    
C28   H4    S    
C15   C20   S    
C41   H36   S    
C18   H34   S    
C47   H52   S    
C8    O11   S    
C51   H1    S    
C32   H13   S    
C36   H22   S    
C16   O12   A    
C5    C7    A    
C28   H3    S    
C38   H27   S    
O19   Zn1   S    
C2    C48   A    
C14   O7    S    
C37   H26   S    
C15   O10   S    
O17   Zn3   S    
C12   C26   A    
C42   H39   S    
C1    C13   S    
C43   C44   S    
C1    O16   A    
C37   C38   S    
C36   H24   S    
O12   Zn1   S    
C44   H46   S    
C31   C32   S    
C27   H56   S    
C23   C34   A    
C30   H8    S    
C50   C51   A    
C34   C45   A    
C39   H30   S    
O1    Zn1   S    
C13   O8    S    
C27   O6    S    
O4    Zn3   S    
C48   C49   A    
C37   H25   S    
C29   H6    S    
C22   O5    A    
O16   Zn2   S    
C17   H23   S    
C22   C24   S    
C34   C48   A    
C4    C10   S    
O21   Zn3   S    
C27   C28   S    
C10   O9    S    
C33   H16   S    
C32   H15   S    
C15   C17   D    
C41   H37   S    
C46   H49   S    
C46   C47   S    
C40   C41   S    
C33   O9    S    
O1    Zn2   S    
C39   H31   S    
C26   O13   S    
C3    C5    A    
C21   O2    A    
C28   H2    S    
C29   H5    S    
C12   C24   A    
C2    H54   S    
C27   H55   S    
C4    O19   A    
C43   H42   S    
C7    O6    S    
C2    C3    A    
O20   Zn2   S    
C39   H32   S    
C44   H44   S    
O18   Zn4   S    
C38   H29   S    
C30   H7    S    
C33   C35   S    
C42   H41   S    
C6    C49   A    
C16   O20   A    
O1    Zn4   S    
C10   C11   D    
C36   H21   S    
C37   O10   S    
C35   H18   S    
C16   C18   S    
C49   C50   A    
O2    Zn2   S    
C12   H45   S    
C42   H40   S    
C33   H17   S    
C32   H14   S    
