data_mof_unit_34083.cif
_audit_creation_date              2013-03-05T16:35:29-0500
_audit_creation_method            fapswitch 2.2
_symmetry_space_group_name_H-M    P1
_symmetry_Int_Tables_number       1
_space_group_crystal_system       triclinic
_cell_length_a                    10.719823
_cell_length_b                    14.902995
_cell_length_c                    14.127304
_cell_angle_alpha                 90.020099
_cell_angle_beta                  90.900295
_cell_angle_gamma                 90.189516
_cell_volume                      2256.65118098

loop_
_atom_site_label
_atom_site_type_symbol
_atom_site_description
_atom_site_fract_x
_atom_site_fract_y
_atom_site_fract_z
_atom_type_partial_charge
O1    O     O_R   0.500010 0.369070 0.579480 -0.602231
O2    O     O_R   0.499990 0.630930 0.420520 -0.657148
O3    O     O_R   0.500010 0.369060 0.420520 -0.640956
O4    O     O_R   0.499990 0.630940 0.579480 -0.586478
C1    C     C_R   0.500282 0.327924 0.499946 0.913306
C2    C     C_R   0.499761 0.672085 0.500092 0.953214
O5    O     O_R   0.316760 0.500010 0.579480 -0.629524
O6    O     O_R   0.683240 0.499990 0.420520 -0.634159
O7    O     O_R   0.316760 0.500000 0.420520 -0.636293
O8    O     O_R   0.683240 0.500000 0.579480 -0.599935
C3    C     C_R   0.260055 0.506199 0.499030 0.898390
C4    C     C_R   0.740279 0.504737 0.500968 0.912376
Zn1   Zn    Zn3+2 0.500000 0.500010 0.606140 0.988404
Zn2   Zn    Zn3+2 0.500000 0.499990 0.393860 0.937969
H1    H     H_    0.256531 0.604435 0.073246 0.172668
H2    H     H_    0.743571 0.592800 0.927904 0.183902
C5    C     C_R   0.229302 0.648031 0.214558 -0.286734
C6    C     C_R   0.833694 0.496793 0.841723 -0.260035
H3    H     H_    0.279670 0.710068 0.202924 0.162068
H4    H     H_    0.831799 0.447891 0.898203 0.190808
C7    C     C_R   0.178141 0.629972 0.303127 0.233202
C8    C     C_R   0.883559 0.475759 0.752898 0.204739
C9    C     C_R   0.115829 0.547562 0.318151 -0.089536
C10   C     C_R   0.884815 0.542712 0.682054 -0.114554
C11   C     C_R   0.104211 0.485059 0.243171 0.417706
C12   C     C_R   0.834135 0.628326 0.700083 0.457816
C13   C     C_R   0.149252 0.505983 0.152634 0.514290
C14   C     C_R   0.782165 0.648033 0.788421 0.510511
C15   C     C_R   0.214865 0.587419 0.140081 -0.355234
C16   C     C_R   0.783773 0.581267 0.859312 -0.372602
C17   C     C_R   0.931902 0.522203 0.415391 -0.236376
C18   C     C_R   0.068852 0.524028 0.584471 -0.298677
H5    H     H_    0.878842 0.524355 0.349425 0.187597
H6    H     H_    0.121858 0.527263 0.650455 0.164818
C19   C     C_R   0.872637 0.516725 0.502622 -0.079581
C20   C     C_R   0.128099 0.519551 0.497330 -0.060238
C21   C     C_R   0.941037 0.525129 0.588331 0.091661
C22   C     C_R   0.059688 0.527603 0.411629 0.099807
C23   C     C_R   0.411347 0.092881 0.451654 -0.170420
C24   C     C_R   0.599917 0.905230 0.457312 -0.172376
H7    H     H_    0.338149 0.056091 0.414585 0.144472
H8    H     H_    0.674688 0.940549 0.422264 0.142297
C25   C     C_R   0.410904 0.185495 0.450467 -0.296017
C26   C     C_R   0.595983 0.812725 0.455213 -0.255121
H9    H     H_    0.336828 0.220645 0.412972 0.144759
H10   H     H_    0.668523 0.776099 0.419269 0.160235
C27   C     C_R   0.504383 0.232356 0.499634 -0.125031
C28   C     C_R   0.499661 0.767715 0.500819 -0.115419
C29   C     C_R   0.601972 0.187707 0.547182 0.514926
C30   C     C_R   0.406336 0.813576 0.549601 0.522217
C31   C     C_R   0.601816 0.094625 0.548167 -0.264283
C32   C     C_R   0.408097 0.907220 0.547560 -0.283079
H11   H     H_    0.675031 0.058889 0.585997 0.158436
H12   H     H_    0.334260 0.945464 0.579765 0.143250
C33   C     C_R   0.506392 0.048024 0.500761 0.060776
C34   C     C_R   0.505465 0.951887 0.502664 0.072913
C35   C     C_R   0.457414 0.424633 0.104562 -0.233316
C36   C     C_R   0.463063 0.576149 0.894858 -0.309071
H13   H     H_    0.422172 0.365656 0.068109 0.146320
H14   H     H_    0.433729 0.636479 0.930816 0.129327
C37   C     C_R   0.458039 0.426410 0.204057 0.019093
C38   C     C_R   0.464011 0.574858 0.795372 0.048217
H15   H     H_    0.424447 0.368757 0.242547 0.116159
H16   H     H_    0.436005 0.634068 0.756514 0.150993
N1    N     N_R   0.500000 0.499980 0.252470 -0.090604
N2    N     N_R   0.500000 0.500020 0.747530 -0.102750
C39   C     C_R   0.541974 0.573261 0.204610 0.035065
C40   C     C_R   0.534306 0.424717 0.796033 0.029760
H17   H     H_    0.575757 0.631146 0.243527 0.120854
H18   H     H_    0.563273 0.365754 0.757725 0.155071
C41   C     C_R   0.541750 0.574607 0.105100 -0.291239
C42   C     C_R   0.533464 0.422871 0.895510 -0.277224
H19   H     H_    0.576061 0.633606 0.069122 0.121889
H20   H     H_    0.562836 0.362492 0.932009 0.136306
C43   C     C_R   0.499222 0.499547 0.053237 0.127598
C44   C     C_R   0.498250 0.499459 0.946770 0.126407
N3    N     N_2   0.192755 0.693804 0.377561 -0.271892
H21   H     H_    0.273668 0.731146 0.373362 0.231030
C45   C     C_3   0.085073 0.750072 0.392144 -0.783626
H22   H     H_    0.103658 0.795694 0.452935 0.253093
H23   H     H_    0.001688 0.708935 0.408465 0.257083
H24   H     H_    0.065701 0.791264 0.328047 0.222269
N4    N     N_2   0.929922 0.388073 0.732299 -0.298962
H25   H     H_    0.019304 0.385588 0.706645 0.216227
C46   C     C_3   0.894497 0.312623 0.790625 -0.743173
H26   H     H_    0.922007 0.249284 0.755345 0.244694
H27   H     H_    0.791773 0.311184 0.799810 0.258315
H28   H     H_    0.942930 0.316226 0.860556 0.220547
O9    O     O_3   0.040921 0.405190 0.256700 -0.586143
C47   C     C_3   0.127981 0.339011 0.284015 -0.273262
H29   H     H_    0.177826 0.357395 0.350967 0.143169
H30   H     H_    0.195935 0.326058 0.226928 0.175198
H31   H     H_    0.076970 0.275449 0.297058 0.177568
O10   O     O_3   0.827438 0.691388 0.628329 -0.588997
C48   C     C_3   0.931735 0.748890 0.636553 -0.311246
H32   H     H_    0.020203 0.711677 0.626001 0.183823
H33   H     H_    0.934402 0.784419 0.705876 0.173438
H34   H     H_    0.924680 0.800612 0.580310 0.192397
O11   O     O_3   0.134216 0.441566 0.081752 -0.587611
C49   C     C_3   0.121249 0.479748 0.990704 -0.326681
H35   H     H_    0.213880 0.498005 0.962253 0.172785
H36   H     H_    0.057008 0.538359 0.989978 0.159341
H37   H     H_    0.080389 0.428527 0.942408 0.197667
O12   O     O_3   0.723714 0.730852 0.798337 -0.576219
C50   C     C_3   0.730663 0.763940 0.891891 -0.368732
H38   H     H_    0.825063 0.754797 0.924549 0.151321
H39   H     H_    0.657320 0.732590 0.935763 0.165249
H40   H     H_    0.711952 0.837079 0.890108 0.198378
O13   O     O_3   0.694655 0.234714 0.595217 -0.610799
C51   C     C_3   0.793908 0.249546 0.532692 -0.320371
H41   H     H_    0.867353 0.289090 0.569993 0.210908
H42   H     H_    0.763396 0.289172 0.469711 0.161245
H43   H     H_    0.836383 0.185068 0.510181 0.152427
O14   O     O_3   0.308931 0.765145 0.589013 -0.617972
C52   C     C_3   0.285200 0.794469 0.681994 -0.366806
H44   H     H_    0.372617 0.807666 0.723541 0.178271
H45   H     H_    0.233830 0.740574 0.719188 0.177123
H46   H     H_    0.224405 0.854650 0.680831 0.162574

loop_
_geom_bond_atom_site_label_1
_geom_bond_atom_site_label_2
_geom_bond_distance
_ccdc_geom_bond_type
C36   C38   1.405791 A    
N2    C40   1.363642 A    
C33   C34   1.433001 S    
C12   O10   1.383756 S    
C13   C15   1.413327 A    
C5    C15   1.392926 A    
C48   H32   1.112220 S    
C42   C44   1.407307 A    
O14   C52   1.411382 S    
C48   H34   1.109112 S    
C36   C44   1.407522 A    
C23   H7    1.083793 S    
N3    H21   1.031505 S    
O5    C3    1.283929 A    
C50   H39   1.110694 S    
C13   O11   1.394121 S    
C2    C28   1.425215 S    
O1    C1    1.279896 A    
C18   C20   1.395757 A    
C3    C20   1.428955 S    
C19   C21   1.410970 A    
C10   C12   1.413031 A    
C35   H13   1.082522 S    
C39   C41   1.405917 A    
N1    C39   1.363500 A    
H2    C16   1.080640 S    
C52   H44   1.114792 S    
O4    Zn1   1.987396 S    
C37   H15   1.080748 S    
C51   H41   1.108393 S    
C38   H16   1.080294 S    
C23   C33   1.396030 A    
O11   C49   1.411735 S    
C32   H12   1.082802 S    
C24   C34   1.394231 A    
C30   C32   1.395958 A    
C17   H5    1.084666 S    
C6    C16   1.393350 A    
C31   C33   1.396655 A    
O6    C4    1.283878 A    
C28   C30   1.403130 A    
O2    C2    1.280416 A    
O12   C50   1.411284 S    
C26   H10   1.084206 S    
H1    C15   1.080735 S    
Zn1   N2    1.997459 S    
C46   H27   1.110972 S    
C50   H40   1.109173 S    
C38   N2    1.363842 A    
C32   C34   1.396907 A    
C42   H20   1.082498 S    
C41   H19   1.082027 S    
O7    Zn2   2.005886 S    
C23   C25   1.380355 A    
C29   C31   1.387266 A    
C46   H26   1.110196 S    
C49   H37   1.108210 S    
C5    C7    1.399883 A    
C30   O14   1.390969 S    
C18   H6    1.085024 S    
C43   C44   1.503968 S    
C1    C27   1.425073 S    
C14   O12   1.394052 S    
C47   H30   1.112476 S    
N4    H25   1.030505 S    
C24   C26   1.379406 A    
C40   C42   1.405802 A    
C52   H46   1.110368 S    
C49   H36   1.114035 S    
C10   C21   1.486904 S    
N3    C45   1.446333 S    
C18   C21   1.372248 A    
C4    C19   1.429297 S    
O7    C3    1.276598 A    
C51   H43   1.113117 S    
O3    Zn2   1.987396 S    
O8    C4    1.276792 A    
O4    C2    1.278386 A    
N4    C46   1.447469 S    
C7    C9    1.413801 A    
C11   C13   1.408902 A    
C8    C10   1.413686 A    
O1    Zn1   1.987283 S    
C47   H31   1.109124 S    
C29   O13   1.382860 S    
C46   H28   1.110010 S    
C39   H17   1.081182 S    
C52   H45   1.109473 S    
O6    Zn2   1.994262 S    
C6    C8    1.407324 A    
C11   O9    1.382939 S    
C24   H8    1.083753 S    
O3    C1    1.278785 A    
O8    Zn1   2.005885 S    
C45   H24   1.111424 S    
C48   H33   1.113082 S    
C35   C37   1.405742 A    
C27   C29   1.404002 A    
C9    C22   1.489530 S    
C50   H38   1.114335 S    
C12   C14   1.405976 A    
C17   C22   1.373794 A    
C8    N4    1.431070 S    
C35   C43   1.407300 A    
C20   C22   1.410970 A    
C25   H9    1.084108 S    
O13   C51   1.410417 S    
C41   C43   1.407671 A    
C47   H29   1.112721 S    
C25   C27   1.395536 A    
C17   C19   1.397605 A    
C14   C16   1.411941 A    
C49   H35   1.110150 S    
C5    H3    1.083009 S    
Zn2   N1    1.997459 S    
C6    H4    1.081206 S    
C9    C11   1.414077 A    
C45   H23   1.109492 S    
O10   C48   1.409748 S    
O2    Zn2   1.987283 S    
C51   H42   1.113504 S    
C45   H22   1.110332 S    
C37   N1    1.363376 A    
O5    Zn1   1.994263 S    
C40   H18   1.080841 S    
C7    N3    1.424205 S    
C31   H11   1.084001 S    
O9    C47   1.409851 S    
C36   H14   1.082534 S    
C26   C28   1.395649 A    
