data_mof_unit_11417.cif
_audit_creation_date              2012-12-10T17:42:13-0500
_audit_creation_method            fapswitch 2.2
_symmetry_space_group_name_H-M    P1
_symmetry_Int_Tables_number       1
_space_group_crystal_system       triclinic
_cell_length_a                    14.971475
_cell_length_b                    13.812393
_cell_length_c                    10.708116
_cell_angle_alpha                 90.153665
_cell_angle_beta                  88.935324
_cell_angle_gamma                 90.232714
_cell_volume                      2213.94353979

loop_
_atom_site_label
_atom_site_type_symbol
_atom_type_description
_atom_site_fract_x
_atom_site_fract_y
_atom_site_fract_z
_atom_type_partial_charge
C1    C     C_R   0.329031 0.499835 0.499918 0.781748
C2    C     C_3   0.591757 0.499272 0.925095 -0.386529
C3    C     C_R   0.815191 0.530663 0.396896 -0.238686
C4    C     C_R   0.767266 0.499372 0.501718 -0.021046
C5    C     C_R   0.810694 0.465529 0.607102 -0.151404
C6    C     C_R   0.904456 0.463655 0.610224 -0.036722
C7    C     C_R   0.953097 0.499134 0.505005 0.047949
C8    C     C_R   0.908016 0.532204 0.398106 0.139079
C9    C     C_R   0.950593 0.430150 0.716376 -0.118837
C10   C     C_R   0.044661 0.436701 0.718512 0.359889
C11   C     C_R   0.092675 0.467144 0.610639 -0.012037
C12   C     C_R   0.496909 0.499912 0.260005 0.771461
C13   C     C_R   0.046731 0.500733 0.505268 0.006172
C14   C     C_R   0.094689 0.535821 0.399311 0.145473
C15   C     C_R   0.049081 0.569007 0.294953 -0.205992
C16   C     C_R   0.956260 0.566623 0.294028 -0.195318
C17   C     C_R   0.186150 0.463584 0.605111 -0.222414
C18   C     C_R   0.232690 0.499619 0.501092 -0.055778
C19   C     C_R   0.187685 0.536820 0.399244 -0.236544
C20   C     C_R   0.438324 0.793548 0.571486 -0.015428
C21   C     C_R   0.438870 0.206278 0.572415 -0.007323
C22   C     C_R   0.561871 0.794564 0.428639 0.141842
C23   C     C_R   0.561136 0.205962 0.427202 0.143841
C24   C     C_R   0.561999 0.897283 0.426598 -0.063365
C25   C     C_R   0.561861 0.103268 0.426158 -0.062576
C26   C     C_R   0.670945 0.500000 0.500340 0.814268
C27   C     C_R   0.499235 0.948438 0.500077 0.088631
C28   C     C_R   0.499320 0.051781 0.500155 0.089259
C29   C     C_R   0.436825 0.896461 0.573592 0.000157
C30   C     C_R   0.437112 0.103424 0.574064 0.000029
C31   C     C_R   0.623569 0.950175 0.352265 -0.161434
C32   C     C_R   0.623528 0.050729 0.352111 -0.158999
C33   C     C_R   0.374860 0.050915 0.647568 -0.184116
C34   C     C_R   0.374664 0.948720 0.647244 -0.189324
C35   C     C_R   0.496515 0.500068 0.740015 0.740752
C36   C     C_3   0.446677 0.591523 0.073391 -0.366521
C37   C     C_3   0.443856 0.409743 0.072748 -0.367820
C38   C     C_3   0.446326 0.591473 0.929767 -0.383333
C39   C     C_3   0.444548 0.409370 0.929044 -0.379908
C40   C     C_3   0.591863 0.498684 0.068915 -0.367157
C41   C     C_3   0.494840 0.499898 0.121901 0.154872
C42   C     C_3   0.494676 0.500106 0.877964 0.161297
Cu1   Cu    Cu3+1 0.499990 0.597420 0.500010 0.961045
Cu2   Cu    Cu3+1 0.499990 0.402580 0.500010 0.968230
H1    H     H_    0.480848 0.658387 0.105927 0.221328
H2    H     H_    0.475290 0.341889 0.105702 0.225725
H3    H     H_    0.223596 0.434353 0.681961 0.159452
H4    H     H_    0.225260 0.564287 0.319149 0.120761
H5    H     H_    0.085199 0.596512 0.213862 0.141460
H6    H     H_    0.922114 0.592144 0.212103 0.152230
H7    H     H_    0.390466 0.753137 0.627862 0.133395
H8    H     H_    0.391371 0.246546 0.629352 0.135442
H9    H     H_    0.672549 0.914665 0.292592 0.162637
H10   H     H_    0.672640 0.086545 0.292755 0.165887
H11   H     H_    0.326193 0.088863 0.705372 0.145838
H12   H     H_    0.325860 0.910582 0.704815 0.139394
H13   H     H_    0.376744 0.593576 0.110521 0.145669
H14   H     H_    0.373678 0.410161 0.108964 0.152661
H15   H     H_    0.376219 0.593033 0.896915 0.150487
H16   H     H_    0.374785 0.408256 0.894986 0.150203
H17   H     H_    0.480167 0.658443 0.895328 0.188538
H18   H     H_    0.477643 0.342004 0.894989 0.193065
H19   H     H_    0.629522 0.562750 0.102937 0.199762
H20   H     H_    0.627441 0.433297 0.101688 0.204727
H21   H     H_    0.628653 0.564146 0.889971 0.170169
H22   H     H_    0.627530 0.434233 0.888708 0.180820
H23   H     H_    0.779901 0.553404 0.314481 0.128746
H24   H     H_    0.770188 0.443225 0.686772 0.146871
N1    N     N_R   0.499930 0.743810 0.499950 -0.225229
N2    N     N_R   0.499930 0.256190 0.499950 -0.225960
O1    O     O_R   0.370250 0.582280 0.500040 -0.588626
O2    O     O_R   0.370250 0.417720 0.500040 -0.584327
O3    O     O_R   0.499970 0.582270 0.317700 -0.565807
O4    O     O_R   0.499970 0.417730 0.317700 -0.569443
O5    O     O_R   0.629730 0.582260 0.499980 -0.562858
O6    O     O_R   0.629730 0.417740 0.499980 -0.557633
O7    O     O_R   0.500000 0.582270 0.682320 -0.590735
O8    O     O_R   0.500000 0.417730 0.682320 -0.589676
O9    O     O_3   0.089599 0.404551 0.822479 -0.556657
C43   C     C_3   0.115336 0.485545 0.894849 0.097207
H25   H     H_    0.056256 0.529012 0.925096 0.175136
H26   H     H_    0.162306 0.533608 0.842075 0.111977
C44   C     C_3   0.162553 0.450393 0.010795 -0.771105
H27   H     H_    0.219281 0.402867 0.983551 0.239062
H28   H     H_    0.188818 0.513150 0.063907 0.175613
H29   H     H_    0.115150 0.409135 0.071569 0.272565
C45   C     C_2   0.632699 0.744347 0.356820 0.871554
O10   O     O_2   0.618247 0.714060 0.251919 -0.646814
O11   O     O_R   0.719555 0.744998 0.402468 -0.759394
H30   H     H_    0.765200 0.721797 0.338254 0.318974
C46   C     C_2   0.627995 0.257432 0.348927 0.875019
O12   O     O_2   0.610273 0.279253 0.241838 -0.643945
O13   O     O_R   0.714931 0.269221 0.392159 -0.743047
H31   H     H_    0.755831 0.302224 0.328717 0.326005
C47   C     C_2   0.902519 0.384566 0.824000 0.894638
O14   O     O_2   0.849163 0.318927 0.806076 -0.584286
O15   O     O_R   0.919640 0.415038 0.945829 -0.766533
H32   H     H_    0.883116 0.378149 0.010789 0.331679

loop_
_geom_bond_atom_site_label_1
_geom_bond_atom_site_label_2
_ccdc_geom_bond_type
C33   H11   S    
C45   O10   D    
Cu1   O3    S    
O13   H31   S    
C12   O4    A    
C27   C29   A    
C47   O14   D    
C24   C27   A    
C2    H21   S    
C6    C9    A    
O15   H32   S    
C7    C8    A    
C25   C28   A    
C34   H12   S    
C1    C18   S    
C1    O1    A    
C40   H19   S    
C16   H6    S    
C38   C42   S    
C20   H7    S    
C5    H24   S    
C5    C6    A    
C15   C16   A    
C18   C19   A    
Cu2   O6    S    
C35   C42   S    
C44   H27   S    
C26   O6    A    
Cu2   N2    S    
C9    C10   A    
C9    C47   S    
C22   N1    A    
C37   H14   S    
C38   H17   S    
C25   C32   A    
C23   C25   A    
C8    C16   A    
C12   O3    A    
C23   N2    A    
C36   C41   S    
C43   C44   S    
C32   H10   S    
C17   C18   A    
C39   C42   S    
C20   C29   A    
Cu1   O5    S    
C1    O2    A    
C43   H26   S    
C3    C8    A    
C46   O12   D    
C19   H4    S    
C4    C5    A    
C29   C34   A    
C35   O7    A    
C38   H15   S    
Cu1   Cu2   S    
C12   C41   S    
C46   O13   S    
C31   C32   A    
C33   C34   A    
C36   H1    S    
C22   C45   S    
C31   H9    S    
Cu2   O4    S    
C40   C41   S    
C44   H28   S    
C36   H13   S    
C45   O11   S    
C22   C24   A    
C20   N1    A    
C3    C4    A    
C39   H18   S    
C11   C17   A    
Cu1   O1    S    
C30   C33   A    
C14   C19   A    
C3    H23   S    
C17   H3    S    
C43   H25   S    
C2    H22   S    
C4    C26   S    
C10   O9    S    
C47   O15   S    
C6    C7    A    
Cu1   O7    S    
C21   C30   A    
C35   O8    A    
C40   H20   S    
C21   N2    A    
C26   O5    A    
Cu2   O8    S    
C37   H2    S    
C24   C31   A    
C37   C39   S    
C36   C38   S    
C11   C13   A    
C2    C42   S    
C39   H16   S    
C28   C30   A    
Cu2   O2    S    
C23   C46   S    
C15   H5    S    
C37   C41   S    
C10   C11   A    
O9    C43   S    
C2    C40   S    
C7    C13   A    
C44   H29   S    
Cu1   N1    S    
C27   C28   A    
C14   C15   A    
O11   H30   S    
C13   C14   A    
C21   H8    S    
