data_mof_unit_43908.cif
_audit_creation_date              2012-12-11T14:56:40-0500
_audit_creation_method            fapswitch 2.2
_symmetry_space_group_name_H-M    P1
_symmetry_Int_Tables_number       1
_space_group_crystal_system       triclinic
_cell_length_a                    10.49313
_cell_length_b                    10.698894
_cell_length_c                    17.051919
_cell_angle_alpha                 80.443857
_cell_angle_beta                  90.049915
_cell_angle_gamma                 119.618221
_cell_volume                      1633.73356607

loop_
_atom_site_label
_atom_site_type_symbol
_atom_type_description
_atom_site_fract_x
_atom_site_fract_y
_atom_site_fract_z
_atom_type_partial_charge
C1    C     C_R   0.222555 0.854480 0.128605 0.574468
C2    C     C_1   0.634389 0.309822 0.704985 0.013999
C3    C     C_R   0.505253 0.754807 0.775905 0.041096
C4    C     C_R   0.640991 0.288520 0.082992 0.585473
C5    C     C_R   0.509234 0.757509 0.695167 -0.130147
C6    C     C_R   0.637374 0.858692 0.646293 0.001398
C7    C     C_R   0.742471 0.984485 0.672568 -0.122481
C8    C     C_R   0.725187 0.999101 0.750931 -0.152290
C9    C     C_R   0.611910 0.881373 0.804651 -0.011249
C10   C     C_R   0.206301 0.964894 0.760254 0.026397
C11   C     C_R   0.219707 0.955830 0.681431 -0.147136
C12   C     C_R   0.826304 0.433378 0.254789 -0.001035
C13   C     C_R   0.165084 0.819318 0.660600 -0.006657
C14   C     C_R   0.123498 0.694078 0.719463 -0.136171
C15   C     C_R   0.129135 0.705444 0.799279 -0.119391
C16   C     C_R   0.644338 0.855943 0.124122 0.566545
C17   C     C_R   0.173522 0.840600 0.820475 0.018475
C18   C     C_R   0.711522 0.772118 0.353477 0.532317
C19   C     C_R   0.726819 0.456467 0.382704 0.535055
C20   C     C_R   0.104489 0.810878 0.359383 0.537342
C21   C     C_R   0.672126 0.807936 0.579867 0.572218
C22   C     C_R   0.675038 0.375669 0.623327 0.567308
C23   C     C_R   0.816712 0.432369 0.173034 0.005175
C24   C     C_R   0.103281 0.803342 0.584866 0.555192
C25   C     C_R   0.219967 0.862924 0.899747 0.546964
C26   C     C_R   0.613171 0.220939 0.858839 0.528052
C27   C     C_R   0.600771 0.891404 0.888475 0.541106
C28   C     C_R   0.566879 0.392295 0.185818 -0.045772
C29   C     C_R   0.590236 0.426036 0.262087 -0.144077
C30   C     C_R   0.712463 0.434158 0.299610 -0.047969
C31   C     C_3   0.425582 0.367760 0.151541 -0.335311
C32   C     C_2   0.940347 0.407618 0.293482 0.646960
C33   C     C_2   0.949159 0.479047 0.117404 0.603197
C34   C     C_R   0.676372 0.381530 0.144017 0.012697
C35   C     C_2   0.412177 0.605311 0.825294 0.599464
C36   C     C_2   0.209081 0.099532 0.775064 0.607685
C37   C     C_1   0.686267 0.832136 0.201598 -0.020023
C38   C     C_1   0.703885 0.807022 0.270402 -0.027940
C39   C     C_1   0.181455 0.827408 0.211147 0.012590
C40   C     C_1   0.152499 0.821720 0.279840 0.004925
C41   C     C_1   0.620483 0.266126 0.775329 -0.001750
Cr1   Cr    Cr6+3 0.402240 0.783890 0.019450 1.076143
Cr2   Cr    Cr6+3 0.382360 0.097900 0.991800 1.067107
Cr3   Cr    Cr6+3 0.715380 0.118170 0.988700 1.055707
Cr4   Cr    Cr6+3 0.936650 0.882420 0.465510 1.064494
Cr5   Cr    Cr6+3 0.605770 0.565620 0.493360 1.049549
Cr6   Cr    Cr6+3 0.921340 0.550490 0.496380 1.044985
H1    H     H_    0.248757 0.051697 0.635698 0.161760
H2    H     H_    0.348864 0.248900 0.155143 0.168399
H3    H     H_    0.152172 0.488273 0.316881 0.338784
H4    H     H_    0.044849 0.563570 0.004662 0.346902
H5    H     H_    0.243062 0.468027 0.908739 0.321656
H6    H     H_    0.110278 0.185994 0.830798 0.336365
H7    H     H_    0.077483 0.586477 0.704360 0.150230
H8    H     H_    0.093425 0.608254 0.844588 0.177880
H9    H     H_    0.507324 0.435337 0.294364 0.153505
H10   H     H_    0.424252 0.662622 0.674185 0.159865
H11   H     H_    0.840739 0.066384 0.634421 0.149861
H12   H     H_    0.806488 0.096784 0.770949 0.151459
H13   H     H_    0.369184 0.410328 0.184925 0.152699
H14   H     H_    0.449144 0.426256 0.088464 0.164154
O1    O     O_R   0.521780 0.757110 0.108900 -0.501169
O2    O     O_R   0.805020 0.410040 0.421340 -0.468217
O3    O     O_R   0.049240 0.685450 0.403290 -0.496261
O4    O     O_R   0.275160 0.783810 0.101120 -0.450600
O5    O     O_R   0.077520 0.903010 0.551800 -0.511209
O6    O     O_R   0.802980 0.872780 0.546830 -0.485270
O7    O     O_R   0.578090 0.681300 0.569920 -0.505585
O8    O     O_R   0.608530 0.436370 0.586530 -0.459672
O9    O     O_R   0.798770 0.401880 0.597100 -0.523045
O10   O     O_R   0.043450 0.677890 0.566230 -0.502788
O11   O     O_3   0.821250 0.666180 0.485090 -0.304396
O12   O     O_R   0.513330 0.228330 0.898660 -0.444160
O13   O     O_R   0.237900 0.972600 0.090980 -0.522644
O14   O     O_R   0.511190 0.220540 0.061620 -0.509297
O15   O     O_R   0.736920 0.257720 0.063840 -0.478758
O16   O     O_R   0.710450 0.984050 0.081720 -0.479940
O17   O     O_R   0.524090 0.765520 0.933110 -0.458694
O18   O     O_R   0.277300 0.791600 0.938160 -0.499505
O19   O     O_R   0.240210 0.981010 0.915190 -0.478432
O20   O     O_2   0.906366 0.284060 0.327896 -0.479109
O21   O     O_R   0.085693 0.521210 0.288702 -0.679133
O22   O     O_2   0.045910 0.452003 0.138084 -0.485645
O23   O     O_R   0.739230 0.266130 0.888050 -0.514839
O24   O     O_R   0.958415 0.549332 0.039052 -0.684426
O25   O     O_2   0.436054 0.507450 0.816106 -0.470574
O26   O     O_R   0.297010 0.574082 0.880078 -0.696083
O27   O     O_2   0.302512 0.220013 0.738576 -0.506082
O28   O     O_R   0.098542 0.087345 0.826911 -0.657694
O29   O     O_R   0.712580 0.991850 0.918770 -0.502130
O30   O     O_3   0.499990 0.999980 0.999980 -0.321094
O31   O     O_R   0.083770 0.911170 0.376030 -0.514224
O32   O     O_R   0.808770 0.880340 0.383890 -0.459196
O33   O     O_R   0.584340 0.689460 0.394160 -0.512481
O34   O     O_R   0.614320 0.443940 0.423590 -0.515857

loop_
_geom_bond_atom_site_label_1
_geom_bond_atom_site_label_2
_ccdc_geom_bond_type
C36   O28   S    
Cr2   O12   S    
C25   O19   A    
C31   H14   S    
C27   O17   A    
Cr4   O32   S    
H4    O24   S    
C19   O34   A    
C7    C8    A    
C36   O27   D    
C32   O20   D    
C20   O31   A    
C12   C23   A    
C9    C27   S    
C29   C30   A    
C1    O13   A    
Cr3   O16   S    
Cr1   O30   S    
C8    H12   S    
Cr6   O2    S    
C5    C6    A    
C20   C40   S    
C35   O25   D    
C10   C17   A    
C26   O12   A    
C27   O29   A    
C16   O16   A    
Cr3   O15   S    
Cr4   O31   S    
C33   O24   S    
C4    O14   A    
C35   O26   S    
Cr5   O34   S    
C19   O2    A    
C8    C9    A    
C23   C33   S    
Cr4   O6    S    
Cr1   O4    S    
C1    O4    A    
Cr1   O1    S    
C7    H11   S    
Cr5   O11   S    
C24   O5    A    
C16   C37   S    
Cr2   O13   S    
C28   C34   A    
Cr1   O18   S    
C13   C14   A    
C21   O6    A    
Cr4   O11   S    
C11   H1    S    
C16   O1    A    
C31   H2    S    
H5    O26   S    
Cr2   O14   S    
C4    C34   S    
Cr6   O3    S    
Cr3   O23   S    
Cr2   O19   S    
C6    C21   S    
Cr2   O30   S    
C13   C24   S    
C15   H8    S    
C31   H13   S    
C20   O3    A    
Cr6   O9    S    
Cr5   O7    S    
C37   C38   T    
C3    C9    A    
Cr5   O33   S    
C3    C35   S    
C23   C34   A    
C33   O22   D    
Cr6   O10   S    
Cr3   O30   S    
C14   H7    S    
Cr1   O17   S    
C21   O7    A    
H6    O28   S    
C18   O33   A    
C39   C40   T    
Cr3   O29   S    
H3    O21   S    
C15   C17   A    
C28   C29   A    
C26   O23   A    
C22   O8    A    
C12   C30   A    
C25   O18   A    
C28   C31   S    
C3    C5    A    
C6    C7    A    
C29   H9    S    
C32   O21   S    
C5    H10   S    
C17   C25   S    
C18   C38   S    
C2    C22   S    
C11   C13   A    
Cr6   O11   S    
C4    O15   A    
C10   C11   A    
C1    C39   S    
C26   C41   S    
Cr4   O5    S    
Cr5   O8    S    
C18   O32   A    
C14   C15   A    
C10   C36   S    
C2    C41   T    
C19   C30   S    
C22   O9    A    
C12   C32   S    
C24   O10   A    
