data_mof_unit_31014.cif
_audit_creation_date              2012-12-10T18:36:25-0500
_audit_creation_method            fapswitch 2.2
_symmetry_space_group_name_H-M    P1
_symmetry_Int_Tables_number       1
_space_group_crystal_system       triclinic
_cell_length_a                    14.021802
_cell_length_b                    15.26876
_cell_length_c                    15.645877
_cell_angle_alpha                 94.921988
_cell_angle_beta                  69.682366
_cell_angle_gamma                 88.57437
_cell_volume                      3124.35409532

loop_
_atom_site_label
_atom_site_type_symbol
_atom_type_description
_atom_site_fract_x
_atom_site_fract_y
_atom_site_fract_z
_atom_type_partial_charge
C1    C     C_R   0.500572 0.669981 0.497037 0.890488
C2    C     C_R   0.498761 0.330680 0.505851 0.905741
C3    C     C_R   0.365454 0.472096 0.103236 -0.065054
C4    C     C_R   0.600545 0.414092 0.904473 -0.073951
C5    C     C_R   0.298096 0.499774 0.062303 -0.025037
C6    C     C_R   0.673837 0.413720 0.945508 -0.073725
C7    C     C_R   0.421619 0.907256 0.483120 -0.167740
C8    C     C_R   0.585849 0.091441 0.488633 -0.184514
C9    C     C_R   0.424131 0.815551 0.476650 0.271787
C10   C     C_R   0.587690 0.182301 0.496268 0.271350
C11   C     C_R   0.501476 0.767077 0.495013 -0.166456
C12   C     C_R   0.496642 0.234954 0.515574 -0.159751
C13   C     C_R   0.579734 0.814610 0.512976 0.268104
C14   C     C_R   0.402669 0.193343 0.545026 0.315412
C15   C     C_R   0.571504 0.905801 0.524868 -0.163127
C16   C     C_R   0.402305 0.101804 0.542449 -0.157907
C17   C     C_R   0.494105 0.953127 0.508510 0.034495
C18   C     C_R   0.493784 0.050046 0.511787 0.025777
C19   C     C_R   0.926384 0.487753 0.411693 0.260356
C20   C     C_R   0.094315 0.580642 0.528569 0.281966
C21   C     C_R   0.823587 0.468615 0.420244 0.396648
C22   C     C_R   0.186148 0.568636 0.547424 0.377966
C23   C     C_R   0.438036 0.499740 0.673294 0.945821
C24   C     C_R   0.561807 0.503113 0.326894 0.912915
C25   C     C_R   0.766482 0.536168 0.574039 0.551536
C26   C     C_R   0.226473 0.434769 0.449288 0.548323
C27   C     C_R   0.867342 0.527951 0.572586 -0.283339
C28   C     C_R   0.123326 0.434223 0.455885 -0.241828
C29   C     C_R   0.949116 0.508079 0.491316 -0.025983
C30   C     C_R   0.056625 0.507992 0.492492 -0.022861
C31   C     C_R   0.401494 0.500117 0.774871 -0.255310
C32   C     C_R   0.596455 0.499970 0.224967 -0.289867
C33   C     C_R   0.282180 0.557537 0.924798 0.354365
C34   C     C_R   0.727619 0.459740 0.076418 0.341175
C35   C     C_R   0.331569 0.567037 0.831278 0.221058
C36   C     C_R   0.699123 0.495054 0.168968 0.216096
C37   C     C_R   0.444279 0.439749 0.817454 0.349749
C38   C     C_R   0.524124 0.508829 0.182400 0.327310
C39   C     C_R   0.424767 0.455938 0.912803 -0.032453
C40   C     C_R   0.546071 0.467740 0.092326 -0.063398
C41   C     C_R   0.331835 0.502821 0.967070 -0.111844
C42   C     C_R   0.649767 0.443534 0.038588 -0.081248
C43   C     C_R   0.497914 0.438640 0.955239 0.137292
C44   C     C_R   0.469738 0.458408 0.051403 0.100265
Cu1   Cu    Cu3+1 0.403570 0.500010 0.500000 1.165632
Cu2   Cu    Cu3+1 0.596430 0.499990 0.500000 1.160130
H1    H     H_    0.223137 0.524615 0.106972 0.230788
H2    H     H_    0.750941 0.396176 0.900443 0.223123
H3    H     H_    0.883267 0.543385 0.634972 0.235825
H4    H     H_    0.096906 0.378317 0.424615 0.238013
H5    H     H_    0.337667 0.471614 0.176630 0.228607
H6    H     H_    0.627732 0.399245 0.831394 0.228515
H7    H     H_    0.364094 0.942646 0.465712 0.187303
H8    H     H_    0.657856 0.053406 0.466314 0.185462
H9    H     H_    0.628461 0.939559 0.545001 0.184119
H10   H     H_    0.330127 0.071333 0.567074 0.184980
N1    N     N_R   0.741310 0.499980 0.500000 -0.291829
N2    N     N_R   0.258690 0.500020 0.500000 -0.289144
O1    O     O_R   0.418570 0.628550 0.499990 -0.519415
O2    O     O_R   0.581430 0.371450 0.500010 -0.498210
O3    O     O_R   0.581440 0.628540 0.499990 -0.529614
O4    O     O_R   0.418560 0.371460 0.500010 -0.528441
O5    O     O_R   0.372890 0.500010 0.629830 -0.527598
O6    O     O_R   0.627110 0.499990 0.370170 -0.536220
O7    O     O_R   0.535760 0.500000 0.629840 -0.505093
O8    O     O_R   0.464240 0.500000 0.370160 -0.507235
S1    S     S_3+6 0.024962 0.491201 0.302338 0.105015
O9    O     O_2   0.061845 0.399304 0.258672 -0.172435
O10   O     O_2   0.983567 0.538244 0.241161 -0.173619
O11   O     O_3   0.125706 0.544806 0.309969 -0.507469
H11   H     H_    0.121229 0.602602 0.286895 0.403638
S2    S     S_3+6 0.032751 0.687176 0.539672 0.106701
O12   O     O_2   0.940050 0.699590 0.625183 -0.192675
O13   O     O_2   0.103002 0.758556 0.543962 -0.215888
O14   O     O_3   0.996469 0.696636 0.448941 -0.493784
H12   H     H_    0.960181 0.755382 0.461001 0.406324
S3    S     S_3+6 0.817234 0.381513 0.336966 0.121630
O15   O     O_2   0.863110 0.408318 0.242241 -0.180243
O16   O     O_2   0.883333 0.305269 0.343595 -0.215440
O17   O     O_3   0.704096 0.343459 0.344354 -0.517615
H13   H     H_    0.718960 0.295991 0.293436 0.367021
S4    S     S_3+6 0.182100 0.623553 0.653752 0.133809
O18   O     O_2   0.079721 0.669770 0.705382 -0.192466
O19   O     O_2   0.196789 0.557597 0.714335 -0.213504
O20   O     O_3   0.269765 0.699165 0.636872 -0.481874
H14   H     H_    0.231975 0.756792 0.645302 0.394120
S5    S     S_3+6 0.681835 0.595746 0.676897 0.088085
O21   O     O_2   0.638087 0.531919 0.745915 -0.316928
O22   O     O_2   0.741362 0.658168 0.715491 -0.210369
O23   O     O_3   0.586622 0.655552 0.664018 -0.494815
H15   H     H_    0.565142 0.701683 0.716551 0.392560
S6    S     S_3+6 0.302260 0.346442 0.369703 0.070300
O24   O     O_2   0.270035 0.261594 0.410148 -0.250032
O25   O     O_2   0.274337 0.346248 0.285201 -0.261149
O26   O     O_3   0.429587 0.345904 0.334948 -0.541523
H16   H     H_    0.454501 0.292876 0.290545 0.363863
S7    S     S_3+6 0.443943 0.607446 0.219956 0.047187
O27   O     O_2   0.344363 0.589625 0.291375 -0.262676
O28   O     O_2   0.496596 0.674614 0.260848 -0.249638
O29   O     O_3   0.422264 0.649121 0.131798 -0.496860
H17   H     H_    0.366346 0.694966 0.160512 0.405063
S8    S     S_3+6 0.494970 0.334893 0.759180 0.008227
O30   O     O_2   0.422395 0.298499 0.715846 -0.298267
O31   O     O_2   0.596584 0.343372 0.686176 -0.270241
O32   O     O_3   0.507906 0.264996 0.832431 -0.509045
H18   H     H_    0.537846 0.209401 0.793706 0.395939
Br1   Br    Br    0.782471 0.577454 0.205984 -0.207417
Br2   Br    Br    0.336195 0.682862 0.791745 -0.284632
S9    S     S_3+6 0.171048 0.625543 0.988881 0.100976
O33   O     O_2   0.092820 0.572012 0.050800 -0.224439
O34   O     O_2   0.199205 0.697617 0.045841 -0.243574
O35   O     O_3   0.119430 0.670196 0.919162 -0.399274
H19   H     H_    0.058881 0.706471 0.960649 0.405058
S10   S     S_3+6 0.859048 0.437948 0.008060 0.095528
O36   O     O_2   0.874723 0.344110 0.965598 -0.279259
O37   O     O_2   0.887598 0.498403 0.933297 -0.213090
O38   O     O_3   0.936711 0.451765 0.068482 -0.372729
H20   H     H_    0.001565 0.419100 0.030319 0.404388
Br3   Br    Br    0.325454 0.763853 0.431762 -0.284236
Br4   Br    Br    0.715774 0.224922 0.494249 -0.298343
Br5   Br    Br    0.707909 0.765146 0.512502 -0.361890
Br6   Br    Br    0.272053 0.256070 0.604960 -0.308297

loop_
_geom_bond_atom_site_label_1
_geom_bond_atom_site_label_2
_ccdc_geom_bond_type
S5    O21   D    
C14   Br6   S    
C27   C29   A    
O26   H16   S    
C34   C42   A    
C43   C44   A    
C2    C12   S    
C16   H10   S    
S10   O36   D    
C39   C41   A    
C20   C30   A    
S3    O15   D    
C5    H1    S    
C6    H2    S    
C4    H6    S    
C32   C36   A    
C19   C21   A    
S9    O34   D    
C37   S8    S    
C2    O2    A    
C23   O5    A    
C26   S6    S    
Cu1   O4    S    
C25   S5    S    
C13   Br5   S    
S8    O32   S    
C7    C9    A    
S6    O24   D    
C35   Br2   S    
C28   H4    S    
C7    C17   A    
C1    C11   S    
C19   S1    S    
O11   H11   S    
C14   C16   A    
C32   C38   A    
C24   O8    A    
C40   C42   A    
C24   O6    A    
C36   Br1   S    
C25   N1    A    
C38   S7    S    
O35   H19   S    
S7    O28   D    
S7    O27   D    
S3    O16   D    
C3    C44   A    
Cu1   N2    S    
Cu2   O3    S    
C27   H3    S    
S1    O9    D    
Cu2   O7    S    
S2    O13   D    
S9    O35   S    
C8    H8    S    
C3    H5    S    
S2    O12   D    
C39   C43   A    
O20   H14   S    
Cu1   O5    S    
S6    O26   S    
C8    C18   A    
C31   C37   A    
Cu2   O6    S    
S1    O10   D    
C23   C31   S    
O14   H12   S    
C24   C32   S    
C21   N1    A    
C29   C30   S    
C9    C11   A    
S6    O25   D    
C17   C18   S    
C16   C18   A    
S8    O31   D    
C26   N2    A    
C10   C12   A    
C4    C6    A    
C12   C14   A    
S4    O19   D    
C13   C15   A    
Cu2   N1    S    
C9    Br3   S    
C31   C35   A    
C34   S10   S    
C7    H7    S    
C19   C29   A    
C22   S4    S    
S7    O29   S    
S3    O17   S    
C15   C17   A    
C5    C41   A    
Cu1   O1    S    
Cu2   O2    S    
C20   C22   A    
O17   H13   S    
C3    C5    A    
C1    O3    A    
C22   N2    A    
S10   O37   D    
C4    C43   A    
C25   C27   A    
S4    O20   S    
O32   H18   S    
C26   C28   A    
S1    O11   S    
C33   C41   A    
C23   O7    A    
C1    O1    A    
C37   C39   A    
O38   H20   S    
C38   C40   A    
C11   C13   A    
S2    O14   S    
O23   H15   S    
C28   C30   A    
O29   H17   S    
C33   C35   A    
C34   C36   A    
S8    O30   D    
S10   O38   S    
C10   Br4   S    
Cu1   Cu2   S    
C40   C44   A    
C33   S9    S    
C8    C10   A    
S4    O18   D    
C6    C42   A    
S5    O23   S    
C21   S3    S    
Cu1   O8    S    
S5    O22   D    
C20   S2    S    
S9    O33   D    
C2    O4    A    
C15   H9    S    
