data_mof_unit_56580.cif
_audit_creation_date              2012-12-10T19:03:35-0500
_audit_creation_method            fapswitch 2.2
_symmetry_space_group_name_H-M    P1
_symmetry_Int_Tables_number       1
_space_group_crystal_system       triclinic
_cell_length_a                    15.911428
_cell_length_b                    10.88763
_cell_length_c                    9.565072
_cell_angle_alpha                 91.054836
_cell_angle_beta                  90.286964
_cell_angle_gamma                 90.598482
_cell_volume                      1656.63785765

loop_
_atom_site_label
_atom_site_type_symbol
_atom_type_description
_atom_site_fract_x
_atom_site_fract_y
_atom_site_fract_z
_atom_type_partial_charge
C1    C     C_R   0.501497 0.262575 0.498522 0.794964
C2    C     C_3   0.953334 0.448011 0.643954 0.128698
C3    C     C_3   0.917034 0.498570 0.499699 0.202330
C4    C     C_3   0.950663 0.634569 0.481462 -0.026130
C5    C     C_3   0.049538 0.636787 0.484079 0.024264
C6    C     C_1   0.824537 0.496108 0.501174 -0.015044
C7    C     C_1   0.175849 0.501262 0.496296 -0.068841
C8    C     C_1   0.251133 0.500334 0.498367 -0.194917
C9    C     C_R   0.470480 0.066144 0.609579 0.046323
C10   C     C_R   0.500991 0.129041 0.494081 -0.119703
C11   C     C_R   0.535053 0.061569 0.379977 -0.018305
C12   C     C_R   0.340426 0.499781 0.499664 0.827842
C13   C     C_R   0.533997 0.933309 0.382428 -0.243214
C14   C     C_R   0.505682 0.871271 0.500773 -0.099061
C15   C     C_R   0.477651 0.939425 0.615789 0.092023
C16   C     C_3   0.516121 0.949560 0.759472 -0.052856
C17   C     C_3   0.499943 0.085375 0.756470 -0.412172
C18   C     C_R   0.568209 0.542473 0.075380 0.285170
C19   C     C_R   0.436284 0.446605 0.072659 -0.080428
C20   C     C_R   0.436306 0.446548 0.923978 -0.096324
C21   C     C_R   0.568290 0.542097 0.927850 0.245275
C22   C     C_3   0.601895 0.669474 0.926492 -0.541035
C23   C     C_R   0.502845 0.737651 0.500877 0.783458
C24   C     C_3   0.602892 0.669508 0.084398 -0.514274
C25   C     C_R   0.659661 0.498767 0.500254 0.821161
C26   C     C_3   0.052545 0.452676 0.636736 -0.549019
C27   C     C_3   0.047934 0.413654 0.375523 -0.137294
C28   C     C_3   0.949176 0.414572 0.375254 -0.036502
C29   C     C_1   0.749120 0.496675 0.500988 -0.190703
C30   C     C_3   0.083671 0.502598 0.493785 0.183871
Cu1   Cu    Cu3+1 0.500000 0.499980 0.640670 0.928257
Cu2   Cu    Cu3+1 0.500000 0.500020 0.359330 0.953681
H1    H     H_    0.081528 0.506276 0.723893 0.171574
H2    H     H_    0.561110 0.882651 0.295993 0.149258
H3    H     H_    0.480426 0.900772 0.841573 0.134171
H4    H     H_    0.448285 0.115170 0.826798 0.149336
H5    H     H_    0.558070 0.142668 0.763365 0.219540
H6    H     H_    0.384145 0.404642 0.126692 0.148973
H7    H     H_    0.079283 0.359767 0.652368 0.178105
H8    H     H_    0.384273 0.404351 0.867359 0.138749
H9    H     H_    0.665044 0.676142 0.878383 0.207585
H10   H     H_    0.553892 0.731376 0.884993 0.219340
H11   H     H_    0.666971 0.673203 0.130863 0.189591
H12   H     H_    0.557496 0.735262 0.129955 0.213444
H13   H     H_    0.062342 0.320736 0.415716 0.090203
H14   H     H_    0.927198 0.319438 0.395401 0.138768
H15   H     H_    0.069917 0.686712 0.581072 0.088872
H16   H     H_    0.928735 0.690643 0.572101 0.107307
N1    N     N_R   0.500530 0.500930 0.147930 -0.181561
N2    N     N_R   0.500530 0.500890 0.852020 -0.185027
O1    O     O_R   0.500000 0.319640 0.618810 -0.589059
O2    O     O_R   0.500010 0.319680 0.381230 -0.573395
O3    O     O_R   0.379430 0.499990 0.618840 -0.584294
O4    O     O_R   0.379440 0.500030 0.381260 -0.573986
O5    O     O_R   0.499990 0.680320 0.618770 -0.584337
O6    O     O_R   0.500000 0.680360 0.381190 -0.582770
O7    O     O_R   0.620560 0.499970 0.618740 -0.582266
O8    O     O_R   0.620570 0.500010 0.381160 -0.566953
N3    N     N_3   0.927353 0.318012 0.661427 -0.621216
H17   H     H_    0.943258 0.290866 0.762571 0.221142
H18   H     H_    0.960930 0.258343 0.596429 0.197294
C31   C     C_R   0.917863 0.522490 0.771330 0.148933
C32   C     C_R   0.957475 0.629316 0.828940 -0.201440
C33   C     C_R   0.922653 0.693366 0.942141 -0.142298
C34   C     C_R   0.847989 0.652684 0.001490 -0.106067
C35   C     C_R   0.808144 0.547350 0.948291 -0.160864
C36   C     C_R   0.841442 0.484358 0.833256 -0.140354
H19   H     H_    0.014533 0.666799 0.787100 0.101767
H20   H     H_    0.953885 0.774915 0.984078 0.130608
H21   H     H_    0.821459 0.702188 0.089564 0.131575
H22   H     H_    0.750903 0.514624 0.995810 0.137006
H23   H     H_    0.806844 0.405128 0.793023 0.152053
N4    N     N_3   0.916393 0.693642 0.356716 -0.579962
H24   H     H_    0.929732 0.787783 0.363562 0.208419
H25   H     H_    0.850821 0.688522 0.358234 0.214912
C37   C     C_R   0.586311 0.121417 0.271887 0.132304
C38   C     C_R   0.549790 0.160888 0.147002 -0.097684
C39   C     C_R   0.598408 0.225494 0.051039 -0.143068
C40   C     C_R   0.683835 0.247218 0.076690 -0.110774
C41   C     C_R   0.720698 0.206738 0.200127 -0.121387
C42   C     C_R   0.672036 0.144557 0.297946 -0.163284
H26   H     H_    0.483491 0.145366 0.126434 0.107609
H27   H     H_    0.569620 0.261069 0.958049 0.125073
H28   H     H_    0.721271 0.295961 0.001273 0.116030
H29   H     H_    0.786712 0.224504 0.220616 0.136367
H30   H     H_    0.700825 0.115376 0.394518 0.129856
N5    N     N_3   0.606887 0.927669 0.758674 -0.575343
H31   H     H_    0.618894 0.840545 0.716518 0.229417
H32   H     H_    0.628255 0.929943 0.862252 0.231519
C43   C     C_R   0.093582 0.415848 0.233531 0.145867
C44   C     C_R   0.144120 0.314796 0.194789 -0.166386
C45   C     C_R   0.189697 0.314175 0.070201 -0.146362
C46   C     C_R   0.186112 0.414239 0.981726 -0.127527
C47   C     C_R   0.136773 0.514843 0.017608 -0.146512
C48   C     C_R   0.090509 0.515597 0.141430 -0.099828
H33   H     H_    0.149277 0.236035 0.261666 0.107473
H34   H     H_    0.228272 0.236154 0.042714 0.116357
H35   H     H_    0.221496 0.413886 0.885366 0.122079
H36   H     H_    0.134334 0.592847 0.949293 0.120210
H37   H     H_    0.052484 0.594644 0.161793 0.179555
N6    N     N_3   0.909655 0.441284 0.240284 -0.584426
H38   H     H_    0.930245 0.523996 0.200992 0.279181
H39   H     H_    0.925663 0.372648 0.167503 0.212485
N7    N     N_3   0.086084 0.706157 0.368692 -0.584375
H40   H     H_    0.070789 0.798729 0.382609 0.202105
H41   H     H_    0.151597 0.705086 0.375859 0.219299

loop_
_geom_bond_atom_site_label_1
_geom_bond_atom_site_label_2
_ccdc_geom_bond_type
N5    H31   S    
N6    H38   S    
C18   C21   A    
N4    H24   S    
C19   C20   A    
Cu2   O8    S    
C3    C6    S    
N7    H41   S    
C7    C8    T    
C38   C39   A    
C5    H15   S    
C28   H14   S    
C41   H29   S    
C31   C36   A    
C18   C24   S    
C47   H36   S    
C3    C28   S    
C11   C37   S    
C16   H3    S    
C40   H28   S    
C20   H8    S    
C26   H7    S    
C22   H9    S    
C15   C16   S    
C27   C43   S    
C36   H23   S    
C21   N2    A    
C20   N2    A    
C44   H33   S    
C39   H27   S    
Cu2   O2    S    
C35   H22   S    
C16   C17   S    
C16   N5    S    
C17   H4    S    
C9    C10   A    
C12   O3    A    
C27   H13   S    
C35   C36   A    
C5    N7    S    
N3    H17   S    
N6    H39   S    
C7    C30   S    
C21   C22   S    
C27   C30   S    
N4    H25   S    
C25   O7    A    
C28   N6    S    
Cu2   O4    S    
N7    H40   S    
C45   H34   S    
C25   C29   S    
N3    H18   S    
C23   O6    A    
C37   C38   A    
C48   H37   S    
C44   C45   A    
C2    N3    S    
C41   C42   A    
C32   C33   A    
C14   C23   S    
C31   C32   A    
C19   H6    S    
C19   N1    A    
C26   H1    S    
Cu1   Cu2   S    
C8    C12   S    
C2    C26   S    
C46   C47   A    
C17   H5    S    
C33   H20   S    
Cu1   O3    S    
C1    O1    A    
C4    N4    S    
C9    C17   S    
C26   C30   S    
N5    H32   S    
C24   H12   S    
C22   C24   S    
C25   O8    A    
Cu1   N2    S    
C3    C4    S    
C5    C30   S    
C4    H16   S    
C32   H19   S    
C39   C40   A    
C1    C10   S    
C42   H30   S    
Cu1   O1    S    
C4    C5    S    
C43   C48   A    
C37   C42   A    
C23   O5    A    
C33   C34   A    
Cu1   O7    S    
C2    C3    S    
C9    C15   A    
C13   H2    S    
C11   C13   A    
C43   C44   A    
C22   H10   S    
C38   H26   S    
C45   C46   A    
C47   C48   A    
C1    O2    A    
Cu2   N1    S    
C10   C11   A    
C40   C41   A    
C6    C29   T    
C34   C35   A    
C27   C28   S    
C24   H11   S    
C14   C15   A    
Cu1   O5    S    
C34   H21   S    
C13   C14   A    
C46   H35   S    
Cu2   O6    S    
C12   O4    A    
C2    C31   S    
C18   N1    A    
