data_mof_unit_8529.cif
_audit_creation_date              2012-12-10T17:30:56-0500
_audit_creation_method            fapswitch 2.2
_symmetry_space_group_name_H-M    P1
_symmetry_Int_Tables_number       1
_space_group_crystal_system       triclinic
_cell_length_a                    18.314753
_cell_length_b                    18.314684
_cell_length_c                    60.014081
_cell_angle_alpha                 89.999979
_cell_angle_beta                  90.000042
_cell_angle_gamma                 89.70556
_cell_volume                      20130.1921887

loop_
_atom_site_label
_atom_site_type_symbol
_atom_type_description
_atom_site_fract_x
_atom_site_fract_y
_atom_site_fract_z
_atom_type_partial_charge
C1    C     C_R   0.500000 0.000000 0.189723 0.844983
C2    C     C_R   0.500000 1.000000 0.810378 0.849225
C3    C     C_R   0.000000 0.500000 0.189622 0.849230
C4    C     C_R   1.000000 0.500000 0.810277 0.844988
C5    C     C_R   1.000000 0.500000 0.689723 0.844963
C6    C     C_R   1.000000 0.500000 0.310378 0.849228
C7    C     C_R   0.500000 1.000000 0.689622 0.849222
C8    C     C_R   0.500000 1.000000 0.310277 0.844981
C9    C     C_R   0.500000 0.999999 0.381868 0.197621
C10   C     C_R   0.500005 0.999999 0.617739 0.211302
C11   C     C_R   1.000000 0.500000 0.382259 0.211237
C12   C     C_R   0.000001 0.500002 0.618133 0.197481
C13   C     C_R   0.999998 0.500000 0.881867 0.197570
C14   C     C_R   1.000000 0.500000 0.117740 0.211280
C15   C     C_R   0.500000 0.999997 0.882261 0.211300
C16   C     C_R   0.500000 1.000000 0.118132 0.197631
C17   C     C_R   0.500001 0.999998 0.452448 -0.049340
C18   C     C_R   0.500004 0.999998 0.547149 -0.049358
C19   C     C_R   0.000000 0.500000 0.452849 -0.049337
C20   C     C_R   0.000001 0.500001 0.547552 -0.049326
C21   C     C_R   0.999998 0.499999 0.952448 -0.049335
C22   C     C_R   0.999999 0.499999 0.047149 -0.049349
C23   C     C_R   0.500001 0.999998 0.952851 -0.049357
C24   C     C_R   0.500000 0.999999 0.047552 -0.049339
C25   C     C_R   0.434788 0.011876 0.440533 -0.030934
C26   C     C_R   0.565800 0.992133 0.559063 -0.030815
C27   C     C_R   0.007942 0.434215 0.440934 -0.030802
C28   C     C_R   0.988331 0.565250 0.559468 -0.030909
C29   C     C_R   0.565215 0.988120 0.440533 -0.030934
C30   C     C_R   0.434208 0.007864 0.559064 -0.030813
C31   C     C_R   0.992058 0.565786 0.440934 -0.030803
C32   C     C_R   0.011672 0.434753 0.559468 -0.030909
C33   C     C_R   0.934770 0.511790 0.940533 -0.030924
C34   C     C_R   0.065791 0.492106 0.059064 -0.030809
C35   C     C_R   0.507876 0.934203 0.940937 -0.030813
C36   C     C_R   0.488115 0.065212 0.059467 -0.030935
C37   C     C_R   0.065226 0.488209 0.940532 -0.030923
C38   C     C_R   0.934207 0.507892 0.059065 -0.030809
C39   C     C_R   0.492126 0.065793 0.940936 -0.030812
C40   C     C_R   0.511886 0.934787 0.059467 -0.030935
C41   C     C_R   0.369933 0.024014 0.452200 -0.137426
C42   C     C_R   0.631327 0.984604 0.547396 -0.137641
C43   C     C_R   0.015565 0.368698 0.452600 -0.137674
C44   C     C_R   0.976420 0.630146 0.547802 -0.137455
C45   C     C_R   0.630070 0.975982 0.452200 -0.137425
C46   C     C_R   0.368681 0.015392 0.547396 -0.137641
C47   C     C_R   0.984435 0.631303 0.452599 -0.137674
C48   C     C_R   0.023584 0.369857 0.547802 -0.137455
C49   C     C_R   0.869899 0.523834 0.952199 -0.137438
C50   C     C_R   0.131314 0.484543 0.047398 -0.137656
C51   C     C_R   0.515415 0.868677 0.952604 -0.137643
C52   C     C_R   0.475968 0.130065 0.047800 -0.137427
C53   C     C_R   0.130098 0.476164 0.952199 -0.137438
C54   C     C_R   0.868684 0.515456 0.047398 -0.137655
C55   C     C_R   0.484587 0.131319 0.952604 -0.137642
C56   C     C_R   0.524033 0.869933 0.047800 -0.137427
C57   C     C_R   0.500000 1.000000 0.334904 -0.230849
C58   C     C_R   0.500002 1.000000 0.664812 -0.219023
C59   C     C_R   1.000000 0.500000 0.335186 -0.219032
C60   C     C_R   0.000000 0.500000 0.665096 -0.230883
C61   C     C_R   0.999999 0.500000 0.834904 -0.230852
C62   C     C_R   1.000000 0.500000 0.164813 -0.219018
C63   C     C_R   0.500000 0.999999 0.835188 -0.219012
C64   C     C_R   0.500000 1.000000 0.165096 -0.230842
C65   C     C_R   0.933099 0.509170 0.011668 0.043835
C66   C     C_R   0.066646 0.489091 0.987929 0.043833
C67   C     C_R   0.510974 0.933363 0.012071 0.043827
C68   C     C_R   0.490814 0.066895 0.988333 0.043828
C69   C     C_R   0.066898 0.490828 0.011668 0.043835
C70   C     C_R   0.933351 0.510907 0.987929 0.043834
C71   C     C_R   0.489028 0.066635 0.012071 0.043828
C72   C     C_R   0.509187 0.933102 0.988333 0.043828
C73   C     C_R   0.433105 0.009175 0.511667 0.043828
C74   C     C_R   0.566639 0.989034 0.487929 0.043827
C75   C     C_R   0.010835 0.433339 0.512071 0.043844
C76   C     C_R   0.990829 0.566903 0.488331 0.043844
C77   C     C_R   0.566901 0.990821 0.511667 0.043828
C78   C     C_R   0.433365 0.010962 0.487929 0.043827
C79   C     C_R   0.989167 0.566663 0.512071 0.043844
C80   C     C_R   0.009172 0.433099 0.488331 0.043845
C81   C     C_R   0.999999 0.499999 0.023391 0.074667
C82   C     C_R   0.999998 0.499999 0.976206 0.074742
C83   C     C_R   0.500001 0.999999 0.023795 0.074759
C84   C     C_R   0.500001 0.999998 0.976609 0.074684
C85   C     C_R   0.500003 0.999998 0.523391 0.074684
C86   C     C_R   0.500002 0.999998 0.476205 0.074760
C87   C     C_R   0.000001 0.500001 0.523794 0.074715
C88   C     C_R   0.000001 0.500001 0.476608 0.074641
C89   C     C_R   0.867948 0.515981 0.024244 -0.210591
C90   C     C_R   0.130949 0.476439 0.975353 -0.210487
C91   C     C_R   0.523747 0.869081 0.024646 -0.210507
C92   C     C_R   0.484048 0.132053 0.975758 -0.210614
C93   C     C_R   0.132050 0.484017 0.024244 -0.210591
C94   C     C_R   0.869048 0.523559 0.975354 -0.210488
C95   C     C_R   0.476254 0.130917 0.024645 -0.210508
C96   C     C_R   0.515954 0.867944 0.975759 -0.210614
C97   C     C_R   0.367947 0.015931 0.524242 -0.210612
C98   C     C_R   0.630922 0.976268 0.475354 -0.210507
C99   C     C_R   0.023326 0.369007 0.524648 -0.210459
C100  C     C_R   0.983928 0.632044 0.475753 -0.210559
C101  C     C_R   0.632059 0.984065 0.524241 -0.210612
C102  C     C_R   0.369082 0.023728 0.475355 -0.210507
C103  C     C_R   0.976677 0.630996 0.524648 -0.210459
C104  C     C_R   0.016072 0.367957 0.475753 -0.210560
C105  C     C_R   0.639807 0.860193 0.250000 0.792879
C106  C     C_R   0.360189 0.139811 0.750000 0.781501
C107  C     C_R   0.139908 0.639908 0.250000 0.790167
C108  C     C_R   0.860114 0.360114 0.750000 0.772709
C109  C     C_R   0.360193 0.139807 0.250000 0.792879
C110  C     C_R   0.639811 0.860189 0.750000 0.781498
C111  C     C_R   0.860092 0.360092 0.250000 0.790167
C112  C     C_R   0.139886 0.639885 0.750000 0.772705
C113  C     C_R   0.639908 0.139908 0.750000 0.790169
C114  C     C_R   0.360114 0.860114 0.250000 0.772706
C115  C     C_R   0.139807 0.360193 0.750000 0.792882
C116  C     C_R   0.860189 0.639810 0.250000 0.781499
C117  C     C_R   0.360092 0.860092 0.750000 0.790168
C118  C     C_R   0.639886 0.139886 0.250000 0.772707
C119  C     C_R   0.860193 0.639807 0.750000 0.792882
C120  C     C_R   0.139811 0.360189 0.250000 0.781499
C121  C     C_R   0.211488 0.895743 0.261388 -0.141656
C122  C     C_R   0.788344 0.104625 0.738225 -0.146352
C123  C     C_R   0.122753 0.230597 0.276223 -0.152925
C124  C     C_R   0.876726 0.768806 0.723490 -0.149617
C125  C     C_R   0.788512 0.104257 0.261388 -0.141656
C126  C     C_R   0.211656 0.895375 0.738225 -0.146354
C127  C     C_R   0.877248 0.769403 0.276222 -0.152924
C128  C     C_R   0.123274 0.231193 0.723490 -0.149614
C129  C     C_R   0.230598 0.122753 0.723777 -0.152913
C130  C     C_R   0.768808 0.876728 0.276509 -0.149624
C131  C     C_R   0.104260 0.788508 0.738608 -0.141671
C132  C     C_R   0.895378 0.211653 0.261771 -0.146351
C133  C     C_R   0.769401 0.877246 0.723777 -0.152923
C134  C     C_R   0.231192 0.123272 0.276509 -0.149624
C135  C     C_R   0.895740 0.211491 0.738608 -0.141673
C136  C     C_R   0.104622 0.788347 0.261770 -0.146351
C137  C     C_R   0.711491 0.395741 0.761391 -0.141667
C138  C     C_R   0.288347 0.604621 0.238230 -0.146352
C139  C     C_R   0.622753 0.730598 0.776223 -0.152927
C140  C     C_R   0.376727 0.268808 0.223491 -0.149626
C141  C     C_R   0.288509 0.604259 0.761391 -0.141669
C142  C     C_R   0.711653 0.395378 0.238229 -0.146353
C143  C     C_R   0.377247 0.269402 0.776223 -0.152922
C144  C     C_R   0.623272 0.731192 0.223491 -0.149627
C145  C     C_R   0.730596 0.622751 0.223778 -0.152926
C146  C     C_R   0.268807 0.376727 0.776510 -0.149624
C147  C     C_R   0.604257 0.288511 0.238612 -0.141655
C148  C     C_R   0.395376 0.711656 0.761774 -0.146352
C149  C     C_R   0.269403 0.377249 0.223778 -0.152927
C150  C     C_R   0.731194 0.623274 0.776510 -0.149626
C151  C     C_R   0.395743 0.711488 0.238613 -0.141655
C152  C     C_R   0.604624 0.288345 0.761773 -0.146355
C153  C     C_R   0.139698 0.913805 0.266778 -0.147433
C154  C     C_R   0.860227 0.086460 0.732975 -0.141812
C155  C     C_R   0.114496 0.168234 0.289269 -0.160678
C156  C     C_R   0.885178 0.831333 0.710534 -0.152297
C157  C     C_R   0.860302 0.086196 0.266779 -0.147435
C158  C     C_R   0.139772 0.913540 0.732975 -0.141813
C159  C     C_R   0.885505 0.831766 0.289268 -0.160676
C160  C     C_R   0.114820 0.168666 0.710535 -0.152292
C161  C     C_R   0.168235 0.114497 0.710731 -0.160692
C162  C     C_R   0.831336 0.885181 0.289464 -0.152295
C163  C     C_R   0.086200 0.860296 0.733214 -0.147439
C164  C     C_R   0.913544 0.139768 0.267019 -0.141850
C165  C     C_R   0.831764 0.885502 0.710730 -0.160669
C166  C     C_R   0.168665 0.114819 0.289464 -0.152292
C167  C     C_R   0.913799 0.139703 0.733215 -0.147440
C168  C     C_R   0.086455 0.860232 0.267018 -0.141851
C169  C     C_R   0.639702 0.413801 0.766784 -0.147433
C170  C     C_R   0.360232 0.586455 0.232982 -0.141850
C171  C     C_R   0.614498 0.668235 0.789269 -0.160661
C172  C     C_R   0.385181 0.331336 0.210536 -0.152296
C173  C     C_R   0.360299 0.586199 0.766784 -0.147432
C174  C     C_R   0.639768 0.413544 0.232981 -0.141850
C175  C     C_R   0.385503 0.331765 0.789269 -0.160672
C176  C     C_R   0.614818 0.668664 0.210536 -0.152295
C177  C     C_R   0.668233 0.614495 0.210732 -0.160671
C178  C     C_R   0.331334 0.385179 0.789465 -0.152295
C179  C     C_R   0.586196 0.360302 0.233221 -0.147434
C180  C     C_R   0.413541 0.639772 0.767024 -0.141840
C181  C     C_R   0.331767 0.385505 0.210732 -0.160670
C182  C     C_R   0.668667 0.614821 0.789466 -0.152297
C183  C     C_R   0.413804 0.639697 0.233222 -0.147435
C184  C     C_R   0.586458 0.360229 0.767023 -0.141838
C185  C     C_R   0.176883 0.768795 0.255566 0.071296
C186  C     C_R   0.823273 0.231221 0.744541 0.074953
C187  C     C_R   0.240832 0.186197 0.263117 0.072898
C188  C     C_R   0.759336 0.813941 0.736963 0.075407
C189  C     C_R   0.823116 0.231205 0.255566 0.071296
C190  C     C_R   0.176727 0.768779 0.744540 0.074949
C191  C     C_R   0.759169 0.813803 0.263117 0.072898
C192  C     C_R   0.240664 0.186059 0.736963 0.075413
C193  C     C_R   0.186197 0.240832 0.736883 0.072903
C194  C     C_R   0.813942 0.759337 0.263037 0.075411
C195  C     C_R   0.231207 0.823115 0.744432 0.071272
C196  C     C_R   0.768781 0.176726 0.255458 0.074944
C197  C     C_R   0.813802 0.759168 0.736883 0.072898
C198  C     C_R   0.186059 0.240663 0.263037 0.075411
C199  C     C_R   0.768793 0.176885 0.744432 0.071272
C200  C     C_R   0.231219 0.823275 0.255457 0.074941
C201  C     C_R   0.676884 0.268794 0.755568 0.071289
C202  C     C_R   0.323275 0.731219 0.244543 0.074941
C203  C     C_R   0.740832 0.686197 0.763117 0.072897
C204  C     C_R   0.259337 0.313942 0.236963 0.075409
C205  C     C_R   0.323115 0.731206 0.755568 0.071289
C206  C     C_R   0.676726 0.268780 0.244542 0.074940
C207  C     C_R   0.259168 0.313803 0.763117 0.072899
C208  C     C_R   0.740663 0.686058 0.236963 0.075408
C209  C     C_R   0.686196 0.740831 0.236883 0.072899
C210  C     C_R   0.313941 0.259337 0.763037 0.075410
C211  C     C_R   0.731205 0.323116 0.244433 0.071296
C212  C     C_R   0.268780 0.676727 0.755459 0.074935
C213  C     C_R   0.313803 0.259168 0.236883 0.072899
C214  C     C_R   0.686059 0.740663 0.763037 0.075407
C215  C     C_R   0.268795 0.676883 0.244434 0.071295
C216  C     C_R   0.731220 0.323273 0.755459 0.074933
C217  C     C_R   0.196029 0.696029 0.250000 -0.158515
C218  C     C_R   0.804036 0.304036 0.750000 -0.171319
C219  C     C_R   0.304091 0.195909 0.250000 -0.153098
C220  C     C_R   0.695916 0.804084 0.750000 -0.161019
C221  C     C_R   0.803971 0.303971 0.250000 -0.158515
C222  C     C_R   0.195964 0.695964 0.750000 -0.171316
C223  C     C_R   0.695909 0.804091 0.250000 -0.153098
C224  C     C_R   0.304084 0.195916 0.750000 -0.161028
C225  C     C_R   0.195909 0.304091 0.750000 -0.153099
C226  C     C_R   0.804084 0.695916 0.250000 -0.161023
C227  C     C_R   0.303971 0.803971 0.750000 -0.158510
C228  C     C_R   0.695964 0.195964 0.250000 -0.171324
C229  C     C_R   0.804091 0.695909 0.750000 -0.153096
C230  C     C_R   0.195916 0.304084 0.250000 -0.161023
C231  C     C_R   0.696029 0.196030 0.750000 -0.158512
C232  C     C_R   0.304036 0.804036 0.250000 -0.171323
C233  C     C_R   0.435973 0.011821 0.417093 0.523795
C234  C     C_R   0.564654 0.992450 0.582504 0.522447
C235  C     C_R   0.007624 0.435360 0.417494 0.522441
C236  C     C_R   0.988379 0.564064 0.582908 0.523785
C237  C     C_R   0.564028 0.988176 0.417092 0.523795
C238  C     C_R   0.435355 0.007547 0.582504 0.522444
C239  C     C_R   0.992376 0.564641 0.417494 0.522439
C240  C     C_R   0.011623 0.435939 0.582908 0.523785
C241  C     C_R   0.935956 0.511739 0.917092 0.523790
C242  C     C_R   0.064645 0.492424 0.082505 0.522443
C243  C     C_R   0.507558 0.935349 0.917496 0.522444
C244  C     C_R   0.488170 0.064026 0.082907 0.523795
C245  C     C_R   0.064040 0.488261 0.917092 0.523791
C246  C     C_R   0.935353 0.507575 0.082505 0.522443
C247  C     C_R   0.492443 0.064646 0.917496 0.522443
C248  C     C_R   0.511830 0.935973 0.082907 0.523795
C249  C     C_R   0.536761 0.054692 0.370135 -0.214847
C250  C     C_R   0.479812 0.062872 0.629452 -0.229478
C251  C     C_R   0.937122 0.520179 0.370545 -0.229461
C252  C     C_R   0.945275 0.463288 0.629866 -0.214806
C253  C     C_R   0.463238 0.945306 0.370135 -0.214849
C254  C     C_R   0.520197 0.937127 0.629453 -0.229497
C255  C     C_R   0.062878 0.479821 0.370545 -0.229463
C256  C     C_R   0.054725 0.536715 0.629867 -0.214812
C257  C     C_R   0.036740 0.554706 0.870134 -0.214840
C258  C     C_R   0.979811 0.562874 0.129453 -0.229482
C259  C     C_R   0.437127 0.020190 0.870547 -0.229487
C260  C     C_R   0.445308 0.963237 0.129865 -0.214851
C261  C     C_R   0.963256 0.445294 0.870134 -0.214841
C262  C     C_R   0.020188 0.437126 0.129453 -0.229482
C263  C     C_R   0.562873 0.979806 0.870547 -0.229495
C264  C     C_R   0.554692 0.036762 0.129865 -0.214854
C265  C     C_R   0.538115 0.054434 0.346784 0.387983
C266  C     C_R   0.477795 0.063063 0.652858 0.387877
C267  C     C_R   0.936932 0.522198 0.347141 0.387863
C268  C     C_R   0.945537 0.461926 0.653217 0.387939
C269  C     C_R   0.461884 0.945566 0.346784 0.387984
C270  C     C_R   0.522211 0.936936 0.652858 0.387889
C271  C     C_R   0.063068 0.477802 0.347141 0.387864
C272  C     C_R   0.054463 0.538076 0.653217 0.387942
C273  C     C_R   0.038098 0.554445 0.846784 0.387963
C274  C     C_R   0.977794 0.563065 0.152859 0.387876
C275  C     C_R   0.436936 0.022207 0.847142 0.387879
C276  C     C_R   0.445567 0.961883 0.153216 0.387983
C277  C     C_R   0.961900 0.445555 0.846783 0.387962
C278  C     C_R   0.022205 0.436935 0.152859 0.387876
C279  C     C_R   0.563064 0.977791 0.847142 0.387885
C280  C     C_R   0.554433 0.038117 0.153216 0.387984
H1    H     H_    0.469448 0.625501 0.228914 0.140944
H2    H     H_    0.530925 0.374357 0.771469 0.140596
H3    H     H_    0.338321 0.433833 0.200561 0.131122
H4    H     H_    0.662329 0.566700 0.799745 0.128106
H5    H     H_    0.530553 0.374498 0.228913 0.140943
H6    H     H_    0.469075 0.625644 0.771469 0.140595
H7    H     H_    0.661679 0.566167 0.200561 0.131122
H8    H     H_    0.337672 0.433300 0.799744 0.128107
H9    H     H_    0.433830 0.338318 0.799440 0.131119
H10   H     H_    0.566696 0.662325 0.200258 0.128106
H11   H     H_    0.374494 0.530557 0.771093 0.140938
H12   H     H_    0.625640 0.469079 0.228536 0.140601
H13   H     H_    0.566171 0.661682 0.799440 0.131119
H14   H     H_    0.433303 0.337675 0.200257 0.128105
H15   H     H_    0.625507 0.469444 0.771093 0.140937
H16   H     H_    0.374361 0.530920 0.228538 0.140602
H17   H     H_    0.969442 0.125508 0.728905 0.140931
H18   H     H_    0.030921 0.874361 0.271462 0.140602
H19   H     H_    0.838317 0.933828 0.700559 0.131119
H20   H     H_    0.162326 0.066697 0.299743 0.128106
H21   H     H_    0.030558 0.874491 0.728905 0.140931
H22   H     H_    0.969079 0.125640 0.271464 0.140601
H23   H     H_    0.161682 0.066170 0.700560 0.131118
H24   H     H_    0.837675 0.933303 0.299743 0.128107
H25   H     H_    0.933832 0.838320 0.299439 0.131123
H26   H     H_    0.066699 0.162328 0.700256 0.128110
H27   H     H_    0.874498 0.030552 0.271087 0.140943
H28   H     H_    0.125644 0.969073 0.728529 0.140590
H29   H     H_    0.066169 0.161681 0.299439 0.131123
H30   H     H_    0.933300 0.837671 0.700255 0.128109
H31   H     H_    0.125502 0.969448 0.271086 0.140944
H32   H     H_    0.874355 0.030926 0.728529 0.140589
H33   H     H_    0.251036 0.939219 0.262266 0.138219
H34   H     H_    0.748620 0.061339 0.737166 0.135089
H35   H     H_    0.079412 0.270944 0.276753 0.110283
H36   H     H_    0.919741 0.728128 0.722793 0.109269
H37   H     H_    0.748964 0.060781 0.262266 0.138218
H38   H     H_    0.251379 0.938661 0.737166 0.135090
H39   H     H_    0.920589 0.729056 0.276753 0.110283
H40   H     H_    0.080259 0.271872 0.722793 0.109266
H41   H     H_    0.270944 0.079413 0.723246 0.110284
H42   H     H_    0.728130 0.919742 0.277206 0.109267
H43   H     H_    0.060785 0.748959 0.737730 0.138210
H44   H     H_    0.938664 0.251377 0.262830 0.135097
H45   H     H_    0.729055 0.920587 0.723246 0.110280
H46   H     H_    0.271870 0.080257 0.277206 0.109268
H47   H     H_    0.939215 0.251040 0.737730 0.138211
H48   H     H_    0.061336 0.748624 0.262829 0.135098
H49   H     H_    0.751039 0.439216 0.762270 0.138212
H50   H     H_    0.248624 0.561335 0.237170 0.135097
H51   H     H_    0.579412 0.770944 0.776753 0.110280
H52   H     H_    0.419742 0.228130 0.222794 0.109269
H53   H     H_    0.248961 0.560784 0.762269 0.138214
H54   H     H_    0.751376 0.438664 0.237170 0.135097
H55   H     H_    0.420588 0.229056 0.776753 0.110282
H56   H     H_    0.580257 0.771870 0.222794 0.109269
H57   H     H_    0.770943 0.579411 0.223247 0.110282
H58   H     H_    0.228129 0.419741 0.777207 0.109269
H59   H     H_    0.560782 0.248964 0.237734 0.138218
H60   H     H_    0.438662 0.751379 0.762833 0.135092
H61   H     H_    0.229057 0.420589 0.223247 0.110282
H62   H     H_    0.771872 0.580259 0.777207 0.109270
H63   H     H_    0.439219 0.751036 0.237734 0.138220
H64   H     H_    0.561338 0.248622 0.762832 0.135094
H65   H     H_    0.435152 0.902654 0.379173 0.171496
H66   H     H_    0.534327 0.888142 0.620285 0.162792
H67   H     H_    0.111866 0.465703 0.379713 0.162841
H68   H     H_    0.097404 0.564763 0.620829 0.171594
H69   H     H_    0.564847 0.097344 0.379173 0.171499
H70   H     H_    0.465683 0.111857 0.620284 0.162801
H71   H     H_    0.888134 0.534297 0.379713 0.162841
H72   H     H_    0.902597 0.435240 0.620828 0.171598
H73   H     H_    0.935185 0.402632 0.879172 0.171535
H74   H     H_    0.034314 0.388140 0.120286 0.162812
H75   H     H_    0.611858 0.965677 0.879715 0.162798
H76   H     H_    0.597343 0.064850 0.120827 0.171491
H77   H     H_    0.064811 0.597368 0.879172 0.171537
H78   H     H_    0.965685 0.611860 0.120285 0.162812
H79   H     H_    0.388143 0.034318 0.879715 0.162801
H80   H     H_    0.402657 0.935150 0.120827 0.171493
H81   H     H_    0.319095 0.033962 0.443453 0.188530
H82   H     H_    0.682817 0.979122 0.556143 0.188556
H83   H     H_    0.021151 0.317220 0.443851 0.188561
H84   H     H_    0.966681 0.681022 0.556551 0.188536
H85   H     H_    0.680908 0.966034 0.443452 0.188529
H86   H     H_    0.317191 0.020874 0.556144 0.188556
H87   H     H_    0.978848 0.682780 0.443851 0.188561
H88   H     H_    0.033323 0.318981 0.556551 0.188536
H89   H     H_    0.819044 0.533696 0.943451 0.188532
H90   H     H_    0.182799 0.479021 0.056146 0.188557
H91   H     H_    0.520905 0.817188 0.943856 0.188556
H92   H     H_    0.466014 0.180902 0.056548 0.188530
H93   H     H_    0.180952 0.466303 0.943451 0.188533
H94   H     H_    0.817199 0.520977 0.056146 0.188557
H95   H     H_    0.479097 0.182808 0.943856 0.188556
H96   H     H_    0.533987 0.819096 0.056548 0.188530
H97   H     H_    0.814760 0.521054 0.016789 0.141272
H98   H     H_    0.183304 0.465638 0.982808 0.141225
H99   H     H_    0.534658 0.816751 0.017188 0.141241
H100  H     H_    0.479022 0.185242 0.983216 0.141289
H101  H     H_    0.185238 0.478944 0.016789 0.141271
H102  H     H_    0.816693 0.534360 0.982808 0.141226
H103  H     H_    0.465343 0.183246 0.017188 0.141242
H104  H     H_    0.520980 0.814755 0.983216 0.141288
H105  H     H_    0.314757 0.020947 0.516785 0.141289
H106  H     H_    0.683253 0.965363 0.482812 0.141242
H107  H     H_    0.033976 0.316617 0.517198 0.141205
H108  H     H_    0.978764 0.685228 0.483203 0.141249
H109  H     H_    0.685249 0.979048 0.516784 0.141289
H110  H     H_    0.316751 0.034633 0.482812 0.141242
H111  H     H_    0.966028 0.683386 0.517198 0.141205
H112  H     H_    0.021236 0.314774 0.483204 0.141249
N1    N     N_R   0.500000 0.999999 0.405855 -0.327347
N2    N     N_R   0.500005 0.999999 0.593745 -0.327209
N3    N     N_R   1.000000 0.500000 0.406253 -0.327194
N4    N     N_R   0.000001 0.500002 0.594146 -0.327315
N5    N     N_R   0.999998 0.500000 0.905855 -0.327333
N6    N     N_R   0.999999 0.500000 0.093746 -0.327203
N7    N     N_R   0.500001 0.999998 0.906255 -0.327206
N8    N     N_R   0.500000 1.000000 0.094145 -0.327349
O1    O     O_3   0.500000 0.000000 0.250000 -0.495035
O2    O     O_3   0.500000 0.000000 0.750000 -0.494448
O3    O     O_3   0.000000 0.500000 0.250000 -0.494448
O4    O     O_3   0.000000 0.500000 0.750000 -0.495031
O5    O     O_R   0.439130 0.000000 0.200390 -0.603611
O6    O     O_R   0.560870 0.000000 0.799610 -0.598585
O7    O     O_R   1.000000 0.439130 0.200390 -0.598586
O8    O     O_R   0.000000 0.560870 0.799610 -0.603606
O9    O     O_R   0.560870 0.000000 0.200390 -0.603609
O10   O     O_R   0.439130 0.000000 0.799610 -0.598586
O11   O     O_R   1.000000 0.560870 0.200390 -0.598587
O12   O     O_R   1.000000 0.439130 0.799610 -0.603606
O13   O     O_R   0.939130 0.500000 0.700390 -0.603600
O14   O     O_R   0.060870 0.500000 0.299610 -0.598587
O15   O     O_R   0.500000 0.939130 0.700390 -0.598584
O16   O     O_R   0.500000 0.060870 0.299610 -0.603611
O17   O     O_R   0.060870 0.500000 0.700390 -0.603599
O18   O     O_R   0.939130 0.500000 0.299610 -0.598587
O19   O     O_R   0.500000 0.060870 0.700390 -0.598589
O20   O     O_R   0.500000 0.939130 0.299610 -0.603610
O21   O     O_R   0.646010 0.914780 0.237240 -0.636846
O22   O     O_R   0.353990 0.085220 0.762760 -0.646002
O23   O     O_R   0.085220 0.646010 0.237240 -0.635587
O24   O     O_R   0.914780 0.353990 0.762760 -0.640964
O25   O     O_R   0.353990 0.085220 0.237240 -0.636846
O26   O     O_R   0.646010 0.914780 0.762760 -0.646001
O27   O     O_R   0.914780 0.353990 0.237240 -0.635587
O28   O     O_R   0.085220 0.646010 0.762760 -0.640961
O29   O     O_R   0.646010 0.085220 0.762760 -0.635584
O30   O     O_R   0.353990 0.914780 0.237240 -0.640957
O31   O     O_R   0.085220 0.353990 0.762760 -0.636844
O32   O     O_R   0.914780 0.646010 0.237240 -0.646005
O33   O     O_R   0.353990 0.914780 0.762760 -0.635584
O34   O     O_R   0.646010 0.085220 0.237240 -0.640958
O35   O     O_R   0.914780 0.646010 0.762760 -0.636843
O36   O     O_R   0.085220 0.353990 0.237240 -0.646005
O37   O     O_R   0.146010 0.414780 0.737240 -0.636841
O38   O     O_R   0.853990 0.585220 0.262760 -0.646011
O39   O     O_R   0.585220 0.146010 0.737240 -0.635589
O40   O     O_R   0.414780 0.853990 0.262760 -0.640960
O41   O     O_R   0.853990 0.585220 0.737240 -0.636841
O42   O     O_R   0.146010 0.414780 0.262760 -0.646011
O43   O     O_R   0.414780 0.853990 0.737240 -0.635589
O44   O     O_R   0.585220 0.146010 0.262760 -0.640958
O45   O     O_R   0.146010 0.585220 0.262760 -0.635587
O46   O     O_R   0.853990 0.414780 0.737240 -0.640985
O47   O     O_R   0.585220 0.853990 0.262760 -0.636847
O48   O     O_R   0.414780 0.146010 0.737240 -0.646008
O49   O     O_R   0.853990 0.414780 0.262760 -0.635586
O50   O     O_R   0.146010 0.585220 0.737240 -0.640987
O51   O     O_R   0.414780 0.146010 0.262760 -0.636847
O52   O     O_R   0.585220 0.853990 0.737240 -0.646004
O53   O     O_2   0.373714 0.024082 0.405626 -0.571171
O54   O     O_2   0.627747 0.985869 0.593966 -0.571917
O55   O     O_2   0.014276 0.372274 0.406031 -0.571956
O56   O     O_2   0.976306 0.626360 0.594374 -0.571256
O57   O     O_2   0.626286 0.975915 0.405625 -0.571172
O58   O     O_2   0.372264 0.014128 0.593967 -0.571920
O59   O     O_2   0.985724 0.627726 0.406031 -0.571956
O60   O     O_2   0.023697 0.373643 0.594374 -0.571255
O61   O     O_2   0.873682 0.523922 0.905626 -0.571207
O62   O     O_2   0.127735 0.485818 0.093968 -0.571931
O63   O     O_2   0.514148 0.872257 0.906033 -0.571922
O64   O     O_2   0.475902 0.126284 0.094374 -0.571169
O65   O     O_2   0.126314 0.476077 0.905626 -0.571208
O66   O     O_2   0.872263 0.514181 0.093968 -0.571932
O67   O     O_2   0.485854 0.127738 0.906033 -0.571923
O68   O     O_2   0.524098 0.873716 0.094375 -0.571168
Zn1   Zn    Zn3+2 0.500000 0.913460 0.269040 0.972240
Zn2   Zn    Zn3+2 0.500000 0.086540 0.730960 0.970384
Zn3   Zn    Zn3+2 0.086540 0.500000 0.269040 0.970380
Zn4   Zn    Zn3+2 0.913460 0.500000 0.730960 0.972223
Zn5   Zn    Zn3+2 0.500000 0.086540 0.269040 0.972241
Zn6   Zn    Zn3+2 0.500000 0.913460 0.730960 0.970385
Zn7   Zn    Zn3+2 0.913460 0.500000 0.269040 0.970380
Zn8   Zn    Zn3+2 0.086540 0.500000 0.730960 0.972222
Zn9   Zn    Zn3+2 0.000000 0.413460 0.769040 0.972236
Zn10  Zn    Zn3+2 1.000000 0.586540 0.230960 0.970385
Zn11  Zn    Zn3+2 0.586540 0.000000 0.769040 0.970388
Zn12  Zn    Zn3+2 0.413460 0.000000 0.230960 0.972241
Zn13  Zn    Zn3+2 1.000000 0.586540 0.769040 0.972237
Zn14  Zn    Zn3+2 1.000000 0.413460 0.230960 0.970385
Zn15  Zn    Zn3+2 0.413460 0.000000 0.769040 0.970388
Zn16  Zn    Zn3+2 0.586540 0.000000 0.230960 0.972241
O69   O     O_3   0.424869 0.891132 0.335590 -0.607469
C281  C     C_3   0.350313 0.910770 0.334355 0.088431
H113  H     H_    0.343317 0.965542 0.326460 0.117880
H114  H     H_    0.325640 0.911553 0.351330 0.157186
C282  C     C_3   0.310132 0.854580 0.320146 -0.300028
H115  H     H_    0.333079 0.854635 0.303003 0.235224
H116  H     H_    0.318108 0.799270 0.327403 0.238782
C283  C     C_3   0.228543 0.871421 0.318975 -0.969735
H117  H     H_    0.204100 0.870104 0.335906 0.272055
H118  H     H_    0.201057 0.829798 0.308509 0.281851
H119  H     H_    0.219201 0.926149 0.311487 0.256739
O70   O     O_3   0.541818 0.873930 0.664214 -0.604647
C284  C     C_3   0.616038 0.857096 0.660139 0.086791
H120  H     H_    0.651034 0.906796 0.660944 0.129718
H121  H     H_    0.621926 0.831127 0.643473 0.156006
C285  C     C_3   0.642694 0.803420 0.677906 -0.304281
H122  H     H_    0.640281 0.830217 0.694501 0.237716
H123  H     H_    0.606433 0.754944 0.678227 0.240839
C286  C     C_3   0.720864 0.778270 0.673378 -0.930562
H124  H     H_    0.723571 0.747391 0.657469 0.270070
H125  H     H_    0.739640 0.742084 0.687102 0.280045
H126  H     H_    0.757919 0.825937 0.672362 0.268628
O71   O     O_3   0.126075 0.458198 0.335785 -0.604646
C287  C     C_3   0.142907 0.383977 0.339858 0.086824
H127  H     H_    0.093207 0.348981 0.339051 0.129714
H128  H     H_    0.168871 0.378084 0.356525 0.156029
C288  C     C_3   0.196587 0.357324 0.322092 -0.304311
H129  H     H_    0.169795 0.359742 0.305497 0.237730
H130  H     H_    0.245065 0.393584 0.321774 0.240840
C289  C     C_3   0.221733 0.279152 0.326619 -0.930539
H131  H     H_    0.252609 0.276440 0.342528 0.270085
H132  H     H_    0.257923 0.260377 0.312896 0.280040
H133  H     H_    0.174066 0.242098 0.327633 0.268629
O72   O     O_3   0.108919 0.575058 0.664411 -0.607459
C290  C     C_3   0.089331 0.649628 0.665643 0.088479
H134  H     H_    0.034554 0.656663 0.673531 0.117867
H135  H     H_    0.088585 0.674299 0.648667 0.157236
C291  C     C_3   0.145531 0.689774 0.679857 -0.300075
H136  H     H_    0.145441 0.666826 0.697001 0.235271
H137  H     H_    0.200843 0.681763 0.672606 0.238782
C292  C     C_3   0.128739 0.771373 0.681028 -0.969687
H138  H     H_    0.130098 0.795816 0.664096 0.272066
H139  H     H_    0.170363 0.798832 0.691500 0.281844
H140  H     H_    0.074006 0.780748 0.688507 0.256756
O73   O     O_3   0.575131 0.108867 0.335590 -0.607469
C293  C     C_3   0.649686 0.089225 0.334354 0.088435
H141  H     H_    0.656677 0.034456 0.326457 0.117878
H142  H     H_    0.674361 0.088433 0.351330 0.157184
C294  C     C_3   0.689870 0.145419 0.320148 -0.300028
H143  H     H_    0.666921 0.145374 0.303004 0.235229
H144  H     H_    0.681900 0.200725 0.327407 0.238779
C295  C     C_3   0.771458 0.128571 0.318974 -0.969738
H145  H     H_    0.795902 0.129878 0.335906 0.272054
H146  H     H_    0.798946 0.170197 0.308510 0.281852
H147  H     H_    0.780793 0.073846 0.311485 0.256737
O74   O     O_3   0.458183 0.126069 0.664212 -0.604647
C296  C     C_3   0.383956 0.142882 0.660143 0.086814
H148  H     H_    0.348972 0.093176 0.660961 0.129695
H149  H     H_    0.378043 0.168815 0.643472 0.156007
C297  C     C_3   0.357310 0.196589 0.677902 -0.304296
H150  H     H_    0.359742 0.169825 0.694501 0.237733
H151  H     H_    0.393566 0.245070 0.678211 0.240836
C298  C     C_3   0.279134 0.221721 0.673377 -0.930566
H152  H     H_    0.276410 0.252576 0.657463 0.270071
H153  H     H_    0.260363 0.257926 0.687096 0.280043
H154  H     H_    0.242084 0.174048 0.672370 0.268631
O75   O     O_3   0.873925 0.541802 0.335785 -0.604646
C299  C     C_3   0.857094 0.616023 0.339858 0.086826
H155  H     H_    0.906795 0.651018 0.339051 0.129713
H156  H     H_    0.831131 0.621918 0.356525 0.156029
C300  C     C_3   0.803413 0.642677 0.322092 -0.304312
H157  H     H_    0.830204 0.640257 0.305497 0.237730
H158  H     H_    0.754936 0.606417 0.321774 0.240840
C301  C     C_3   0.778268 0.720849 0.326618 -0.930540
H159  H     H_    0.747393 0.723562 0.342528 0.270085
H160  H     H_    0.742078 0.739623 0.312896 0.280040
H161  H     H_    0.825936 0.757903 0.327632 0.268629
O76   O     O_3   0.891081 0.424943 0.664410 -0.607459
C302  C     C_3   0.910674 0.350375 0.665644 0.088481
H162  H     H_    0.965445 0.343345 0.673537 0.117862
H163  H     H_    0.911435 0.325701 0.648668 0.157233
C303  C     C_3   0.854466 0.310226 0.679855 -0.300071
H164  H     H_    0.854540 0.333176 0.696998 0.235276
H165  H     H_    0.799159 0.318231 0.672600 0.238778
C304  C     C_3   0.871264 0.228628 0.681028 -0.969678
H166  H     H_    0.869919 0.204182 0.664097 0.272063
H167  H     H_    0.829635 0.201167 0.691498 0.281841
H168  H     H_    0.925993 0.219258 0.688511 0.256755
O77   O     O_3   0.924898 0.391112 0.835589 -0.607465
C305  C     C_3   0.850335 0.410726 0.834358 0.088444
H169  H     H_    0.843319 0.465502 0.826467 0.117877
H170  H     H_    0.825666 0.411486 0.851334 0.157209
C306  C     C_3   0.810169 0.354535 0.820145 -0.300044
H171  H     H_    0.833113 0.354613 0.803001 0.235235
H172  H     H_    0.818164 0.299222 0.827398 0.238785
C307  C     C_3   0.728574 0.371350 0.818977 -0.969703
H173  H     H_    0.704136 0.370008 0.835909 0.272059
H174  H     H_    0.701100 0.329729 0.808508 0.281847
H175  H     H_    0.719213 0.426083 0.811495 0.256746
O78   O     O_3   0.041813 0.373929 0.164214 -0.604646
C308  C     C_3   0.116035 0.357099 0.160140 0.086805
H176  H     H_    0.151028 0.406801 0.160946 0.129715
H177  H     H_    0.121926 0.331134 0.143473 0.156019
C309  C     C_3   0.142692 0.303421 0.177906 -0.304297
H178  H     H_    0.140274 0.330215 0.194501 0.237720
H179  H     H_    0.106433 0.254943 0.178225 0.240841
C310  C     C_3   0.220863 0.278277 0.173379 -0.930541
H180  H     H_    0.223574 0.247400 0.157470 0.270083
H181  H     H_    0.239640 0.242089 0.187102 0.280042
H182  H     H_    0.257916 0.325945 0.172364 0.268626
O79   O     O_3   0.626069 0.958182 0.835786 -0.604648
C311  C     C_3   0.642905 0.883963 0.839862 0.086792
H183  H     H_    0.593205 0.848966 0.839060 0.129722
H184  H     H_    0.668881 0.878080 0.856527 0.156012
C312  C     C_3   0.696574 0.857302 0.822094 -0.304286
H185  H     H_    0.669771 0.859713 0.805500 0.237713
H186  H     H_    0.745050 0.893563 0.821771 0.240841
C313  C     C_3   0.721723 0.779133 0.826622 -0.930551
H187  H     H_    0.752607 0.776428 0.842530 0.270076
H188  H     H_    0.757906 0.760354 0.812898 0.280045
H189  H     H_    0.674057 0.742078 0.827640 0.268625
O80   O     O_3   0.608866 0.075132 0.164410 -0.607469
C314  C     C_3   0.589229 0.149688 0.165644 0.088429
H190  H     H_    0.534456 0.156686 0.173538 0.117881
H191  H     H_    0.588451 0.174361 0.148668 0.157185
C315  C     C_3   0.645417 0.189870 0.179854 -0.300025
H192  H     H_    0.645357 0.166924 0.196997 0.235221
H193  H     H_    0.700727 0.181893 0.172598 0.238784
C316  C     C_3   0.628576 0.271460 0.181024 -0.969735
H194  H     H_    0.629897 0.295901 0.164093 0.272056
H195  H     H_    0.670198 0.298946 0.191490 0.281852
H196  H     H_    0.573848 0.280802 0.188511 0.256738
O81   O     O_3   0.075102 0.608887 0.835589 -0.607466
C317  C     C_3   0.149663 0.589269 0.834358 0.088447
H197  H     H_    0.156677 0.534493 0.826467 0.117878
H198  H     H_    0.174333 0.588507 0.851334 0.157209
C318  C     C_3   0.189833 0.645459 0.820146 -0.300046
H199  H     H_    0.166888 0.645385 0.803002 0.235237
H200  H     H_    0.181842 0.700772 0.827399 0.238784
C319  C     C_3   0.271426 0.628637 0.818976 -0.969710
H201  H     H_    0.295866 0.629974 0.835908 0.272060
H202  H     H_    0.298903 0.670259 0.808508 0.281849
H203  H     H_    0.280782 0.573905 0.811493 0.256744
O82   O     O_3   0.958186 0.626071 0.164214 -0.604646
C320  C     C_3   0.883965 0.642901 0.160140 0.086806
H204  H     H_    0.848971 0.593198 0.160946 0.129715
H205  H     H_    0.878073 0.668866 0.143473 0.156019
C321  C     C_3   0.857308 0.696578 0.177906 -0.304299
H206  H     H_    0.859726 0.669785 0.194501 0.237721
H207  H     H_    0.893567 0.745057 0.178225 0.240841
C322  C     C_3   0.779137 0.721722 0.173379 -0.930540
H208  H     H_    0.776425 0.752599 0.157469 0.270083
H209  H     H_    0.760360 0.757911 0.187102 0.280042
H210  H     H_    0.742084 0.674053 0.172364 0.268626
O83   O     O_3   0.373931 0.041817 0.835787 -0.604647
C323  C     C_3   0.357104 0.116039 0.839860 0.086803
H211  H     H_    0.406807 0.151031 0.839053 0.129713
H212  H     H_    0.331144 0.121933 0.856528 0.156012
C324  C     C_3   0.303422 0.142696 0.822096 -0.304294
H213  H     H_    0.330210 0.140276 0.805500 0.237722
H214  H     H_    0.254943 0.106438 0.821778 0.240840
C325  C     C_3   0.278280 0.220868 0.826623 -0.930553
H215  H     H_    0.247407 0.223580 0.842533 0.270077
H216  H     H_    0.242090 0.239645 0.812901 0.280044
H217  H     H_    0.325950 0.257920 0.827637 0.268626
O84   O     O_3   0.391134 0.924867 0.164410 -0.607469
C326  C     C_3   0.410774 0.850312 0.165645 0.088432
H218  H     H_    0.465545 0.843317 0.173540 0.117879
H219  H     H_    0.411558 0.825638 0.148670 0.157184
C327  C     C_3   0.354584 0.810129 0.179854 -0.300027
H220  H     H_    0.354638 0.833077 0.196997 0.235223
H221  H     H_    0.299275 0.818103 0.172596 0.238783
C328  C     C_3   0.371427 0.728540 0.181025 -0.969736
H222  H     H_    0.370112 0.704098 0.164094 0.272056
H223  H     H_    0.329804 0.701053 0.191491 0.281852
H224  H     H_    0.426155 0.719200 0.188513 0.256738

loop_
_geom_bond_atom_site_label_1
_geom_bond_atom_site_label_2
_ccdc_geom_bond_type
C290  C291  S    
C312  H185  S    
C196  C228  A    
C12   C256  A    
C273  O81   S    
C308  H176  S    
O9    Zn16  S    
C77   C101  A    
C295  H147  S    
C143  C175  A    
C324  C325  S    
C174  C179  A    
C325  H217  S    
C3    O11   A    
C213  C219  A    
O1    Zn12  S    
C43   H83   S    
C65   C89   A    
C301  H161  S    
C112  O50   A    
C111  O49   A    
C15   N7    S    
C110  O26   A    
C48   H88   S    
C251  H71   S    
C181  H3    S    
C69   C93   A    
C142  H54   S    
C182  H4    S    
C326  C327  S    
C131  C190  A    
C21   C33   A    
C317  H197  S    
C22   C38   A    
C129  C192  A    
O4    Zn4   S    
C37   C245  A    
C293  H141  S    
C48   C99   A    
C199  C231  A    
C104  H112  S    
C133  C188  A    
C301  H159  S    
C117  O43   A    
C126  C195  A    
C299  C300  S    
C242  O62   S    
C321  H207  S    
C307  H173  S    
C207  C210  A    
C245  N5    A    
C76   C79   A    
C139  C171  A    
O5    Zn12  S    
C135  C186  A    
O34   Zn16  S    
C321  C322  S    
C145  C208  A    
C272  O72   S    
C126  C158  A    
C120  O36   A    
C167  H17   S    
C79   C87   A    
C113  O39   A    
C150  C203  A    
C137  C169  A    
C114  O40   A    
O48   Zn2   S    
C144  C209  A    
C328  H223  S    
C191  C223  A    
C303  H165  S    
C286  H125  S    
O1    Zn16  S    
C93   H101  S    
C138  C215  A    
C122  H34   S    
C18   C85   A    
C210  C224  A    
C23   C84   A    
C302  H162  S    
C95   H103  S    
C311  H183  S    
C66   C90   A    
C25   C41   A    
C146  C207  A    
C304  H168  S    
C172  H14   S    
C20   C28   A    
C118  C228  S    
C124  C197  A    
C28   C44   A    
C29   C45   A    
C1    O9    A    
C164  H22   S    
C305  H169  S    
C8    C57   S    
C66   C82   A    
C284  C285  S    
C306  H172  S    
C313  H188  S    
O16   Zn5   S    
C57   C269  A    
C306  C307  S    
C237  O57   S    
O76   C302  S    
C123  C198  A    
C255  H67   S    
C295  H145  S    
C235  O55   S    
O4    Zn8   S    
C72   C84   A    
C121  C153  A    
C148  C205  A    
C147  H59   S    
C63   C275  A    
C315  H193  S    
C294  H144  S    
C153  C168  A    
C235  N3    A    
C308  C309  S    
C53   H93   S    
C186  C199  A    
O83   C323  S    
O29   Zn11  S    
C251  C267  A    
C96   H104  S    
C313  H189  S    
C310  H181  S    
C276  O84   S    
C132  H44   S    
C103  H111  S    
O18   Zn7   S    
O13   Zn4   S    
C9    C253  A    
O4    Zn13  S    
C252  H72   S    
O78   C308  S    
C144  H56   S    
C325  H216  S    
C326  H218  S    
C12   N4    S    
O72   C290  S    
C13   N5    S    
C76   C100  A    
C315  C316  S    
C136  C168  A    
O81   C317  S    
C58   C270  A    
C59   C267  A    
O10   Zn15  S    
C178  H8    S    
C297  H150  S    
C320  H205  S    
C191  C194  A    
C17   C25   A    
C80   C88   A    
C300  H157  S    
C214  C220  A    
C318  H199  S    
O47   Zn1   S    
C110  O52   A    
O2    Zn11  S    
C189  C196  A    
O40   Zn1   S    
C271  O71   S    
C307  H175  S    
C68   C92   A    
O50   Zn8   S    
C243  N7    A    
C148  H60   S    
C281  H113  S    
C70   C82   A    
C314  H191  S    
C60   C272  A    
C15   C263  A    
O84   C326  S    
C119  C229  S    
C193  C225  A    
C72   C96   A    
C147  C179  A    
C71   C95   A    
C237  N1    A    
C157  H27   S    
C312  C313  S    
C274  O82   S    
C158  H28   S    
C200  C232  A    
C246  N6    A    
O46   Zn4   S    
C153  H31   S    
C130  H42   S    
C8    O16   A    
C102  H110  S    
C35   C243  A    
C258  C274  A    
O6    Zn11  S    
C33   C241  A    
C314  H190  S    
C311  C312  S    
C327  H221  S    
C323  H211  S    
C98   H106  S    
C233  O53   S    
C314  C315  S    
C169  C184  A    
C212  C222  A    
C186  C218  A    
O69   C281  S    
C263  H75   S    
C156  C165  A    
C94   H102  S    
C4    O12   A    
C295  H146  S    
C115  C225  S    
C5    O13   A    
C190  C222  A    
C279  O79   S    
C16   C260  A    
O2    Zn15  S    
C139  C214  A    
C239  O59   S    
C65   C70   A    
C211  C221  A    
C20   C87   A    
O82   C320  S    
C146  C178  A    
C281  C282  S    
C67   C72   A    
C62   C274  A    
C249  C265  A    
C13   C257  A    
C43   C104  A    
C14   C262  A    
C208  C226  A    
C107  C217  S    
C172  C181  A    
C16   C264  A    
C285  H123  S    
C74   C77   A    
C120  O42   A    
C284  H121  S    
O45   Zn3   S    
C3    O7    A    
C36   C52   A    
C309  C310  S    
C37   C53   A    
C26   C234  A    
O39   Zn2   S    
C299  H156  S    
C288  C289  S    
C77   C85   A    
C292  H138  S    
C79   C103  A    
C112  O28   A    
C89   H97   S    
C142  C211  A    
C30   C238  A    
C161  H23   S    
C168  H18   S    
C319  H201  S    
C44   C103  A    
C105  O21   A    
C71   C83   A    
C22   C34   A    
C39   C55   A    
C240  O60   S    
C187  C198  A    
C297  C298  S    
C298  H154  S    
C162  H24   S    
C128  C193  A    
C318  C319  S    
C177  H7    S    
C133  H45   S    
C40   C56   A    
O14   Zn3   S    
C185  C217  A    
C179  H5    S    
C143  H55   S    
O12   Zn9   S    
C302  H163  S    
C129  H41   S    
C108  O46   A    
C201  C216  A    
C296  H148  S    
C11   C255  A    
O79   C311  S    
C246  O66   S    
C144  C176  A    
C75   C99   A    
O73   C293  S    
C129  C161  A    
C282  H116  S    
C157  C164  A    
C73   C85   A    
O2    Zn2   S    
C137  H49   S    
C158  C163  A    
C28   C236  A    
C190  C195  A    
C75   C87   A    
C16   N8    S    
C121  C200  A    
C250  H70   S    
C149  H61   S    
C288  H129  S    
C42   C101  A    
C2    C63   S    
C26   C42   A    
C20   C32   A    
C3    C62   S    
C183  H1    S    
C303  H164  S    
C299  H155  S    
C249  H69   S    
C305  C306  S    
C61   C277  A    
C6    C59   S    
C30   C46   A    
C6    O18   A    
C324  H214  S    
C165  H19   S    
C310  H182  S    
C286  H124  S    
C166  H20   S    
C197  C229  A    
O20   Zn1   S    
C247  N7    A    
C240  N4    A    
C248  N8    A    
O41   Zn4   S    
C292  H139  S    
C289  H131  S    
C239  N3    A    
C320  H204  S    
C56   H96   S    
C44   H84   S    
C123  H35   S    
C90   H98   S    
C63   C279  A    
C119  O35   A    
C64   C280  A    
C260  H80   S    
C115  O37   A    
C117  O33   A    
C45   H85   S    
C140  H52   S    
O36   Zn14  S    
C300  C301  S    
O3    Zn7   S    
C291  H136  S    
C116  O32   A    
O8    Zn13  S    
O2    Zn6   S    
C201  C231  A    
C261  C277  A    
C21   C82   A    
C307  H174  S    
C292  H140  S    
C135  C167  A    
O11   Zn10  S    
C319  H203  S    
C254  H66   S    
C154  H32   S    
C287  H127  S    
C50   H90   S    
C303  C304  S    
C323  C324  S    
C316  H194  S    
C255  C271  A    
C78   C102  A    
C293  C294  S    
C17   C29   A    
C126  H38   S    
C298  H152  S    
C18   C26   A    
O24   Zn9   S    
C19   C31   A    
C119  O41   A    
C328  H222  S    
C15   C259  A    
C150  C182  A    
C123  C155  A    
O44   Zn5   S    
C267  O75   S    
C42   H82   S    
O32   Zn10  S    
C80   C104  A    
C265  O73   S    
O74   C296  S    
C70   C94   A    
C24   C83   A    
C311  H184  S    
C296  C297  S    
C45   C98   A    
C54   H94   S    
C170  C183  A    
C125  C157  A    
C304  H167  S    
C138  C170  A    
C33   C49   A    
C38   C246  A    
C92   H100  S    
C238  N2    A    
C283  H117  S    
C52   C95   A    
C113  O29   A    
C275  O83   S    
C236  N4    A    
C125  H37   S    
C203  C214  A    
C252  C268  A    
C56   C91   A    
C127  H39   S    
C253  C269  A    
C208  C209  A    
C128  H40   S    
C241  O61   S    
C236  O56   S    
C268  O76   S    
C100  H108  S    
C259  C275  A    
C101  H109  S    
C202  C215  A    
C175  C178  A    
C5    C60   S    
C99   H107  S    
C108  C218  S    
C97   H105  S    
C148  C180  A    
C31   C47   A    
C294  H143  S    
C149  C181  A    
C308  H177  S    
C327  C328  S    
C107  O45   A    
C112  C222  S    
C60   C268  A    
C281  H114  S    
O3    Zn14  S    
C113  C231  S    
C143  C210  A    
C188  C220  A    
O30   Zn12  S    
C301  H160  S    
C11   N3    S    
C17   C86   A    
C68   C84   A    
C22   C81   A    
C290  H134  S    
C250  C266  A    
C74   C98   A    
C19   C88   A    
C14   C258  A    
C320  C321  S    
C322  H210  S    
C139  H51   S    
C10   N2    S    
C205  C212  A    
C105  C223  S    
C305  H170  S    
O21   Zn16  S    
C64   C276  A    
C154  C167  A    
C36   C244  A    
C2    O6    A    
C147  C206  A    
C49   H89   S    
C195  C227  A    
C132  C164  A    
O23   Zn10  S    
C109  C219  S    
C133  C165  A    
C138  H50   S    
O28   Zn13  S    
C65   C81   A    
C38   C54   A    
O27   Zn14  S    
C131  C163  A    
C238  O58   S    
O15   Zn6   S    
O42   Zn3   S    
O37   Zn8   S    
C67   C91   A    
O31   Zn9   S    
C159  C162  A    
C24   C36   A    
C151  C183  A    
C149  C204  A    
C192  C224  A    
C310  H180  S    
C41   H81   S    
C159  H25   S    
C287  C288  S    
C39   C247  A    
C106  O22   A    
C46   C97   A    
C261  H73   S    
C316  H196  S    
C23   C35   A    
C312  H186  S    
C137  C216  A    
C209  C223  A    
C141  H53   S    
C136  H48   S    
C7    O15   A    
C151  C202  A    
C120  C230  S    
C257  H77   S    
O51   Zn5   S    
C328  H224  S    
C130  C191  A    
C202  C232  A    
C286  H126  S    
C259  H79   S    
O49   Zn7   S    
C290  H135  S    
C31   C239  A    
C146  H58   S    
C10   C254  A    
C134  C187  A    
C216  C218  A    
C323  H212  S    
C248  O68   S    
C285  C286  S    
C173  C180  A    
C277  O77   S    
C12   C252  A    
C283  H119  S    
C9    C249  A    
C194  C226  A    
C215  C217  A    
C2    O10   A    
C160  C161  A    
C270  O70   S    
C243  O63   S    
C152  H64   S    
C313  H187  S    
C32   C48   A    
C188  C197  A    
C68   C71   A    
C263  C279  A    
C4    C61   S    
C109  O25   A    
C205  C227  A    
C180  H6    S    
O80   C314  S    
C107  O23   A    
C69   C81   A    
O25   Zn12  S    
C27   C43   A    
C75   C80   A    
C21   C37   A    
C315  H192  S    
C8    O20   A    
C294  C295  S    
C53   C90   A    
C134  H46   S    
C61   C273  A    
C327  H220  S    
C285  H122  S    
C7    O19   A    
C132  C189  A    
C131  H43   S    
C152  C201  A    
C297  H151  S    
O43   Zn6   S    
C5    O17   A    
C288  H130  S    
C136  C185  A    
C34   C242  A    
C326  H219  S    
C171  C182  A    
C234  O54   S    
C160  H26   S    
C319  H202  S    
C316  H195  S    
C322  H208  S    
C142  C174  A    
C187  C219  A    
C25   C233  A    
C41   C102  A    
C73   C97   A    
C256  C272  A    
C55   C92   A    
C317  H198  S    
C118  O34   A    
C298  H153  S    
O3    Zn3   S    
C150  H62   S    
C114  C232  S    
O19   Zn2   S    
C189  C221  A    
C66   C69   A    
C258  H78   S    
C155  C166  A    
C121  H33   S    
C262  C278  A    
C284  H120  S    
C111  C221  S    
C266  O74   S    
C124  H36   S    
C6    O14   A    
C264  C280  A    
C206  C211  A    
C207  C225  A    
C106  C224  S    
O22   Zn15  S    
C73   C78   A    
C18   C30   A    
C122  C199  A    
C152  C184  A    
C46   H86   S    
C19   C27   A    
C280  O80   S    
C76   C88   A    
C7    C58   S    
C293  H142  S    
C108  O24   A    
C27   C235  A    
C51   C96   A    
C78   C86   A    
C173  H11   S    
C57   C265  A    
O38   Zn7   S    
C140  C172  A    
C174  H12   S    
C141  C173  A    
C122  C154  A    
C322  H209  S    
C47   H87   S    
C169  H15   S    
C29   C237  A    
C40   C248  A    
C170  H16   S    
C134  C166  A    
C109  O51   A    
C111  O27   A    
C171  H13   S    
C135  H47   S    
C262  H74   S    
C34   C50   A    
C318  H200  S    
O71   C287  S    
C145  H57   S    
C114  O30   A    
C309  H178  S    
C54   C89   A    
C127  C194  A    
O75   C299  S    
C203  C229  A    
C55   H95   S    
C32   C240  A    
C125  C196  A    
C204  C213  A    
C254  C270  A    
C11   C251  A    
C47   C100  A    
C309  H179  S    
C116  C226  S    
C260  C276  A    
O35   Zn13  S    
C289  H132  S    
O4    Zn9   S    
C14   N6    S    
C244  O64   S    
O33   Zn15  S    
C105  O47   A    
C247  O67   S    
C106  O48   A    
C155  H29   S    
C58   C266  A    
C245  O65   S    
C175  H9    S    
C59   C271  A    
C151  H63   S    
C67   C83   A    
C74   C86   A    
C300  H158  S    
C141  C212  A    
O3    Zn10  S    
C291  H137  S    
O1    Zn1   S    
C176  C177  A    
C124  C156  A    
C206  C228  A    
C49   C94   A    
C289  H133  S    
C176  H10   S    
C127  C159  A    
C110  C220  S    
C321  H206  S    
C128  C160  A    
C287  H128  S    
C282  H115  S    
C156  H30   S    
C117  C227  S    
C118  O44   A    
C115  O31   A    
C9    N1    S    
C241  N5    A    
C291  C292  S    
C116  O38   A    
O52   Zn6   S    
C198  C230  A    
C50   C93   A    
C1    O5    A    
C325  H215  S    
C256  H68   S    
C257  C273  A    
C302  C303  S    
C192  C193  A    
C264  H76   S    
C296  H149  S    
C91   H99   S    
C35   C51   A    
C130  C162  A    
C304  H166  S    
C13   C261  A    
C23   C39   A    
C242  N6    A    
C278  O78   S    
O70   C284  S    
C24   C40   A    
C283  H118  S    
C10   C250  A    
C52   H92   S    
C185  C200  A    
C204  C230  A    
O77   C305  S    
C4    O8    A    
C282  C283  S    
C234  N2    A    
C269  O69   S    
O26   Zn11  S    
C163  H21   S    
O7    Zn14  S    
O1    Zn5   S    
C184  H2    S    
C306  H171  S    
O17   Zn8   S    
C145  C177  A    
C62   C278  A    
C244  N8    A    
C233  N1    A    
C1    C64   S    
C317  C318  S    
C140  C213  A    
C51   H91   S    
C324  H213  S    
C253  H65   S    
