data_mof_unit_23976.cif
_audit_creation_date              2012-12-11T15:32:32-0500
_audit_creation_method            fapswitch 2.2
_symmetry_space_group_name_H-M    P1
_symmetry_Int_Tables_number       1
_space_group_crystal_system       triclinic
_cell_length_a                    6.962521
_cell_length_b                    20.409258
_cell_length_c                    24.37017
_cell_angle_alpha                 89.694555
_cell_angle_beta                  90.649078
_cell_angle_gamma                 89.390209
_cell_volume                      3462.52862288

loop_
_atom_site_label
_atom_site_type_symbol
_atom_type_description
_atom_site_fract_x
_atom_site_fract_y
_atom_site_fract_z
_atom_type_partial_charge
O1    O     O_R   0.507320 0.423560 0.460500 -0.543224
O2    O     O_R   0.170760 0.556250 0.437010 -0.531823
O3    O     O_R   0.004030 0.576440 0.539500 -0.533822
C1    C     C_R   0.338176 0.576488 0.421145 0.741571
O4    O     O_R   0.177370 0.422820 0.454110 -0.538851
O5    O     O_R   0.010680 0.442050 0.556720 -0.534628
C2    C     C_R   0.346597 0.398861 0.443727 0.765402
O6    O     O_R   0.500680 0.557950 0.443280 -0.538775
O7    O     O_3   0.340380 0.506470 0.533650 -0.372665
V1    V     V_3+5 0.064130 0.498800 0.493760 1.443196
O8    O     O_R   0.681160 0.443750 0.562990 -0.540578
C3    C     C_R   0.851044 0.423482 0.578660 0.736955
O9    O     O_R   0.674560 0.577180 0.545890 -0.545978
C4    C     C_R   0.842944 0.600905 0.557211 0.782645
V2    V     V_3+5 0.564560 0.501200 0.506240 1.414158
O10   O     O_3   0.838180 0.493530 0.466350 -0.372555
C5    C     C_R   0.971422 0.835606 0.913784 -0.209883
C6    C     C_R   0.847536 0.662164 0.589809 -0.192073
C7    C     C_R   0.930745 0.716798 0.913334 0.395030
C8    C     C_R   0.946910 0.776334 0.942631 0.328593
C9    C     C_R   0.972483 0.835451 0.856320 -0.251849
C10   C     C_R   0.927939 0.778419 0.825769 -0.003127
C11   C     C_R   0.917827 0.717733 0.854785 -0.116482
C12   C     C_R   0.892865 0.780029 0.767259 -0.067276
C13   C     C_R   0.889116 0.720200 0.737262 -0.031907
C14   C     C_R   0.875263 0.661664 0.767363 -0.226597
C15   C     C_R   0.891714 0.659259 0.824659 0.479592
C16   C     C_R   0.840711 0.838482 0.738527 0.280365
C17   C     C_R   0.817303 0.838989 0.681142 0.352728
C18   C     C_R   0.826455 0.780100 0.650752 -0.173284
C19   C     C_R   0.874955 0.720329 0.678276 -0.111076
C20   C     C_R   0.783442 0.779539 0.593501 0.533720
C21   C     C_R   0.782472 0.719908 0.565097 -0.357403
C22   C     C_R   0.906107 0.662763 0.645397 0.410634
H1    H     H_    0.733090 0.718717 0.522806 0.142165
H2    H     H_    0.007931 0.880941 0.836313 0.186557
H3    H     H_    0.832714 0.617151 0.747285 0.185339
C23   C     C_3   0.786281 0.296584 0.762284 -0.268510
C24   C     C_3   0.977076 0.278301 0.792318 0.415775
H4    H     H_    0.683646 0.336025 0.773828 0.121866
H5    H     H_    0.229569 0.294923 0.728529 0.131197
C25   C     C_1   0.960857 0.120580 0.874890 -0.204835
C26   C     C_1   0.863833 0.377239 0.623902 -0.199297
C27   C     C_3   0.742593 0.222598 0.759213 0.385168
C28   C     C_3   0.929773 0.204889 0.789961 -0.026526
C29   C     C_3   0.843797 0.216479 0.703254 -0.245955
C30   C     C_3   0.894555 0.290312 0.707158 0.009815
C31   C     C_3   0.033000 0.200466 0.734774 0.391126
C32   C     C_3   0.087097 0.273766 0.737606 -0.285557
C33   C     C_1   0.948458 0.158303 0.836420 0.044639
C34   C     C_1   0.876701 0.338055 0.661431 -0.000023
H6    H     H_    0.786779 0.190859 0.666550 0.121681
C35   C     C_3   0.561897 0.729063 0.220002 0.470432
C36   C     C_3   0.378582 0.689149 0.228312 0.388641
H7    H     H_    0.122239 0.752535 0.188524 0.166745
C37   C     C_1   0.345766 0.621804 0.374943 -0.192611
C38   C     C_1   0.477533 0.876949 0.124132 -0.197611
C39   C     C_3   0.569077 0.746709 0.281683 -0.345844
C40   C     C_3   0.383992 0.706141 0.289942 -0.010346
C41   C     C_3   0.443380 0.808864 0.269284 -0.245004
C42   C     C_3   0.437562 0.790462 0.207499 -0.002623
C43   C     C_3   0.260922 0.767521 0.277422 0.517117
C44   C     C_3   0.251089 0.750158 0.215692 -0.375554
C45   C     C_1   0.359134 0.659678 0.336460 0.053125
C46   C     C_1   0.463242 0.837884 0.161736 0.024240
H8    H     H_    0.468460 0.858570 0.285995 0.131507
H9    H     H_    0.697514 0.744702 0.309027 0.180051
C47   C     C_R   0.465705 0.163596 0.085799 -0.099965
C48   C     C_R   0.357916 0.339607 0.409855 -0.143640
C49   C     C_R   0.397152 0.280167 0.084886 0.441944
C50   C     C_R   0.430614 0.221630 0.056932 -0.248860
C51   C     C_R   0.470495 0.163756 0.143243 -0.200860
C52   C     C_R   0.430939 0.221865 0.173278 0.029914
C53   C     C_R   0.388929 0.279824 0.142813 -0.034167
C54   C     C_R   0.425076 0.223809 0.232191 0.025864
C55   C     C_R   0.374250 0.283538 0.259927 -0.068885
C56   C     C_R   0.305801 0.336702 0.226645 0.461624
C57   C     C_R   0.327619 0.335945 0.170055 -0.264911
C58   C     C_R   0.462151 0.167137 0.264100 -0.155041
C59   C     C_R   0.444377 0.167471 0.320505 -0.180801
C60   C     C_R   0.405007 0.225219 0.348405 0.093428
C61   C     C_R   0.382561 0.285644 0.319431 -0.026855
C62   C     C_R   0.391940 0.222366 0.405724 -0.166754
C63   C     C_R   0.363876 0.278861 0.435969 -0.258214
C64   C     C_R   0.375605 0.344235 0.352315 0.386250
H10   H     H_    0.282567 0.379148 0.147043 0.190419
H11   H     H_    0.353973 0.275430 0.480238 0.124398
H12   H     H_    0.466921 0.121854 0.342817 0.114349
H13   H     H_    0.423922 0.221194 0.012471 0.118348
H14   H     H_    0.497448 0.117074 0.162736 0.098354
H15   H     H_    0.501000 0.120558 0.246811 0.113537
H16   H     H_    0.404674 0.175969 0.427406 0.122793
O11   O     O_R   0.323550 0.942140 0.056770 -0.544869
O12   O     O_R   0.647080 0.077200 0.045890 -0.539408
O13   O     O_R   0.813610 0.057920 0.943260 -0.540250
C65   C     C_R   0.478001 0.101800 0.055491 0.720255
O14   O     O_R   0.653470 0.943760 0.063000 -0.529103
O15   O     O_R   0.820050 0.923540 0.960490 -0.525223
C66   C     C_R   0.485921 0.923310 0.078696 0.730252
O16   O     O_R   0.317110 0.076520 0.039540 -0.533290
O17   O     O_3   0.483830 0.993580 0.966380 -0.370279
V3    V     V_3+5 0.760140 0.001190 0.006240 1.430418
O18   O     O_R   0.149510 0.922740 0.954070 -0.549093
C67   C     C_R   0.980866 0.898627 0.943471 0.761336
O19   O     O_R   0.143120 0.056170 0.936970 -0.539097
C68   C     C_R   0.973272 0.075936 0.921042 0.725213
V4    V     V_3+5 0.259690 0.998700 0.993700 1.397594
O20   O     O_3   0.986130 0.006420 0.033620 -0.368872
O21   O     O_3   0.863301 0.600117 0.851541 -0.517590
C69   C     C_3   0.005940 0.554187 0.836315 -0.217585
H17   H     H_    0.152944 0.575064 0.839124 0.128890
H18   H     H_    0.978139 0.534604 0.794585 0.129840
H19   H     H_    0.000423 0.512042 0.865076 0.151992
O22   O     O_3   0.719937 0.836171 0.566921 -0.522388
C70   C     C_3   0.839629 0.850357 0.522059 -0.210307
H20   H     H_    0.801394 0.819909 0.486005 0.134501
H21   H     H_    0.995022 0.844296 0.532617 0.119654
H22   H     H_    0.816023 0.902303 0.509950 0.154889
O23   O     O_3   0.043861 0.307151 0.841320 -0.549820
C71   C     C_3   0.095223 0.372506 0.830843 -0.250056
H23   H     H_    0.972837 0.401331 0.813083 0.137562
H24   H     H_    0.221877 0.374877 0.803565 0.130679
H25   H     H_    0.136454 0.395555 0.870312 0.158473
O24   O     O_3   0.159448 0.147777 0.723863 -0.537150
C72   C     C_3   0.237469 0.155215 0.671125 0.161516
H26   H     H_    0.315949 0.202252 0.667441 0.129864
H27   H     H_    0.122566 0.153170 0.639074 0.091751
C73   C     C_3   0.379698 0.099513 0.661135 -0.689283
H28   H     H_    0.306960 0.051561 0.664772 0.217400
H29   H     H_    0.440361 0.104117 0.619365 0.159473
H30   H     H_    0.498861 0.101162 0.691733 0.251097
O25   O     O_3   0.562732 0.193707 0.768447 -0.547040
C74   C     C_3   0.499499 0.205973 0.822410 0.111206
H31   H     H_    0.371716 0.238683 0.820128 0.170551
H32   H     H_    0.606409 0.230292 0.849744 0.104013
C75   C     C_3   0.442284 0.141564 0.848996 -0.644272
H33   H     H_    0.568664 0.108438 0.853320 0.208700
H34   H     H_    0.382678 0.151005 0.890297 0.174944
H35   H     H_    0.333229 0.116686 0.823222 0.250457
O26   O     O_3   0.344225 0.624746 0.210064 -0.554207
C76   C     C_3   0.340973 0.623574 0.152235 -0.253310
H36   H     H_    0.483797 0.635409 0.135210 0.181278
H37   H     H_    0.229250 0.657201 0.134740 0.125793
H38   H     H_    0.305148 0.573269 0.138811 0.161270
O27   O     O_3   0.719603 0.710700 0.187442 -0.560316
C77   C     C_3   0.818635 0.657842 0.212764 -0.249329
H39   H     H_    0.721812 0.616624 0.222893 0.163639
H40   H     H_    0.896576 0.674258 0.250196 0.171835
H41   H     H_    0.926530 0.638654 0.183746 0.181353
O28   O     O_3   0.994057 0.606820 0.666437 -0.573509
C78   C     C_3   0.194325 0.616571 0.667721 -0.243176
H42   H     H_    0.234259 0.656681 0.696276 0.141050
H43   H     H_    0.265307 0.570988 0.682981 0.156676
H44   H     H_    0.250453 0.626765 0.625957 0.148746
O29   O     O_3   0.104083 0.785322 0.310530 -0.551954
C79   C     C_3   0.008886 0.840194 0.287234 -0.261570
H45   H     H_    0.939598 0.827581 0.247396 0.165381
H46   H     H_    0.107446 0.882277 0.282099 0.132646
H47   H     H_    0.893384 0.856008 0.315370 0.158601
O30   O     O_3   0.388933 0.406717 0.330653 -0.530755
C80   C     C_3   0.580137 0.418804 0.315774 0.105953
H48   H     H_    0.627844 0.383802 0.283826 0.097012
H49   H     H_    0.677931 0.415148 0.352199 0.107691
C81   C     C_3   0.591734 0.487787 0.292026 -0.629237
H50   H     H_    0.551254 0.524009 0.323623 0.211356
H51   H     H_    0.739996 0.498294 0.278627 0.155200
H52   H     H_    0.492876 0.493105 0.256149 0.261279
O31   O     O_3   0.351861 0.336506 0.055406 -0.558408
C82   C     C_3   0.521996 0.362125 0.033225 0.089002
H53   H     H_    0.579627 0.329216 0.000903 0.129522
H54   H     H_    0.633789 0.369113 0.065770 0.120718
C83   C     C_3   0.477692 0.428584 0.007220 -0.690228
H55   H     H_    0.423506 0.462911 0.038834 0.214334
H56   H     H_    0.610108 0.449033 0.989150 0.185918
H57   H     H_    0.367219 0.423518 0.974309 0.223976
O32   O     O_3   0.206447 0.389477 0.247348 -0.519063
C84   C     C_3   0.017405 0.370507 0.258627 -0.187770
H58   H     H_    0.010118 0.324679 0.283494 0.113469
H59   H     H_    0.932777 0.365465 0.219929 0.123527
H60   H     H_    0.952569 0.409831 0.283397 0.158904
O33   O     O_3   0.765084 0.897559 0.655897 -0.514935
C85   C     C_3   0.931010 0.935781 0.648639 0.190460
H61   H     H_    0.033337 0.910775 0.620663 0.100600
H62   H     H_    0.005349 0.945663 0.688410 0.132116
C86   C     C_3   0.872444 0.001329 0.623199 -0.691763
H63   H     H_    0.779538 0.028970 0.651914 0.225118
H64   H     H_    0.001990 0.030663 0.614549 0.165038
H65   H     H_    0.792488 0.993495 0.584144 0.224187
O34   O     O_3   0.906901 0.657920 0.941478 -0.512726
C87   C     C_3   0.062021 0.644875 0.978248 0.180985
H66   H     H_    0.021384 0.660858 0.020007 0.156236
H67   H     H_    0.198312 0.669112 0.966154 0.085136
C88   C     C_3   0.100679 0.571443 0.981589 -0.702714
H68   H     H_    0.169146 0.554189 0.943399 0.213375
H69   H     H_    0.200248 0.560623 0.016466 0.163210
H70   H     H_    0.964652 0.544672 0.988079 0.235797
O35   O     O_3   0.916345 0.775904 0.998890 -0.549947
C89   C     C_3   0.083688 0.794569 0.028154 -0.243913
H71   H     H_    0.066947 0.845669 0.042654 0.172529
H72   H     H_    0.219337 0.789200 0.004567 0.107484
H73   H     H_    0.098482 0.763283 0.065366 0.146013
O36   O     O_3   0.795477 0.895727 0.765945 -0.557111
C90   C     C_3   0.599234 0.894906 0.780084 0.120875
H74   H     H_    0.567856 0.852616 0.807540 0.118892
H75   H     H_    0.505957 0.892326 0.742718 0.139728
C91   C     C_3   0.549607 0.957699 0.810452 -0.677454
H76   H     H_    0.575546 0.000873 0.783685 0.231614
H77   H     H_    0.395916 0.957523 0.822186 0.171647
H78   H     H_    0.639663 0.961580 0.848196 0.218791

loop_
_geom_bond_atom_site_label_1
_geom_bond_atom_site_label_2
_ccdc_geom_bond_type
O17   V4    S    
C18   C20   A    
C90   H74   S    
C13   C19   A    
O17   V3    S    
C82   H54   S    
C82   H53   S    
C4    C6    S    
O2    C1    A    
C7    C8    A    
C63   H11   S    
C1    O6    A    
C73   H28   S    
O13   V3    S    
O27   C77   S    
C22   O28   S    
C30   C32   S    
C9    H2    S    
C56   C57   A    
C83   H55   S    
C62   H16   S    
C90   H75   S    
C40   C45   S    
C47   C65   S    
C17   O33   S    
C16   C17   A    
C5    C67   S    
C3    C26   S    
C76   H37   S    
O5    C3    A    
C23   C24   S    
C84   H60   S    
O15   C67   A    
C86   H64   S    
C36   C44   S    
C39   C41   S    
V2    O10   S    
C38   C66   S    
C29   H6    S    
C5    C8    A    
C51   H14   S    
C43   O29   S    
C41   C43   S    
C52   C53   A    
C78   H44   S    
C42   C44   S    
C85   H61   S    
C87   C88   S    
C80   H49   S    
C69   H17   S    
O8    V2    S    
C36   O26   S    
C83   H56   S    
O25   C74   S    
C88   H69   S    
H7    C44   S    
C49   C53   A    
C74   C75   S    
V4    O20   S    
C37   C45   T    
V3    O20   S    
C49   C50   A    
O1    V2    S    
C64   O30   S    
C11   C15   A    
C17   C18   A    
O7    V1    S    
O11   C66   A    
C58   H15   S    
O14   V3    S    
C83   H57   S    
C24   C28   S    
C57   H10   S    
C78   H42   S    
C41   H8    S    
O9    C4    A    
C1    C37   S    
C52   C54   A    
C81   H50   S    
O34   C87   S    
C76   H36   S    
C35   C42   S    
C75   H35   S    
H5    C32   S    
C60   C62   A    
C27   C29   S    
O22   C70   S    
C77   H40   S    
C36   C40   S    
C81   H52   S    
C31   O24   S    
C90   C91   S    
C29   C31   S    
O36   C90   S    
C48   C63   A    
O26   C76   S    
C75   H34   S    
O14   C66   A    
C76   H38   S    
C55   C61   A    
O4    C2    A    
C91   H76   S    
C59   C60   A    
C86   H65   S    
C30   C34   S    
C40   C43   S    
C84   H59   S    
C13   C14   A    
O15   V3    S    
C60   C61   A    
C41   C42   S    
C85   C86   S    
O33   C85   S    
C7    C11   A    
C54   C55   A    
C87   H66   S    
C23   C27   S    
C43   C44   S    
O13   C68   A    
C49   O31   S    
C72   C73   S    
C77   H41   S    
O19   V4    S    
C62   C63   A    
C50   H13   S    
C18   C19   A    
C47   C51   A    
C70   H22   S    
C89   H73   S    
C35   O27   S    
C14   C15   A    
C19   C22   A    
C12   C13   A    
O23   C71   S    
O12   C65   A    
C6    C22   A    
C69   H19   S    
O12   V3    S    
C23   C30   S    
C89   H71   S    
O3    C4    A    
C7    O34   S    
O31   C82   S    
C24   C32   S    
C25   C33   T    
C84   H58   S    
O6    V2    S    
O9    V2    S    
C53   C57   A    
C74   H31   S    
C82   C83   S    
C10   C12   A    
C27   O25   S    
O2    V1    S    
C73   H30   S    
O18   C67   A    
C80   C81   S    
C48   C64   A    
C71   H23   S    
C71   H24   S    
C10   C11   A    
C72   H27   S    
C77   H39   S    
C28   C31   S    
C70   H21   S    
C29   C30   S    
C79   H45   S    
O16   V4    S    
C87   H67   S    
C85   H62   S    
O1    C2    A    
C79   H47   S    
C27   C28   S    
C12   C16   A    
C38   C46   T    
C51   C52   A    
C73   H29   S    
O5    V1    S    
C89   H72   S    
C35   C39   S    
C71   H25   S    
C14   H3    S    
C35   C36   S    
C56   O32   S    
C61   C64   A    
O19   C68   A    
C16   O36   S    
O30   C80   S    
C81   H51   S    
C2    C48   S    
C39   C40   S    
O4    V1    S    
C59   H12   S    
O3    V1    S    
V1    O10   S    
O21   C69   S    
C20   C21   A    
C88   H70   S    
C23   H4    S    
C55   C56   A    
C91   H78   S    
C26   C34   T    
C86   H63   S    
C72   H26   S    
C80   H48   S    
C28   C33   S    
C47   C50   A    
C24   O23   S    
C65   O16   A    
C79   H46   S    
C21   H1    S    
C91   H77   S    
C78   H43   S    
O7    V2    S    
O35   C89   S    
C6    C21   A    
C69   H18   S    
C8    O35   S    
O32   C84   S    
C58   C59   A    
C25   C68   S    
C42   C46   S    
C39   H9    S    
C15   O21   S    
C88   H68   S    
C31   C32   S    
O29   C79   S    
C74   H32   S    
O28   C78   S    
C75   H33   S    
O18   V4    S    
C20   O22   S    
C9    C10   A    
C54   C58   A    
O11   V4    S    
C70   H20   S    
O8    C3    A    
O24   C72   S    
C5    C9    A    
