data_mof_unit_38791.cif
_audit_creation_date              2012-12-11T14:46:03-0500
_audit_creation_method            fapswitch 2.2
_symmetry_space_group_name_H-M    P1
_symmetry_Int_Tables_number       1
_space_group_crystal_system       triclinic
_cell_length_a                    11.354487
_cell_length_b                    11.305359
_cell_length_c                    18.743936
_cell_angle_alpha                 90.124086
_cell_angle_beta                  89.625603
_cell_angle_gamma                 120.366992
_cell_volume                      2075.94430304

loop_
_atom_site_label
_atom_site_type_symbol
_atom_type_description
_atom_site_fract_x
_atom_site_fract_y
_atom_site_fract_z
_atom_type_partial_charge
C1    C     C_R   0.869109 0.635432 0.604519 0.531437
C2    C     C_R   0.944731 0.157264 0.709999 -0.125291
C3    C     C_R   0.956434 0.172942 0.785580 -0.081196
C4    C     C_R   0.275624 0.634979 0.601358 0.546143
C5    C     C_R   0.733628 0.161381 0.717675 -0.000516
C6    C     C_R   0.762103 0.202166 0.789249 0.015978
C7    C     C_R   0.602416 0.120883 0.691403 0.246866
C8    C     C_R   0.512946 0.140962 0.734220 -0.081335
C9    C     C_R   0.554778 0.207523 0.799350 -0.118529
C10   C     C_R   0.682879 0.245676 0.825708 0.246247
C11   C     C_R   0.838123 0.164606 0.675252 0.002918
C12   C     C_R   0.346877 0.573429 0.780960 0.284349
C13   C     C_R   0.744777 0.535450 0.716922 -0.172742
C14   C     C_R   0.740116 0.547991 0.790315 -0.161661
C15   C     C_R   0.809642 0.675153 0.822327 -0.006817
C16   C     C_R   0.861768 0.229819 0.603461 0.581469
C17   C     C_R   0.886833 0.791366 0.781146 -0.118867
C18   C     C_R   0.909409 0.778120 0.711070 0.224027
C19   C     C_R   0.832713 0.651437 0.676570 0.024323
C20   C     C_R   0.243336 0.532917 0.271871 0.198383
C21   C     C_R   0.256705 0.548157 0.198569 -0.183654
C22   C     C_R   0.312528 0.677478 0.167816 -0.086414
C23   C     C_R   0.367090 0.583876 0.707662 0.227779
C24   C     C_R   0.322967 0.786084 0.209520 0.263874
C25   C     C_R   0.318253 0.773873 0.284216 0.277095
C26   C     C_R   0.283189 0.647639 0.315884 -0.020528
C27   C     C_R   0.710116 0.128689 0.293417 0.266714
C28   C     C_R   0.864914 0.642684 0.400006 0.557407
C29   C     C_R   0.705145 0.122782 0.219637 0.225972
C30   C     C_R   0.820672 0.141833 0.179206 -0.041107
C31   C     C_R   0.940382 0.171973 0.215161 0.250036
C32   C     C_R   0.936671 0.162392 0.289348 -0.048035
C33   C     C_R   0.830712 0.158265 0.328302 -0.053385
C34   C     C_R   0.347112 0.678723 0.670177 -0.057241
C35   C     C_R   0.894431 0.808319 0.304159 0.174675
C36   C     C_R   0.883999 0.820795 0.230147 0.181470
C37   C     C_R   0.786132 0.708016 0.190276 -0.035271
C38   C     C_R   0.692090 0.586487 0.226783 0.214597
C39   C     C_R   0.696308 0.581112 0.301908 0.218492
C40   C     C_R   0.256865 0.625410 0.392973 0.588201
C41   C     C_R   0.813213 0.680337 0.336809 -0.009711
C42   C     C_R   0.808813 0.105717 0.896299 0.622034
C43   C     C_R   0.398846 0.701249 0.895502 0.552511
C44   C     C_R   0.795371 0.695882 0.896721 0.564799
C45   C     C_R   0.855016 0.178392 0.825744 0.075295
C46   C     C_R   0.800954 0.099260 0.104083 0.560051
C47   C     C_R   0.390638 0.702550 0.101187 0.544783
C48   C     C_R   0.778307 0.727205 0.112265 0.612637
C49   C     C_R   0.859468 0.225763 0.397960 0.567196
C50   C     C_R   0.353255 0.787939 0.707651 -0.127808
C51   C     C_R   0.353627 0.790729 0.782187 0.159315
C52   C     C_R   0.352489 0.683008 0.820288 -0.005570
C53   C     C_3   0.135363 0.876337 0.691294 -0.048509
C54   C     C_3   0.267340 0.352022 0.306860 -0.107485
C55   C     C_3   0.242181 0.910375 0.329972 -0.021016
C56   C     C_R   0.072074 0.190219 0.820099 0.249671
C57   C     C_3   0.564951 0.204793 0.329276 0.029728
C58   C     C_3   0.574979 0.192711 0.158801 -0.019527
C59   C     C_3   0.095743 0.961537 0.180114 -0.049067
C60   C     C_3   0.488236 0.439862 0.172546 -0.079862
C61   C     C_3   0.545803 0.525162 0.395919 -0.128392
C62   C     C_3   0.442317 0.450220 0.817983 -0.024843
C63   C     C_3   0.208096 0.051341 0.873093 -0.144415
C64   C     C_3   0.299370 0.224456 0.602233 -0.065158
C65   C     C_3   0.892729 0.979015 0.585919 -0.033035
C66   C     C_R   0.163193 0.163671 0.782727 0.296777
C67   C     C_R   0.163341 0.165495 0.707357 0.388521
C68   C     C_R   0.042534 0.138818 0.671621 0.301150
Cr1   Cr    Cr6+3 0.791660 0.390250 0.499930 1.015093
Cr2   Cr    Cr6+3 0.098520 0.708290 0.500540 1.019009
Cr3   Cr    Cr6+3 0.109770 0.401430 0.499480 1.026588
Cr4   Cr    Cr6+3 0.874790 0.925890 0.000070 1.017453
Cr5   Cr    Cr6+3 0.574120 0.948670 0.999300 1.035128
Cr6   Cr    Cr6+3 0.551420 0.625320 0.000920 0.983338
H1    H     H_    0.349698 0.866668 0.678696 0.145710
H2    H     H_    0.113723 0.768723 0.695955 0.124843
H3    H     H_    0.187265 0.932732 0.739583 0.179312
H4    H     H_    0.204720 0.924894 0.645093 0.168866
H5    H     H_    0.374475 0.428934 0.296671 0.151393
H6    H     H_    0.237086 0.265074 0.270131 0.139926
H7    H     H_    0.257381 0.310140 0.361385 0.134749
H8    H     H_    0.297224 0.879880 0.130182 0.308933
H9    H     H_    0.294349 0.857910 0.860486 0.324748
H10   H     H_    0.235231 0.943446 0.384829 0.161804
H11   H     H_    0.141848 0.819658 0.316027 0.131737
H12   H     H_    0.409745 0.099126 0.718439 0.203559
H13   H     H_    0.263490 0.995551 0.294072 0.103577
H14   H     H_    0.469338 0.172032 0.300567 0.124919
H15   H     H_    0.648286 0.300662 0.304645 0.157913
H16   H     H_    0.546277 0.228496 0.384228 0.160718
H17   H     H_    0.533717 0.165965 0.103914 0.143327
H18   H     H_    0.675528 0.289837 0.155988 0.139947
H19   H     H_    0.499181 0.206924 0.187993 0.137331
H20   H     H_    0.058844 0.243955 0.131997 0.323701
H21   H     H_    0.048464 0.993742 0.315708 0.323399
H22   H     H_    0.104270 0.869648 0.191613 0.111421
H23   H     H_    0.488833 0.227591 0.831283 0.152544
H24   H     H_    0.175305 0.052453 0.208483 0.115798
H25   H     H_    0.118580 0.986662 0.122700 0.162500
H26   H     H_    0.471379 0.421390 0.114452 0.167690
H27   H     H_    0.469280 0.523110 0.188764 0.137857
H28   H     H_    0.412415 0.342393 0.197239 0.086787
H29   H     H_    0.514051 0.597072 0.375366 0.125246
H30   H     H_    0.457213 0.438011 0.422589 0.117513
H31   H     H_    0.621789 0.577477 0.438544 0.130326
H32   H     H_    0.532994 0.554581 0.819418 0.127595
H33   H     H_    0.449395 0.391633 0.772366 0.204480
H34   H     H_    0.686975 0.434995 0.692888 0.154371
H35   H     H_    0.441514 0.398005 0.868142 0.133310
H36   H     H_    0.455483 0.543230 0.631134 0.315212
H37   H     H_    0.145133 0.066330 0.913245 0.144124
H38   H     H_    0.294022 0.055642 0.903031 0.134148
H39   H     H_    0.146177 0.946913 0.851219 0.141722
H40   H     H_    0.261169 0.295649 0.591650 0.203731
H41   H     H_    0.253950 0.137075 0.564360 0.141244
H42   H     H_    0.411010 0.281828 0.591906 0.110534
H43   H     H_    0.195768 0.277397 0.901211 0.361450
H44   H     H_    0.827415 0.929676 0.633656 0.114645
H45   H     H_    0.674359 0.462631 0.822377 0.127573
H46   H     H_    0.905041 0.900489 0.557083 0.180344
H47   H     H_    0.838384 0.010004 0.548276 0.127461
H48   H     H_    0.654083 0.321652 0.913478 0.307644
H49   H     H_    0.937979 0.893237 0.803736 0.131871
H50   H     H_    0.234531 0.460288 0.166220 0.178173
H51   H     H_    0.021208 0.170338 0.318083 0.188195
H52   H     H_    0.477759 0.053713 0.611273 0.307890
O1    O     O_R   0.766500 0.250040 0.579790 -0.473684
O2    O     O_R   0.413330 0.603360 0.920440 -0.490081
O3    O     O_R   0.676110 0.626250 0.926750 -0.530965
O4    O     O_R   0.798570 0.516780 0.574780 -0.532412
O5    O     O_R   0.895350 0.809870 0.080950 -0.497969
O6    O     O_R   0.872490 0.049760 0.073800 -0.475345
O7    O     O_R   0.691680 0.088070 0.079070 -0.491381
O8    O     O_R   0.451720 0.825250 0.074050 -0.471072
O9    O     O_R   0.413580 0.606370 0.080960 -0.563119
O10   O     O_R   0.676340 0.629040 0.075550 -0.488076
O11   O     O_3   0.666780 0.833290 0.000090 -0.302270
O12   O     O_R   0.218690 0.701900 0.425960 -0.485706
O13   O     O_R   0.984000 0.732950 0.581090 -0.490615
O14   O     O_R   0.218600 0.700890 0.574760 -0.521499
O15   O     O_R   0.249390 0.515350 0.579940 -0.512546
O16   O     O_R   0.982790 0.280900 0.573700 -0.471512
O17   O     O_R   0.766600 0.251130 0.419260 -0.493671
O18   O     O_R   0.798660 0.517790 0.425980 -0.494106
O19   O     O_R   0.984100 0.734040 0.420570 -0.497023
O20   O     O_3   0.559286 0.050861 0.627560 -0.691910
O21   O     O_3   0.019039 0.886583 0.679145 -0.567107
O22   O     O_3   0.177436 0.403040 0.300199 -0.536964
O23   O     O_R   0.249490 0.516440 0.419420 -0.511970
O24   O     O_3   0.333363 0.901756 0.179400 -0.670053
O25   O     O_3   0.347437 0.895364 0.815827 -0.720185
O26   O     O_3   0.351612 0.885637 0.326997 -0.487257
O27   O     O_3   0.593329 0.096538 0.332310 -0.476837
O28   O     O_3   0.579741 0.080736 0.189131 -0.462543
O29   O     O_3   0.061099 0.208748 0.179980 -0.690135
O30   O     O_3   0.981799 0.918304 0.346145 -0.711445
O31   O     O_3   0.966452 0.944800 0.196624 -0.523141
O32   O     O_3   0.619604 0.465761 0.189312 -0.596602
O33   O     O_3   0.591993 0.473486 0.339680 -0.606390
O34   O     O_R   0.982880 0.281910 0.424890 -0.485048
O35   O     O_3   0.321428 0.454759 0.814512 -0.529899
O36   O     O_3   0.399414 0.495635 0.673872 -0.703887
O37   O     O_3   0.263121 0.151831 0.818189 -0.614485
O38   O     O_3   0.276967 0.175020 0.673050 -0.589704
O39   O     O_3   0.101013 0.248611 0.887635 -0.660809
O40   O     O_3   0.024438 0.091898 0.600942 -0.548738
O41   O     O_3   0.729699 0.317144 0.889273 -0.679366
O42   O     O_3   0.999980 0.499990 0.499980 -0.288588
O43   O     O_R   0.895110 0.806860 0.920430 -0.547445
O44   O     O_R   0.872260 0.046970 0.925000 -0.486080
O45   O     O_R   0.691430 0.085060 0.918550 -0.475466
O46   O     O_R   0.451490 0.822460 0.925250 -0.501252

loop_
_geom_bond_atom_site_label_1
_geom_bond_atom_site_label_2
_ccdc_geom_bond_type
C27   O27   S    
Cr2   O14   S    
C64   H42   S    
C6    C45   A    
C27   C29   A    
C59   H25   S    
C16   O16   A    
C35   C36   A    
C64   O38   S    
H36   O36   S    
C55   O26   S    
C39   C41   A    
Cr3   O23   S    
C27   C33   A    
Cr1   O18   S    
C63   O37   S    
Cr3   O34   S    
C12   C23   A    
C28   O19   A    
C29   C30   A    
C57   H15   S    
C25   O26   S    
C36   C37   A    
C61   H29   S    
C58   H19   S    
C60   O32   S    
C15   C44   S    
C18   C19   A    
C2    C68   A    
C61   O33   S    
C46   O6    A    
C30   C31   A    
C43   C52   S    
C62   O35   S    
C33   C49   S    
C28   C41   S    
C53   O21   S    
H21   O30   S    
C3    C56   A    
C63   H38   S    
C44   O43   A    
Cr5   O8    S    
C42   O44   A    
C12   O35   S    
C67   O38   S    
C17   H49   S    
Cr6   O2    S    
H43   O39   S    
C8    C9    A    
C40   O12   A    
C56   O39   S    
C66   O37   S    
C65   H44   S    
C20   O22   S    
C49   O34   A    
C28   O18   A    
C65   H47   S    
Cr5   O45   S    
C58   O28   S    
C9    C10   A    
C54   H6    S    
C1    O13   A    
Cr3   O15   S    
C23   O36   S    
C47   O9    A    
C66   C67   A    
C51   O25   S    
Cr2   O13   S    
C64   H41   S    
C13   C14   A    
C55   H13   S    
C13   H34   S    
C60   H28   S    
C2    C11   A    
C12   C52   A    
C30   C46   S    
Cr4   O6    S    
H9    O25   S    
H52   O20   S    
C38   C39   A    
Cr6   O11   S    
C4    C34   S    
C34   C50   A    
C1    C19   S    
C57   H16   S    
C13   C19   A    
C67   C68   A    
C7    C8    A    
C61   H30   S    
C64   H40   S    
C35   O30   S    
C38   O32   S    
C18   O21   S    
C4    O15   A    
C5    C7    A    
Cr1   O4    S    
C62   H33   S    
C50   C51   A    
C25   C26   A    
C57   O27   S    
C65   O40   S    
C3    C45   A    
C51   C52   A    
Cr6   O10   S    
C37   C48   S    
C42   C45   S    
Cr4   O44   S    
C32   H51   S    
C55   H11   S    
C53   H3    S    
C37   C38   A    
Cr2   O42   S    
C4    O14   A    
C11   C16   S    
C31   C32   A    
C23   C34   A    
Cr6   O9    S    
C17   C18   A    
H20   O29   S    
C48   O5    A    
Cr2   O19   S    
C24   C25   A    
Cr5   O46   S    
C5    C11   A    
H8    O24   S    
C24   O24   S    
C36   O31   S    
Cr3   O16   S    
Cr4   O11   S    
Cr5   O7    S    
C1    O4    A    
Cr3   O42   S    
C47   O8    A    
C22   C24   A    
C53   H2    S    
C59   H22   S    
C60   H27   S    
C10   O41   S    
C61   H31   S    
Cr4   O5    S    
C54   O22   S    
C54   H5    S    
C58   H17   S    
C15   C17   A    
C9    H23   S    
H48   O41   S    
C39   O33   S    
C48   O10   A    
C60   H26   S    
C43   O2    A    
C6    C10   A    
C31   O29   S    
C43   O46   A    
Cr2   O12   S    
C62   H32   S    
Cr1   O17   S    
C57   H14   S    
Cr4   O43   S    
C7    O20   S    
C21   H50   S    
C2    C3    A    
C44   O3    A    
Cr1   O42   S    
C20   C26   A    
C50   H1    S    
C32   C33   A    
C46   O7    A    
C59   O31   S    
C26   C40   S    
C5    C6    A    
C62   H35   S    
Cr5   O11   S    
C56   C66   A    
C49   O17   A    
C65   H46   S    
C40   O23   A    
C22   C47   S    
C8    H12   S    
C63   H37   S    
C35   C41   A    
C16   O1    A    
C42   O45   A    
C53   H4    S    
C63   H39   S    
C20   C21   A    
Cr1   O1    S    
C14   H45   S    
Cr6   O3    S    
C59   H24   S    
C14   C15   A    
C55   H10   S    
C21   C22   A    
C58   H18   S    
C54   H7    S    
C29   O28   S    
C68   O40   S    
