data_mof_unit_26369.cif
_audit_creation_date              2012-12-10T16:39:35-0500
_audit_creation_method            fapswitch 2.2
_symmetry_space_group_name_H-M    P1
_symmetry_Int_Tables_number       1
_space_group_crystal_system       triclinic
_cell_length_a                    16.752329
_cell_length_b                    16.896707
_cell_length_c                    16.850142
_cell_angle_alpha                 65.865965
_cell_angle_beta                  65.968703
_cell_angle_gamma                 65.610255
_cell_volume                      3797.67434082

loop_
_atom_site_label
_atom_site_type_symbol
_atom_type_description
_atom_site_fract_x
_atom_site_fract_y
_atom_site_fract_z
_atom_type_partial_charge
C1    C     C_R   0.328103 0.945240 0.458079 -0.058574
C2    C     C_R   0.327592 0.460507 0.943590 -0.053070
C3    C     C_R   0.546423 0.413076 0.987993 -0.060121
C4    C     C_R   0.038643 0.450218 0.573122 -0.061326
C5    C     C_R   0.961355 0.549782 0.426879 -0.061328
C6    C     C_R   0.995744 0.686703 0.568029 -0.055266
C7    C     C_R   0.004255 0.313297 0.431972 -0.055265
C8    C     C_R   0.451229 0.990672 0.454575 0.115908
C9    C     C_R   0.548770 0.009330 0.545424 0.115908
C10   C     C_R   0.990996 0.454430 0.451288 0.112808
C11   C     C_R   0.009002 0.545571 0.548714 0.112807
C12   C     C_R   0.459366 0.458862 0.974247 0.118690
C13   C     C_R   0.540637 0.541142 0.025737 0.118690
C14   C     C_R   0.979913 0.176223 0.430553 0.923544
C15   C     C_R   0.671897 0.054762 0.541920 -0.058574
C16   C     C_R   0.020087 0.823777 0.569447 0.923545
C17   C     C_R   0.179547 0.438015 0.962039 0.910779
C18   C     C_R   0.820452 0.561985 0.037959 0.910783
C19   C     C_R   0.430453 0.979758 0.176355 0.925856
C20   C     C_R   0.569547 0.020243 0.823645 0.925850
C21   C     C_R   0.562413 0.820395 0.037177 0.924830
C22   C     C_R   0.437587 0.179605 0.962821 0.924826
C23   C     C_R   0.038894 0.561377 0.820673 0.903426
C24   C     C_R   0.961106 0.438623 0.179327 0.903431
C25   C     C_R   0.820433 0.040014 0.560929 0.912137
C26   C     C_R   0.946902 0.457810 0.327237 -0.052045
C27   C     C_R   0.179567 0.959986 0.439070 0.912138
C28   C     C_R   0.404020 0.979340 0.408928 0.073594
C29   C     C_R   0.595979 0.020662 0.591071 0.073594
C30   C     C_R   0.980084 0.408694 0.403982 0.073605
C31   C     C_R   0.019915 0.591306 0.596018 0.073605
C32   C     C_R   0.416306 0.415505 0.953804 0.066213
C33   C     C_R   0.583697 0.584498 0.046183 0.066210
C34   C     C_R   0.278671 0.941385 0.408633 -0.244253
C35   C     C_R   0.721329 0.058616 0.591366 -0.244253
C36   C     C_R   0.943388 0.408231 0.277888 -0.244863
C37   C     C_R   0.053097 0.542190 0.672763 -0.052044
C38   C     C_R   0.056611 0.591769 0.722112 -0.244862
C39   C     C_R   0.410039 0.278886 0.940359 -0.245875
C40   C     C_R   0.589961 0.721114 0.059635 -0.245873
C41   C     C_R   0.606687 0.023898 0.729208 -0.252702
C42   C     C_R   0.393313 0.976103 0.270791 -0.252703
C43   C     C_R   0.720530 0.589766 0.061561 -0.251350
C44   C     C_R   0.279470 0.410234 0.938434 -0.251353
C45   C     C_R   0.023186 0.729393 0.606539 -0.252551
C46   C     C_R   0.976813 0.270607 0.393462 -0.252551
C47   C     C_R   0.504242 0.946323 0.734743 -0.083291
C48   C     C_R   0.460780 0.326236 0.946637 -0.054685
C49   C     C_R   0.495758 0.053678 0.265256 -0.083291
C50   C     C_R   0.946832 0.735077 0.502218 -0.091002
C51   C     C_R   0.053168 0.264923 0.497782 -0.091002
C52   C     C_R   0.710008 0.446380 0.059496 -0.061269
C53   C     C_R   0.289994 0.553622 0.940492 -0.061270
C54   C     C_R   0.305110 0.915273 0.553734 -0.052296
C55   C     C_R   0.694890 0.084728 0.446265 -0.052297
C56   C     C_R   0.553906 0.288124 0.946662 -0.062036
C57   C     C_R   0.446096 0.711879 0.053325 -0.062033
C58   C     C_R   0.917097 0.553585 0.303717 -0.071330
C59   C     C_R   0.539222 0.673766 0.053352 -0.054684
C60   C     C_R   0.082903 0.446415 0.696283 -0.071330
C61   C     C_R   0.320149 0.941224 0.319950 0.556687
C62   C     C_R   0.679850 0.058776 0.680049 0.556688
C63   C     C_R   0.942968 0.319791 0.319438 0.555474
C64   C     C_R   0.057031 0.680209 0.680562 0.555474
C65   C     C_R   0.324600 0.324642 0.927080 0.549120
C66   C     C_R   0.675400 0.675357 0.072917 0.549113
C67   C     C_R   0.644612 0.078875 0.400271 -0.139326
C68   C     C_R   0.355388 0.921127 0.599728 -0.139325
C69   C     C_R   0.077522 0.400355 0.646049 -0.152391
C70   C     C_R   0.568826 0.995982 0.686419 -0.055638
C71   C     C_R   0.922478 0.599645 0.353950 -0.152391
C72   C     C_R   0.405693 0.672588 0.026659 -0.171803
C73   C     C_R   0.594310 0.327415 0.973327 -0.171801
C74   C     C_R   0.544142 0.063953 0.309680 -0.135750
C75   C     C_R   0.455858 0.936048 0.690319 -0.135747
C76   C     C_R   0.328237 0.594078 0.968111 -0.181144
C77   C     C_R   0.671766 0.405925 0.031875 -0.181143
C78   C     C_R   0.063306 0.309455 0.545931 -0.144683
C79   C     C_R   0.936694 0.690545 0.454069 -0.144683
C80   C     C_R   0.664730 0.112283 0.305212 0.587638
C81   C     C_R   0.431174 0.004019 0.313580 -0.055637
C82   C     C_R   0.335270 0.887719 0.694786 0.587638
C83   C     C_R   0.110871 0.305176 0.666920 0.570152
C84   C     C_R   0.889133 0.694824 0.333077 0.570156
C85   C     C_R   0.318625 0.718385 0.012774 0.629037
C86   C     C_R   0.681377 0.281617 0.987213 0.629030
C87   C     C_R   0.614390 0.105618 0.260444 0.552170
C88   C     C_R   0.385610 0.894383 0.739555 0.552168
C89   C     C_R   0.281485 0.680702 0.981029 0.607956
C90   C     C_R   0.718517 0.319300 0.018958 0.607950
C91   C     C_R   0.104714 0.260223 0.616764 0.547885
C92   C     C_R   0.672409 0.539495 0.056399 -0.053068
C93   C     C_R   0.895290 0.739777 0.383233 0.547888
C94   C     C_R   0.523030 0.030715 0.404791 -0.047385
C95   C     C_R   0.476970 0.969287 0.595208 -0.047385
C96   C     C_R   0.030335 0.404700 0.523890 -0.052977
C97   C     C_R   0.969663 0.595300 0.476111 -0.052979
C98   C     C_R   0.413523 0.546367 0.985302 -0.058394
C99   C     C_R   0.586481 0.453637 0.014682 -0.058393
C100  C     C_R   0.572386 0.039345 0.450157 -0.054507
C101  C     C_R   0.427613 0.960657 0.549841 -0.054504
C102  C     C_R   0.453581 0.586928 0.011991 -0.060122
F1    F     F_    0.284298 0.913172 0.280182 -0.616421
F2    F     F_    0.137578 0.168196 0.638936 -0.608777
F3    F     F_    0.801689 0.272310 0.034001 -0.562155
F4    F     F_    0.198313 0.727691 0.965987 -0.562152
F5    F     F_    0.266900 0.848468 0.744588 -0.574810
F6    F     F_    0.733100 0.151533 0.255410 -0.574811
F7    F     F_    0.729303 0.198832 0.973171 -0.563388
F8    F     F_    0.270699 0.801169 0.026817 -0.563386
F9    F     F_    0.850358 0.744619 0.264088 -0.584691
F10   F     F_    0.149654 0.255380 0.735905 -0.584688
F11   F     F_    0.715702 0.086829 0.719818 -0.616421
F12   F     F_    0.915033 0.280299 0.283307 -0.610445
F13   F     F_    0.084967 0.719701 0.716693 -0.610445
F14   F     F_    0.281637 0.282319 0.910647 -0.608408
F15   F     F_    0.718360 0.717679 0.089355 -0.608411
F16   F     F_    0.364015 0.862084 0.831419 -0.609236
F17   F     F_    0.635987 0.137915 0.168579 -0.609232
F18   F     F_    0.862433 0.831804 0.361057 -0.608778
H1    H     H_    0.491589 0.913801 0.806883 0.210137
H2    H     H_    0.402345 0.771055 0.075875 0.230944
H3    H     H_    0.885487 0.592486 0.249191 0.221105
H4    H     H_    0.114514 0.407514 0.750808 0.221104
H5    H     H_    0.508412 0.086199 0.193115 0.210138
H6    H     H_    0.914525 0.807387 0.488500 0.214605
H7    H     H_    0.085476 0.192613 0.511499 0.214604
H8    H     H_    0.768472 0.403254 0.084469 0.233767
H9    H     H_    0.231528 0.596747 0.915521 0.233765
H10   H     H_    0.250980 0.883397 0.592429 0.219112
H11   H     H_    0.749020 0.116604 0.407570 0.219113
H12   H     H_    0.597654 0.228945 0.924116 0.230946
O1    O     O_R   0.982940 0.138950 0.510160 -0.644193
O2    O     O_R   0.982940 0.510160 0.138950 -0.641685
O3    O     O_R   0.861050 0.017060 0.489840 -0.646515
O4    O     O_R   0.138950 0.982940 0.510160 -0.646515
O5    O     O_R   0.867700 0.025880 0.612340 -0.548499
O6    O     O_R   0.132300 0.974120 0.387660 -0.548498
O7    O     O_R   0.025880 0.612340 0.867700 -0.544152
O8    O     O_R   0.974120 0.387660 0.132300 -0.544150
O9    O     O_R   0.612340 0.867700 0.025880 -0.540643
O10   O     O_R   0.387660 0.132300 0.974120 -0.540643
O11   O     O_R   0.387660 0.974120 0.132300 -0.551934
O12   O     O_R   0.017060 0.861050 0.489840 -0.644192
O13   O     O_R   0.612340 0.025880 0.867700 -0.551935
O14   O     O_R   0.132300 0.387660 0.974120 -0.542331
O15   O     O_R   0.867700 0.612340 0.025880 -0.542332
O16   O     O_R   0.974120 0.132300 0.387660 -0.546518
O17   O     O_R   0.025880 0.867700 0.612340 -0.546518
O18   O     O_R   0.138950 0.510160 0.982940 -0.651648
O19   O     O_R   0.861050 0.489840 0.017060 -0.651651
O20   O     O_R   0.510160 0.982940 0.138950 -0.635178
O21   O     O_R   0.489840 0.017060 0.861050 -0.635178
O22   O     O_R   0.489840 0.861050 0.017060 -0.662428
O23   O     O_R   0.510160 0.138950 0.982940 -0.662427
O24   O     O_R   0.017060 0.489840 0.861050 -0.641686
Zn1   Zn    Zn3+2 0.004880 0.004880 0.583590 1.143403
Zn2   Zn    Zn3+2 0.995120 0.995120 0.416410 1.143404
Zn3   Zn    Zn3+2 0.004880 0.583590 0.004880 1.146376
Zn4   Zn    Zn3+2 0.995120 0.416410 0.995120 1.146374
Zn5   Zn    Zn3+2 0.583590 0.004880 0.004880 1.159001
Zn6   Zn    Zn3+2 0.416410 0.995120 0.995120 1.159001

loop_
_geom_bond_atom_site_label_1
_geom_bond_atom_site_label_2
_ccdc_geom_bond_type
O9    Zn5   S    
C6    C45   A    
C39   C65   A    
C74   C94   A    
C17   O18   A    
C91   F2    S    
O15   Zn3   S    
C50   C79   A    
C72   C85   A    
C52   H8    S    
C75   C95   A    
C14   C46   S    
O23   Zn5   S    
C13   C33   A    
C58   H3    S    
C24   C36   S    
C72   C102  A    
C27   O4    A    
O21   Zn6   S    
C23   O7    A    
C61   F1    S    
C79   C93   A    
C80   C87   A    
C58   C71   A    
C47   H1    S    
O14   Zn4   S    
C76   C98   A    
C14   O16   A    
C2    C32   A    
C49   C81   A    
C60   H4    S    
O6    Zn2   S    
C3    C12   A    
C57   H2    S    
C4    C96   A    
C63   F12   S    
C78   C96   A    
C66   F15   S    
C89   F4    S    
C1    C28   A    
C21   O22   A    
C15   C29   A    
C16   O17   A    
C50   H6    S    
C93   F18   S    
C94   C100  A    
C74   C87   A    
C35   C62   A    
C36   C63   A    
C8    C101  A    
C9    C95   A    
O11   Zn6   S    
C12   C98   A    
O20   Zn5   S    
C19   C42   S    
C9    C29   A    
C76   C89   A    
O2    Zn3   S    
C11   C31   A    
C33   C59   A    
C40   C59   A    
C40   C66   A    
C23   O24   A    
C12   C32   A    
C32   C48   A    
C44   C65   A    
C42   C81   A    
C41   C62   A    
C3    C73   A    
C15   C35   A    
C4    C69   A    
C79   C97   A    
C1    C34   A    
C20   C41   S    
C38   C64   A    
C22   O23   A    
C27   C34   S    
C54   H10   S    
C77   C90   A    
C84   F9    S    
O18   Zn3   S    
C27   O6    A    
C7    C46   A    
O24   Zn4   S    
C86   F7    S    
C8    C94   A    
C68   C101  A    
C62   F11   S    
C18   O15   A    
C86   C90   A    
C33   C92   A    
C2    C44   A    
C85   C89   A    
C52   C77   A    
C98   C102  A    
C34   C61   A    
C24   O8    A    
C31   C37   A    
C15   C55   A    
C13   C99   A    
C77   C99   A    
C25   O5    A    
C1    C54   A    
C47   C70   A    
C87   F17   S    
C37   C38   A    
C69   C83   A    
C7    C51   A    
C10   C30   A    
C10   C96   A    
C22   O10   A    
C19   O20   A    
C49   C74   A    
O16   Zn2   S    
C82   F5    S    
C6    C50   A    
C4    C11   A    
C26   C58   A    
C42   C61   A    
C56   H12   S    
C67   C100  A    
C25   C35   S    
O4    Zn1   S    
C26   C36   A    
C5    C97   A    
C85   F8    S    
C9    C100  A    
C55   H11   S    
C8    C28   A    
C65   F14   S    
C52   C92   A    
C53   C76   A    
C53   H9    S    
O12   Zn2   S    
C18   O19   A    
C49   H5    S    
C71   C84   A    
C24   O2    A    
C48   C56   A    
C19   O11   A    
C56   C73   A    
C16   O12   A    
C28   C81   A    
C83   F10   S    
O22   Zn6   S    
C67   C80   A    
C90   F3    S    
C20   O21   A    
C47   C75   A    
C2    C53   A    
C64   F13   S    
C16   C45   S    
O10   Zn6   S    
C55   C67   A    
C26   C30   A    
C14   O1    A    
C78   C91   A    
C23   C38   S    
C83   C91   A    
C80   F6    S    
C45   C64   A    
C43   C92   A    
O5    Zn1   S    
C46   C63   A    
C11   C97   A    
C88   F16   S    
C68   C82   A    
O19   Zn4   S    
C17   O14   A    
C17   C44   S    
C21   O9    A    
C5    C10   A    
C5    C71   A    
C18   C43   S    
O8    Zn4   S    
C21   C40   S    
O13   Zn5   S    
C60   C69   A    
C43   C66   A    
C82   C88   A    
C22   C39   S    
C6    C31   A    
C29   C70   A    
O1    Zn1   S    
C84   C93   A    
C57   C72   A    
C25   O3    A    
C73   C86   A    
C51   C78   A    
C37   C60   A    
C57   C59   A    
O7    Zn3   S    
C3    C99   A    
C75   C88   A    
C54   C68   A    
C51   H7    S    
C7    C30   A    
O3    Zn2   S    
C20   O13   A    
C41   C70   A    
C13   C102  A    
O17   Zn1   S    
C95   C101  A    
C39   C48   A    
