data_mof_unit_59088.cif
_audit_creation_date              2013-03-05T15:46:06-0500
_audit_creation_method            fapswitch 2.2
_symmetry_space_group_name_H-M    P1
_symmetry_Int_Tables_number       1
_space_group_crystal_system       triclinic
_cell_length_a                    6.938539
_cell_length_b                    23.131581
_cell_length_c                    23.496021
_cell_angle_alpha                 112.299756
_cell_angle_beta                  89.594933
_cell_angle_gamma                 90.417099
_cell_volume                      3488.93117397

loop_
_atom_site_label
_atom_site_type_symbol
_atom_site_description
_atom_site_fract_x
_atom_site_fract_y
_atom_site_fract_z
_atom_type_partial_charge
O1    O     O_R   0.494720 0.434890 0.424760 -0.592688
O2    O     O_R   0.819720 0.445970 0.545570 -0.597726
O3    O     O_R   0.993930 0.565110 0.575240 -0.593659
C1    C     C_R   0.650265 0.432615 0.561317 0.973050
O4    O     O_R   0.824180 0.427610 0.423390 -0.594656
O5    O     O_R   0.998420 0.546620 0.452190 -0.598075
C2    C     C_R   0.656980 0.409563 0.398927 0.935170
O6    O     O_R   0.490230 0.453380 0.547810 -0.585762
O7    O     O_3   0.662090 0.539070 0.509590 -0.274659
V1    V     V_3+5 0.935410 0.492750 0.498220 1.155259
O8    O     O_R   0.328360 0.554030 0.454430 -0.599122
C3    C     C_R   0.160149 0.566030 0.437327 0.917577
O9    O     O_R   0.323900 0.572390 0.576610 -0.581767
C4    C     C_R   0.156449 0.590016 0.601466 0.981478
V2    V     V_3+5 0.435890 0.507250 0.501780 1.157926
O10   O     O_3   0.159350 0.460930 0.490410 -0.269779
C5    C     C_R   0.078600 0.855781 0.838789 -0.168443
C6    C     C_R   0.158662 0.643226 0.662731 -0.205071
C7    C     C_R   0.328077 0.702638 0.759478 0.252272
C8    C     C_R   0.307609 0.647976 0.705579 0.046455
C9    C     C_R   0.027606 0.692648 0.676023 -0.312563
C10   C     C_R   0.047030 0.747160 0.729669 0.188261
C11   C     C_R   0.198500 0.752693 0.771618 0.014466
C12   C     C_R   0.213018 0.807418 0.825870 -0.165794
C13   C     C_R   0.931050 0.849807 0.796178 -0.093929
C14   C     C_R   0.916512 0.796516 0.742051 -0.082075
H1    H     H_    0.322823 0.811758 0.859737 0.177312
H2    H     H_    0.824800 0.886344 0.805183 0.118221
H3    H     H_    0.800067 0.793331 0.710488 0.108717
H4    H     H_    0.914187 0.689559 0.643468 0.146390
C15   C     C_R   0.254122 0.894577 0.132867 -0.161298
H5    H     H_    0.378320 0.921549 0.129093 0.165029
C16   C     C_R   0.265138 0.861211 0.171860 0.166186
C17   C     C_R   0.106053 0.824512 0.176861 0.074805
C18   C     C_R   0.937060 0.824862 0.144123 -0.170132
H6    H     H_    0.813486 0.796983 0.146448 0.133656
C19   C     C_R   0.925182 0.860437 0.107442 -0.158502
H7    H     H_    0.792106 0.859756 0.083375 0.136506
C20   C     C_R   0.084065 0.895491 0.101072 -0.143520
N1    N     N_R   0.949127 0.767242 0.235435 -0.073572
N2    N     N_R   0.955793 0.732837 0.269902 -0.075702
C21   C     C_R   0.127337 0.714879 0.285423 0.094524
N3    N     N_R   0.291670 0.732504 0.264454 -0.072902
N4    N     N_R   0.284916 0.766813 0.229969 -0.054450
C22   C     C_R   0.113715 0.785401 0.214984 0.121780
C23   C     C_R   0.313724 0.660751 0.342501 -0.135162
H8    H     H_    0.447709 0.675509 0.328190 0.115910
C24   C     C_R   0.321798 0.625201 0.379252 -0.161095
H9    H     H_    0.461679 0.613552 0.391930 0.126571
C25   C     C_R   0.151874 0.604750 0.399033 -0.128010
C26   C     C_R   0.973646 0.621076 0.381122 -0.162398
H10   H     H_    0.839622 0.606227 0.395334 0.129319
C27   C     C_R   0.965603 0.656738 0.344478 -0.136985
H11   H     H_    0.825766 0.668260 0.331663 0.113896
C28   C     C_R   0.135526 0.676998 0.324531 0.125187
C29   C     C_R   0.475585 0.386712 0.629084 -0.127829
H12   H     H_    0.349747 0.414215 0.629517 0.139371
C30   C     C_R   0.472682 0.349453 0.664142 -0.065177
H13   H     H_    0.346718 0.350972 0.692153 0.147796
C31   C     C_R   0.630110 0.311340 0.663898 -0.067358
C32   C     C_R   0.790965 0.309965 0.625666 0.367072
C33   C     C_R   0.797276 0.351132 0.594158 -0.260491
H14   H     H_    0.921863 0.350681 0.565959 0.180979
C34   C     C_R   0.640813 0.390039 0.595674 -0.198083
N5    N     N_R   0.788579 0.263869 0.730180 -0.042444
N6    N     N_R   0.783004 0.232219 0.767279 -0.065483
C35   C     C_R   0.612918 0.211148 0.781389 0.094174
N7    N     N_R   0.448631 0.223612 0.756988 -0.065916
N8    N     N_R   0.454247 0.255144 0.719791 -0.044764
C36   C     C_R   0.624602 0.275442 0.705019 0.198284
C37   C     C_R   0.428952 0.157080 0.840010 -0.133919
H15   H     H_    0.294536 0.169693 0.824735 0.117985
C38   C     C_R   0.422015 0.122428 0.877625 -0.160508
H16   H     H_    0.282326 0.109348 0.889899 0.126812
C39   C     C_R   0.592403 0.104391 0.898520 -0.123818
C40   C     C_R   0.770131 0.122521 0.881019 -0.167591
H17   H     H_    0.904320 0.109562 0.896124 0.127132
C41   C     C_R   0.777031 0.157468 0.843527 -0.129603
H18   H     H_    0.916443 0.170318 0.830844 0.115886
C42   C     C_R   0.606440 0.175010 0.822259 0.125460
C43   C     C_R   0.573158 0.143095 0.162851 -0.294206
C44   C     C_R   0.659033 0.355133 0.339017 -0.141911
C45   C     C_R   0.838695 0.291948 0.246467 -0.183198
C46   C     C_R   0.820784 0.345850 0.299900 -0.152804
C47   C     C_R   0.513508 0.309264 0.322909 -0.226497
C48   C     C_R   0.532913 0.254112 0.269706 0.148330
C49   C     C_R   0.696591 0.245279 0.231135 0.212454
C50   C     C_R   0.715226 0.190205 0.177908 -0.242919
C51   C     C_R   0.413849 0.151090 0.203727 0.378458
C52   C     C_R   0.393753 0.206837 0.255572 -0.320616
H19   H     H_    0.837385 0.184810 0.147317 0.155261
H20   H     H_    0.965553 0.286328 0.217723 0.123580
H21   H     H_    0.270958 0.212527 0.285981 0.181467
H22   H     H_    0.935601 0.380306 0.311085 0.131548
H23   H     H_    0.389740 0.315227 0.353000 0.141817
O11   O     O_R   0.743670 0.046700 0.952260 -0.602915
O12   O     O_R   0.409540 0.072400 0.076630 -0.577804
O13   O     O_R   0.235480 0.953360 0.047790 -0.578432
C53   C     C_R   0.576329 0.089731 0.101741 1.018173
O14   O     O_R   0.414170 0.054050 0.954440 -0.605151
O15   O     O_R   0.240140 0.934880 0.924740 -0.596527
C54   C     C_R   0.583370 0.066042 0.937272 0.906890
O16   O     O_R   0.739000 0.065180 0.075310 -0.575565
O17   O     O_3   0.571870 0.960980 0.990450 -0.270694
V3    V     V_3+5 0.298470 0.007240 0.001770 1.193962
O18   O     O_R   0.910180 0.927540 0.923320 -0.586567
C55   C     C_R   0.078019 0.909758 0.898849 0.925786
O19   O     O_R   0.905550 0.945890 0.045500 -0.597538
C56   C     C_R   0.073930 0.933811 0.062481 1.010344
V4    V     V_3+5 0.798010 0.992650 0.998130 1.192471
O20   O     O_3   0.074480 0.039020 0.009550 -0.274969
N9    N     N_R   0.941663 0.264525 0.614785 0.232593
O21   O     O_R   0.113242 0.276155 0.599010 -0.412531
O22   O     O_R   0.899028 0.207404 0.607987 -0.362360
N10   N     N_R   0.274584 0.102121 0.194535 0.240396
O23   O     O_R   0.331873 0.044954 0.180617 -0.433466
O24   O     O_R   0.094765 0.115677 0.209425 -0.404515
N11   N     N_R   0.479983 0.706605 0.802006 0.223564
O25   O     O_R   0.482752 0.668655 0.831042 -0.393829
O26   O     O_R   0.617091 0.747756 0.811300 -0.425757
N12   N     N_2   0.440009 0.597900 0.693891 -0.094363
H24   H     H_    0.578049 0.611294 0.709633 0.207506
C57   C     C_3   0.367086 0.547030 0.709449 -0.813679
H25   H     H_    0.482895 0.512206 0.702602 0.225690
H26   H     H_    0.242977 0.524074 0.679655 0.219090
H27   H     H_    0.320620 0.564195 0.758397 0.277583
N13   N     N_2   0.435328 0.866498 0.206969 -0.123406
H28   H     H_    0.558256 0.873797 0.185682 0.166807
C58   C     C_3   0.421087 0.911002 0.269763 -0.798884
H29   H     H_    0.401913 0.958979 0.270554 0.268584
H30   H     H_    0.555349 0.909848 0.294743 0.246918
H31   H     H_    0.297986 0.899232 0.293949 0.247440

loop_
_geom_bond_atom_site_label_1
_geom_bond_atom_site_label_2
_geom_bond_distance
_ccdc_geom_bond_type
O15   C55   1.305756 A    
C45   C49   1.400611 A    
C49   C50   1.412346 A    
C51   N10   1.436931 S    
O11   C54   1.301407 A    
C6    C9    1.404105 A    
N2    C21   1.360361 A    
C4    C6    1.497577 S    
C53   O16   1.309171 A    
C7    C8    1.416843 A    
C12   H1    1.081946 S    
C1    O6    1.301106 A    
N9    O22   1.301416 A    
C57   H25   1.108919 S    
C27   H11   1.082551 S    
O19   C56   1.303136 A    
C13   H2    1.083383 S    
C45   H20   1.083716 S    
O14   V3    1.985482 S    
C33   H14   1.083126 S    
O13   V3    1.980317 S    
O16   V4    1.990356 S    
C18   C19   1.402505 A    
C40   C41   1.403942 A    
C5    C55   1.487678 S    
O5    C3    1.299576 A    
C41   C42   1.408772 A    
C57   H26   1.110560 S    
O18   C55   1.293833 A    
C30   C31   1.407312 A    
V2    O10   2.158982 S    
C16   N13   1.423040 S    
C29   H12   1.081780 S    
C17   C18   1.408649 A    
C38   H16   1.082653 S    
N11   O25   1.300525 A    
O17   V3    2.149607 S    
C33   C34   1.406819 A    
V4    O20   2.158994 S    
O8    V2    1.975462 S    
C18   H6    1.082615 S    
C7    N11   1.435874 S    
C15   C20   1.405576 A    
N7    N8    1.334246 A    
N10   O24   1.301426 A    
C23   C28   1.408133 A    
C39   C54   1.493709 S    
C11   C12   1.418755 A    
C15   C16   1.406903 A    
O1    V2    1.985922 S    
O7    V1    2.149667 S    
C58   H31   1.110757 S    
O12   V3    1.987412 S    
C24   C25   1.407437 A    
N6    C35   1.359761 A    
V3    O20   1.702903 S    
O13   C56   1.298346 A    
O1    C2    1.307379 A    
O9    C4    1.293764 A    
C38   C39   1.408427 A    
N8    C36   1.359377 A    
C37   C42   1.406836 A    
O12   C53   1.292868 A    
C16   C17   1.418831 A    
C27   C28   1.407195 A    
O15   V3    1.985601 S    
N1    C22   1.360118 A    
C23   C24   1.401865 A    
C5    C12   1.402497 A    
C35   N7    1.360407 A    
C40   H17   1.082678 S    
C48   C52   1.397143 A    
O4    C2    1.292600 A    
C41   H18   1.082504 S    
C57   H27   1.111007 S    
C43   C53   1.496890 S    
C13   C14   1.399066 A    
C47   C48   1.413572 A    
O11   V4    1.975375 S    
C26   H10   1.082707 S    
C31   C32   1.420668 A    
C26   C27   1.401875 A    
O2    C1    1.300027 A    
C39   C40   1.407781 A    
N13   C58   1.446740 S    
C19   H7    1.083054 S    
C21   C28   1.492626 S    
C15   H5    1.082966 S    
C50   H19   1.084212 S    
C31   C36   1.494114 S    
O14   C54   1.300549 A    
C25   C26   1.408458 A    
C8    N12   1.425362 S    
C17   C22   1.496667 S    
C46   H22   1.083377 S    
N12   H24   1.031452 S    
O3    C4    1.309256 A    
C24   H9    1.082671 S    
O6    V2    1.974836 S    
C44   C46   1.410529 A    
O9    V2    1.988143 S    
N3    N4    1.333286 A    
C45   C46   1.399402 A    
C21   N3    1.358969 A    
N13   H28   1.030596 S    
O2    V1    1.985290 S    
N4    C22   1.359464 A    
C7    C11   1.411092 A    
C52   H21   1.084156 S    
C37   C38   1.400833 A    
C58   H29   1.111813 S    
O18   V4    1.988059 S    
N9    O21   1.300703 A    
C23   H8    1.082561 S    
N1    N2    1.334723 A    
C48   C49   1.414617 A    
C35   C42   1.493636 S    
O5    V1    1.980338 S    
C3    C25   1.492699 S    
O8    C3    1.302593 A    
O19   V4    1.975498 S    
C44   C47   1.404863 A    
C9    H4    1.084303 S    
C1    C34   1.492509 S    
C5    C13   1.406074 A    
C30   H13   1.083076 S    
C43   C51   1.425364 A    
O4    V1    1.987226 S    
C19   C20   1.404260 A    
O3    V1    1.985731 S    
V1    O10   1.702910 S    
O17   V4    1.708272 S    
C47   H23   1.084203 S    
C29   C34   1.402957 A    
C29   C30   1.400003 A    
C6    C8    1.422261 A    
O7    V2    1.709827 S    
C32   C33   1.410916 A    
N11   O26   1.300314 A    
N12   C57   1.445477 S    
C43   C50   1.407503 A    
C20   C56   1.491501 S    
C2    C44   1.490586 S    
C37   H15   1.082565 S    
C14   H3    1.083675 S    
N5    N6    1.334434 A    
C10   C14   1.402663 A    
C10   C11   1.417528 A    
N10   O23   1.300471 A    
C51   C52   1.405104 A    
C9    C10   1.410901 A    
C32   N9    1.439379 S    
N5    C36   1.360046 A    
C58   H30   1.110424 S    
